data_str_m3_o1_o2_pcu_sym.95
_audit_creation_date              2020-01-03
_audit_creation_method            'Materials Studio'
_symmetry_space_group_name_H-M    'P1'
_symmetry_Int_Tables_number       1
_symmetry_cell_setting            triclinic
loop_
_symmetry_equiv_pos_as_xyz
  x,y,z
_cell_length_a                    32.3882
_cell_length_b                    29.4309
_cell_length_c                    29.9211
_cell_angle_alpha                 89.4280
_cell_angle_beta                  89.9220
_cell_angle_gamma                 89.9418
loop_
_atom_site_label
_atom_site_type_symbol
_atom_site_fract_x
_atom_site_fract_y
_atom_site_fract_z
_atom_site_U_iso_or_equiv
_atom_site_adp_type
_atom_site_occupancy
C1     C     0.08645   0.16666   0.25013   0.00000  Uiso   1.00
C2     C     0.31228   0.20638   0.23773   0.00000  Uiso   1.00
C3     C     0.31214   0.12708   0.26351   0.00000  Uiso   1.00
C4     C     0.02005   0.20845   0.24968   0.00000  Uiso   1.00
C5     C     0.13879   0.19101   0.04545   0.00000  Uiso   1.00
C6     C     0.20257   0.19005   0.45192   0.00000  Uiso   1.00
C7     C     0.14030   0.14432   0.45515   0.00000  Uiso   1.00
C8     C     0.20339   0.14912   0.04769   0.00000  Uiso   1.00
C9     C     0.13646   0.19049   0.09173   0.00000  Uiso   1.00
C10    C     0.20282   0.18825   0.40551   0.00000  Uiso   1.00
C11    C     0.13858   0.14273   0.40893   0.00000  Uiso   1.00
C12    C     0.24665   0.16667   0.25003   0.00000  Uiso   1.00
C13    C     0.20213   0.14761   0.09404   0.00000  Uiso   1.00
C14    C     0.16815   0.16800   0.11605   0.00000  Uiso   1.00
C15    C     0.16968   0.16562   0.38400   0.00000  Uiso   1.00
C16    C     0.17173   0.17018   0.02396   0.00000  Uiso   1.00
C17    C     0.17166   0.16819   0.47609   0.00000  Uiso   1.00
C18    C     0.29063   0.16670   0.25039   0.00000  Uiso   1.00
C19    C     0.04205   0.16662   0.25060   0.00000  Uiso   1.00
C20    C     0.09941   0.21309   0.11348   0.00000  Uiso   1.00
C21    C     0.06819   0.17813   0.13021   0.00000  Uiso   1.00
C22    C     0.23832   0.21116   0.38047   0.00000  Uiso   1.00
C23    C     0.16642   0.16697   0.16397   0.00000  Uiso   1.00
C24    C     0.28071   0.19442   0.39625   0.00000  Uiso   1.00
C25    C     0.10263   0.11756   0.38791   0.00000  Uiso   1.00
C26    C     0.07006   0.15037   0.36988   0.00000  Uiso   1.00
C27    C     0.23807   0.12532   0.11839   0.00000  Uiso   1.00
C28    C     0.23563   0.07364   0.11595   0.00000  Uiso   1.00
C29    C     0.16722   0.16637   0.33606   0.00000  Uiso   1.00
C30    C     0.17531   0.02360   0.28814   0.00000  Uiso   1.00
C31    C     0.15802   0.30974   0.21188   0.00000  Uiso   1.00
C32    C     0.15796   0.02435   0.21191   0.00000  Uiso   1.00
C33    C     0.17544   0.30896   0.28811   0.00000  Uiso   1.00
C34    C     0.02003   0.12479   0.25186   0.00000  Uiso   1.00
H35    H     0.18233   0.04138   0.31862   0.00000  Uiso   1.00
H36    H     0.04121   0.19571   0.14513   0.00000  Uiso   1.00
H37    H     0.05733   0.15682   0.10214   0.00000  Uiso   1.00
H38    H     0.10904   0.23530   0.14124   0.00000  Uiso   1.00
H39    H     0.08337   0.23580   0.08917   0.00000  Uiso   1.00
H40    H     0.28154   0.15678   0.39843   0.00000  Uiso   1.00
H41    H     0.30485   0.20593   0.37227   0.00000  Uiso   1.00
H42    H     0.28828   0.20851   0.42951   0.00000  Uiso   1.00
H43    H     0.23705   0.20518   0.34405   0.00000  Uiso   1.00
H44    H     0.23635   0.24847   0.38539   0.00000  Uiso   1.00
H45    H     0.05803   0.17201   0.39719   0.00000  Uiso   1.00
H46    H     0.15101   0.29201   0.18139   0.00000  Uiso   1.00
H47    H     0.04399   0.13097   0.35544   0.00000  Uiso   1.00
H48    H     0.08335   0.17232   0.34337   0.00000  Uiso   1.00
H49    H     0.11333   0.09457   0.36116   0.00000  Uiso   1.00
H50    H     0.08735   0.09509   0.41303   0.00000  Uiso   1.00
H51    H     0.26139   0.05830   0.13539   0.00000  Uiso   1.00
H52    H     0.20599   0.06141   0.13021   0.00000  Uiso   1.00
H53    H     0.23810   0.06234   0.08074   0.00000  Uiso   1.00
H54    H     0.26759   0.13683   0.10303   0.00000  Uiso   1.00
H55    H     0.23967   0.13531   0.15396   0.00000  Uiso   1.00
H56    H     0.07253   0.04732   0.17545   0.00000  Uiso   1.00
H57    H     0.15074   0.04269   0.18148   0.00000  Uiso   1.00
H58    H     0.27693   0.21328   0.14214   0.00000  Uiso   1.00
H59    H     0.24696   0.08092   0.35345   0.00000  Uiso   1.00
H60    H     0.05201   0.24947   0.33830   0.00000  Uiso   1.00
H61    H     0.18265   0.29059   0.31857   0.00000  Uiso   1.00
H62    H     0.11458   0.20702   0.02581   0.00000  Uiso   1.00
H63    H     0.22636   0.20853   0.46951   0.00000  Uiso   1.00
H64    H     0.11679   0.12753   0.47518   0.00000  Uiso   1.00
H65    H     0.22877   0.13334   0.02993   0.00000  Uiso   1.00
H66    H     0.08232   0.15607   0.15609   0.00000  Uiso   1.00
N67    N     0.16667   0.28573   0.25000   0.00000  Uiso   1.00
N68    N     0.16667   0.04760   0.25000   0.00000  Uiso   1.00
O69    O     0.10559   0.20487   0.25000   0.00000  Uiso   1.00
O70    O     0.00510   0.04006   0.22110   0.00000  Uiso   1.00
O71    O     0.07014   0.07798   0.18857   0.00000  Uiso   1.00
O72    O     0.26793   0.28396   0.22969   0.00000  Uiso   1.00
O73    O     0.32509   0.27426   0.17731   0.00000  Uiso   1.00
O74    O     0.25878   0.22720   0.16488   0.00000  Uiso   1.00
O75    O     0.26894   0.04887   0.27086   0.00000  Uiso   1.00
O76    O     0.32409   0.06081   0.32541   0.00000  Uiso   1.00
O77    O     0.25636   0.10656   0.33434   0.00000  Uiso   1.00
O78    O     0.06377   0.28424   0.23105   0.00000  Uiso   1.00
O79    O     0.00512   0.29286   0.28166   0.00000  Uiso   1.00
O80    O     0.22774   0.12846   0.25000   0.00000  Uiso   1.00
O81    O     0.07091   0.25488   0.31274   0.00000  Uiso   1.00
O82    O     0.22774   0.20487   0.25001   0.00000  Uiso   1.00
O83    O     0.10559   0.12846   0.25000   0.00000  Uiso   1.00
O84    O     0.16666   0.20489   0.18453   0.00000  Uiso   1.00
O85    O     0.16667   0.12845   0.31547   0.00000  Uiso   1.00
O86    O     0.16667   0.20489   0.31547   0.00000  Uiso   1.00
O87    O     0.16666   0.12845   0.18453   0.00000  Uiso   1.00
O88    O     0.06442   0.04933   0.27086   0.00000  Uiso   1.00
S89    S     0.03986   0.07111   0.23381   0.00000  Uiso   1.00
S90    S     0.29125   0.24994   0.20228   0.00000  Uiso   1.00
S91    S     0.29057   0.08370   0.29875   0.00000  Uiso   1.00
S92    S     0.03979   0.26188   0.26823   0.00000  Uiso   1.00
Zn93   Zn    0.16667   0.21771   0.25000   0.00000  Uiso   1.00
Zn94   Zn    0.16667   0.11563   0.25000   0.00000  Uiso   1.00
C95    C     0.41978   0.16666   0.25013   0.00000  Uiso   1.00
C96    C     0.64561   0.20638   0.23773   0.00000  Uiso   1.00
C97    C     0.64547   0.12708   0.26351   0.00000  Uiso   1.00
C98    C     0.35338   0.20845   0.24968   0.00000  Uiso   1.00
C99    C     0.47212   0.19101   0.04545   0.00000  Uiso   1.00
C100   C     0.53591   0.19005   0.45192   0.00000  Uiso   1.00
C101   C     0.47363   0.14432   0.45515   0.00000  Uiso   1.00
C102   C     0.53672   0.14912   0.04769   0.00000  Uiso   1.00
C103   C     0.46980   0.19049   0.09173   0.00000  Uiso   1.00
C104   C     0.53615   0.18825   0.40551   0.00000  Uiso   1.00
C105   C     0.47192   0.14273   0.40893   0.00000  Uiso   1.00
C106   C     0.57998   0.16667   0.25003   0.00000  Uiso   1.00
C107   C     0.53546   0.14761   0.09404   0.00000  Uiso   1.00
C108   C     0.50148   0.16800   0.11605   0.00000  Uiso   1.00
C109   C     0.50301   0.16562   0.38400   0.00000  Uiso   1.00
C110   C     0.50506   0.17018   0.02396   0.00000  Uiso   1.00
C111   C     0.50500   0.16819   0.47609   0.00000  Uiso   1.00
C112   C     0.62397   0.16670   0.25039   0.00000  Uiso   1.00
C113   C     0.37538   0.16662   0.25060   0.00000  Uiso   1.00
C114   C     0.43274   0.21309   0.11348   0.00000  Uiso   1.00
C115   C     0.40152   0.17813   0.13021   0.00000  Uiso   1.00
C116   C     0.57165   0.21116   0.38047   0.00000  Uiso   1.00
C117   C     0.49976   0.16697   0.16397   0.00000  Uiso   1.00
C118   C     0.61404   0.19442   0.39625   0.00000  Uiso   1.00
C119   C     0.43596   0.11756   0.38791   0.00000  Uiso   1.00
C120   C     0.40339   0.15037   0.36988   0.00000  Uiso   1.00
C121   C     0.57140   0.12532   0.11839   0.00000  Uiso   1.00
C122   C     0.56896   0.07364   0.11595   0.00000  Uiso   1.00
C123   C     0.50055   0.16637   0.33606   0.00000  Uiso   1.00
C124   C     0.50864   0.02360   0.28814   0.00000  Uiso   1.00
C125   C     0.49135   0.30974   0.21188   0.00000  Uiso   1.00
C126   C     0.49129   0.02435   0.21191   0.00000  Uiso   1.00
C127   C     0.50877   0.30896   0.28811   0.00000  Uiso   1.00
C128   C     0.35336   0.12479   0.25186   0.00000  Uiso   1.00
H129   H     0.51566   0.04138   0.31862   0.00000  Uiso   1.00
H130   H     0.37454   0.19571   0.14513   0.00000  Uiso   1.00
H131   H     0.39066   0.15682   0.10214   0.00000  Uiso   1.00
H132   H     0.44237   0.23530   0.14124   0.00000  Uiso   1.00
H133   H     0.41670   0.23580   0.08917   0.00000  Uiso   1.00
H134   H     0.61487   0.15678   0.39843   0.00000  Uiso   1.00
H135   H     0.63818   0.20593   0.37227   0.00000  Uiso   1.00
H136   H     0.62162   0.20851   0.42951   0.00000  Uiso   1.00
H137   H     0.57038   0.20518   0.34405   0.00000  Uiso   1.00
H138   H     0.56969   0.24847   0.38539   0.00000  Uiso   1.00
H139   H     0.39136   0.17201   0.39719   0.00000  Uiso   1.00
H140   H     0.48434   0.29201   0.18139   0.00000  Uiso   1.00
H141   H     0.37733   0.13097   0.35544   0.00000  Uiso   1.00
H142   H     0.41669   0.17232   0.34337   0.00000  Uiso   1.00
H143   H     0.44667   0.09457   0.36116   0.00000  Uiso   1.00
H144   H     0.42068   0.09509   0.41303   0.00000  Uiso   1.00
H145   H     0.59472   0.05830   0.13539   0.00000  Uiso   1.00
H146   H     0.53932   0.06141   0.13021   0.00000  Uiso   1.00
H147   H     0.57144   0.06234   0.08074   0.00000  Uiso   1.00
H148   H     0.60092   0.13683   0.10303   0.00000  Uiso   1.00
H149   H     0.57300   0.13531   0.15396   0.00000  Uiso   1.00
H150   H     0.40586   0.04732   0.17545   0.00000  Uiso   1.00
H151   H     0.48407   0.04269   0.18148   0.00000  Uiso   1.00
H152   H     0.61026   0.21328   0.14214   0.00000  Uiso   1.00
H153   H     0.58029   0.08092   0.35345   0.00000  Uiso   1.00
H154   H     0.38534   0.24947   0.33830   0.00000  Uiso   1.00
H155   H     0.51599   0.29059   0.31857   0.00000  Uiso   1.00
H156   H     0.44792   0.20702   0.02581   0.00000  Uiso   1.00
H157   H     0.55969   0.20853   0.46951   0.00000  Uiso   1.00
H158   H     0.45012   0.12753   0.47518   0.00000  Uiso   1.00
H159   H     0.56210   0.13334   0.02993   0.00000  Uiso   1.00
H160   H     0.41565   0.15607   0.15609   0.00000  Uiso   1.00
N161   N     0.50000   0.28573   0.25000   0.00000  Uiso   1.00
N162   N     0.50000   0.04760   0.25000   0.00000  Uiso   1.00
O163   O     0.43892   0.20487   0.25000   0.00000  Uiso   1.00
O164   O     0.33844   0.04006   0.22110   0.00000  Uiso   1.00
O165   O     0.40348   0.07798   0.18857   0.00000  Uiso   1.00
O166   O     0.60126   0.28396   0.22969   0.00000  Uiso   1.00
O167   O     0.65842   0.27426   0.17731   0.00000  Uiso   1.00
O168   O     0.59211   0.22720   0.16488   0.00000  Uiso   1.00
O169   O     0.60227   0.04887   0.27086   0.00000  Uiso   1.00
O170   O     0.65743   0.06081   0.32541   0.00000  Uiso   1.00
O171   O     0.58969   0.10656   0.33434   0.00000  Uiso   1.00
O172   O     0.39710   0.28424   0.23105   0.00000  Uiso   1.00
O173   O     0.33845   0.29286   0.28166   0.00000  Uiso   1.00
O174   O     0.56108   0.12846   0.25000   0.00000  Uiso   1.00
O175   O     0.40425   0.25488   0.31274   0.00000  Uiso   1.00
O176   O     0.56108   0.20487   0.25001   0.00000  Uiso   1.00
O177   O     0.43892   0.12846   0.25000   0.00000  Uiso   1.00
O178   O     0.50000   0.20489   0.18453   0.00000  Uiso   1.00
O179   O     0.50000   0.12845   0.31547   0.00000  Uiso   1.00
O180   O     0.50000   0.20489   0.31547   0.00000  Uiso   1.00
O181   O     0.50000   0.12845   0.18453   0.00000  Uiso   1.00
O182   O     0.39775   0.04933   0.27086   0.00000  Uiso   1.00
S183   S     0.37319   0.07111   0.23381   0.00000  Uiso   1.00
S184   S     0.62458   0.24994   0.20228   0.00000  Uiso   1.00
S185   S     0.62390   0.08370   0.29875   0.00000  Uiso   1.00
S186   S     0.37313   0.26188   0.26823   0.00000  Uiso   1.00
Zn187  Zn    0.50000   0.21771   0.25000   0.00000  Uiso   1.00
Zn188  Zn    0.50000   0.11563   0.25000   0.00000  Uiso   1.00
C189   C     0.75312   0.16666   0.25013   0.00000  Uiso   1.00
C190   C     0.97895   0.20638   0.23773   0.00000  Uiso   1.00
C191   C     0.97881   0.12708   0.26351   0.00000  Uiso   1.00
C192   C     0.68671   0.20845   0.24968   0.00000  Uiso   1.00
C193   C     0.80545   0.19101   0.04545   0.00000  Uiso   1.00
C194   C     0.86924   0.19005   0.45192   0.00000  Uiso   1.00
C195   C     0.80697   0.14432   0.45515   0.00000  Uiso   1.00
C196   C     0.87006   0.14912   0.04769   0.00000  Uiso   1.00
C197   C     0.80313   0.19049   0.09173   0.00000  Uiso   1.00
C198   C     0.86949   0.18825   0.40551   0.00000  Uiso   1.00
C199   C     0.80525   0.14273   0.40893   0.00000  Uiso   1.00
C200   C     0.91332   0.16667   0.25003   0.00000  Uiso   1.00
C201   C     0.86880   0.14761   0.09404   0.00000  Uiso   1.00
C202   C     0.83481   0.16800   0.11605   0.00000  Uiso   1.00
C203   C     0.83634   0.16562   0.38400   0.00000  Uiso   1.00
C204   C     0.83839   0.17018   0.02396   0.00000  Uiso   1.00
C205   C     0.83833   0.16819   0.47609   0.00000  Uiso   1.00
C206   C     0.95730   0.16670   0.25039   0.00000  Uiso   1.00
C207   C     0.70872   0.16662   0.25060   0.00000  Uiso   1.00
C208   C     0.76608   0.21309   0.11348   0.00000  Uiso   1.00
C209   C     0.73485   0.17813   0.13021   0.00000  Uiso   1.00
C210   C     0.90499   0.21116   0.38047   0.00000  Uiso   1.00
C211   C     0.83309   0.16697   0.16397   0.00000  Uiso   1.00
C212   C     0.94737   0.19442   0.39625   0.00000  Uiso   1.00
C213   C     0.76929   0.11756   0.38791   0.00000  Uiso   1.00
C214   C     0.73673   0.15037   0.36988   0.00000  Uiso   1.00
C215   C     0.90474   0.12532   0.11839   0.00000  Uiso   1.00
C216   C     0.90230   0.07364   0.11595   0.00000  Uiso   1.00
C217   C     0.83388   0.16637   0.33606   0.00000  Uiso   1.00
C218   C     0.84197   0.02360   0.28814   0.00000  Uiso   1.00
C219   C     0.82469   0.30974   0.21188   0.00000  Uiso   1.00
C220   C     0.82462   0.02435   0.21191   0.00000  Uiso   1.00
C221   C     0.84210   0.30896   0.28811   0.00000  Uiso   1.00
C222   C     0.68669   0.12479   0.25186   0.00000  Uiso   1.00
H223   H     0.84899   0.04138   0.31862   0.00000  Uiso   1.00
H224   H     0.70788   0.19571   0.14513   0.00000  Uiso   1.00
H225   H     0.72399   0.15682   0.10214   0.00000  Uiso   1.00
H226   H     0.77570   0.23530   0.14124   0.00000  Uiso   1.00
H227   H     0.75003   0.23580   0.08917   0.00000  Uiso   1.00
H228   H     0.94821   0.15678   0.39843   0.00000  Uiso   1.00
H229   H     0.97151   0.20593   0.37227   0.00000  Uiso   1.00
H230   H     0.95495   0.20851   0.42951   0.00000  Uiso   1.00
H231   H     0.90371   0.20518   0.34405   0.00000  Uiso   1.00
H232   H     0.90302   0.24847   0.38539   0.00000  Uiso   1.00
H233   H     0.72469   0.17201   0.39719   0.00000  Uiso   1.00
H234   H     0.81768   0.29201   0.18139   0.00000  Uiso   1.00
H235   H     0.71066   0.13097   0.35544   0.00000  Uiso   1.00
H236   H     0.75002   0.17232   0.34337   0.00000  Uiso   1.00
H237   H     0.78000   0.09457   0.36116   0.00000  Uiso   1.00
H238   H     0.75401   0.09509   0.41303   0.00000  Uiso   1.00
H239   H     0.92806   0.05830   0.13539   0.00000  Uiso   1.00
H240   H     0.87265   0.06141   0.13021   0.00000  Uiso   1.00
H241   H     0.90477   0.06234   0.08074   0.00000  Uiso   1.00
H242   H     0.93426   0.13683   0.10303   0.00000  Uiso   1.00
H243   H     0.90634   0.13531   0.15396   0.00000  Uiso   1.00
H244   H     0.73919   0.04732   0.17545   0.00000  Uiso   1.00
H245   H     0.81740   0.04269   0.18148   0.00000  Uiso   1.00
H246   H     0.94360   0.21328   0.14214   0.00000  Uiso   1.00
H247   H     0.91363   0.08092   0.35345   0.00000  Uiso   1.00
H248   H     0.71868   0.24947   0.33830   0.00000  Uiso   1.00
H249   H     0.84932   0.29059   0.31857   0.00000  Uiso   1.00
H250   H     0.78125   0.20702   0.02581   0.00000  Uiso   1.00
H251   H     0.89303   0.20853   0.46951   0.00000  Uiso   1.00
H252   H     0.78346   0.12753   0.47518   0.00000  Uiso   1.00
H253   H     0.89543   0.13334   0.02993   0.00000  Uiso   1.00
H254   H     0.74899   0.15607   0.15609   0.00000  Uiso   1.00
N255   N     0.83333   0.28573   0.25000   0.00000  Uiso   1.00
N256   N     0.83333   0.04760   0.25000   0.00000  Uiso   1.00
O257   O     0.77226   0.20487   0.25000   0.00000  Uiso   1.00
O258   O     0.67177   0.04006   0.22110   0.00000  Uiso   1.00
O259   O     0.73681   0.07798   0.18857   0.00000  Uiso   1.00
O260   O     0.93460   0.28396   0.22969   0.00000  Uiso   1.00
O261   O     0.99175   0.27426   0.17731   0.00000  Uiso   1.00
O262   O     0.92545   0.22720   0.16488   0.00000  Uiso   1.00
O263   O     0.93561   0.04887   0.27086   0.00000  Uiso   1.00
O264   O     0.99076   0.06081   0.32541   0.00000  Uiso   1.00
O265   O     0.92302   0.10656   0.33434   0.00000  Uiso   1.00
O266   O     0.73044   0.28424   0.23105   0.00000  Uiso   1.00
O267   O     0.67178   0.29286   0.28166   0.00000  Uiso   1.00
O268   O     0.89441   0.12846   0.25000   0.00000  Uiso   1.00
O269   O     0.73758   0.25488   0.31274   0.00000  Uiso   1.00
O270   O     0.89441   0.20487   0.25001   0.00000  Uiso   1.00
O271   O     0.77226   0.12846   0.25000   0.00000  Uiso   1.00
O272   O     0.83333   0.20489   0.18453   0.00000  Uiso   1.00
O273   O     0.83334   0.12845   0.31547   0.00000  Uiso   1.00
O274   O     0.83334   0.20489   0.31547   0.00000  Uiso   1.00
O275   O     0.83333   0.12845   0.18453   0.00000  Uiso   1.00
O276   O     0.73109   0.04933   0.27086   0.00000  Uiso   1.00
S277   S     0.70652   0.07111   0.23381   0.00000  Uiso   1.00
S278   S     0.95792   0.24994   0.20228   0.00000  Uiso   1.00
S279   S     0.95724   0.08370   0.29875   0.00000  Uiso   1.00
S280   S     0.70646   0.26188   0.26823   0.00000  Uiso   1.00
Zn281  Zn    0.83333   0.21771   0.25000   0.00000  Uiso   1.00
Zn282  Zn    0.83333   0.11563   0.25000   0.00000  Uiso   1.00
C283   C     0.08645   0.50000   0.25013   0.00000  Uiso   1.00
C284   C     0.31228   0.53972   0.23773   0.00000  Uiso   1.00
C285   C     0.31214   0.46041   0.26351   0.00000  Uiso   1.00
C286   C     0.02005   0.54179   0.24968   0.00000  Uiso   1.00
C287   C     0.13879   0.52434   0.04545   0.00000  Uiso   1.00
C288   C     0.20257   0.52338   0.45192   0.00000  Uiso   1.00
C289   C     0.14030   0.47766   0.45515   0.00000  Uiso   1.00
C290   C     0.20339   0.48246   0.04769   0.00000  Uiso   1.00
C291   C     0.13646   0.52383   0.09173   0.00000  Uiso   1.00
C292   C     0.20282   0.52158   0.40551   0.00000  Uiso   1.00
C293   C     0.13858   0.47606   0.40893   0.00000  Uiso   1.00
C294   C     0.24665   0.50000   0.25003   0.00000  Uiso   1.00
C295   C     0.20213   0.48094   0.09404   0.00000  Uiso   1.00
C296   C     0.16815   0.50133   0.11605   0.00000  Uiso   1.00
C297   C     0.16968   0.49895   0.38400   0.00000  Uiso   1.00
C298   C     0.17173   0.50351   0.02396   0.00000  Uiso   1.00
C299   C     0.17166   0.50153   0.47609   0.00000  Uiso   1.00
C300   C     0.29063   0.50004   0.25039   0.00000  Uiso   1.00
C301   C     0.04205   0.49995   0.25060   0.00000  Uiso   1.00
C302   C     0.09941   0.54642   0.11348   0.00000  Uiso   1.00
C303   C     0.06819   0.51146   0.13021   0.00000  Uiso   1.00
C304   C     0.23832   0.54449   0.38047   0.00000  Uiso   1.00
C305   C     0.16642   0.50031   0.16397   0.00000  Uiso   1.00
C306   C     0.28071   0.52775   0.39625   0.00000  Uiso   1.00
C307   C     0.10263   0.45089   0.38791   0.00000  Uiso   1.00
C308   C     0.07006   0.48370   0.36988   0.00000  Uiso   1.00
C309   C     0.23807   0.45865   0.11839   0.00000  Uiso   1.00
C310   C     0.23563   0.40697   0.11595   0.00000  Uiso   1.00
C311   C     0.16722   0.49970   0.33606   0.00000  Uiso   1.00
C312   C     0.17531   0.35693   0.28814   0.00000  Uiso   1.00
C313   C     0.15802   0.64307   0.21188   0.00000  Uiso   1.00
C314   C     0.15796   0.35768   0.21191   0.00000  Uiso   1.00
C315   C     0.17544   0.64229   0.28811   0.00000  Uiso   1.00
C316   C     0.02003   0.45812   0.25186   0.00000  Uiso   1.00
H317   H     0.18233   0.37472   0.31862   0.00000  Uiso   1.00
H318   H     0.04121   0.52905   0.14513   0.00000  Uiso   1.00
H319   H     0.05733   0.49016   0.10214   0.00000  Uiso   1.00
H320   H     0.10904   0.56864   0.14124   0.00000  Uiso   1.00
H321   H     0.08337   0.56913   0.08917   0.00000  Uiso   1.00
H322   H     0.28154   0.49011   0.39843   0.00000  Uiso   1.00
H323   H     0.30485   0.53926   0.37227   0.00000  Uiso   1.00
H324   H     0.28828   0.54184   0.42951   0.00000  Uiso   1.00
H325   H     0.23705   0.53852   0.34405   0.00000  Uiso   1.00
H326   H     0.23635   0.58180   0.38539   0.00000  Uiso   1.00
H327   H     0.05803   0.50534   0.39719   0.00000  Uiso   1.00
H328   H     0.15101   0.62534   0.18139   0.00000  Uiso   1.00
H329   H     0.04399   0.46430   0.35544   0.00000  Uiso   1.00
H330   H     0.08335   0.50565   0.34337   0.00000  Uiso   1.00
H331   H     0.11333   0.42791   0.36116   0.00000  Uiso   1.00
H332   H     0.08735   0.42842   0.41303   0.00000  Uiso   1.00
H333   H     0.26139   0.39163   0.13539   0.00000  Uiso   1.00
H334   H     0.20599   0.39475   0.13021   0.00000  Uiso   1.00
H335   H     0.23810   0.39567   0.08074   0.00000  Uiso   1.00
H336   H     0.26759   0.47016   0.10303   0.00000  Uiso   1.00
H337   H     0.23967   0.46864   0.15396   0.00000  Uiso   1.00
H338   H     0.07253   0.38065   0.17545   0.00000  Uiso   1.00
H339   H     0.15074   0.37602   0.18148   0.00000  Uiso   1.00
H340   H     0.27693   0.54661   0.14214   0.00000  Uiso   1.00
H341   H     0.24696   0.41425   0.35345   0.00000  Uiso   1.00
H342   H     0.05201   0.58281   0.33830   0.00000  Uiso   1.00
H343   H     0.18265   0.62392   0.31857   0.00000  Uiso   1.00
H344   H     0.11458   0.54035   0.02581   0.00000  Uiso   1.00
H345   H     0.22636   0.54187   0.46951   0.00000  Uiso   1.00
H346   H     0.11679   0.46086   0.47518   0.00000  Uiso   1.00
H347   H     0.22877   0.46667   0.02993   0.00000  Uiso   1.00
H348   H     0.08232   0.48940   0.15609   0.00000  Uiso   1.00
N349   N     0.16667   0.61907   0.25000   0.00000  Uiso   1.00
N350   N     0.16667   0.38093   0.25000   0.00000  Uiso   1.00
O351   O     0.10559   0.53821   0.25000   0.00000  Uiso   1.00
O352   O     0.00510   0.37339   0.22110   0.00000  Uiso   1.00
O353   O     0.07014   0.41131   0.18857   0.00000  Uiso   1.00
O354   O     0.26793   0.61729   0.22969   0.00000  Uiso   1.00
O355   O     0.32509   0.60759   0.17731   0.00000  Uiso   1.00
O356   O     0.25878   0.56054   0.16488   0.00000  Uiso   1.00
O357   O     0.26894   0.38220   0.27086   0.00000  Uiso   1.00
O358   O     0.32409   0.39414   0.32541   0.00000  Uiso   1.00
O359   O     0.25636   0.43990   0.33434   0.00000  Uiso   1.00
O360   O     0.06377   0.61757   0.23105   0.00000  Uiso   1.00
O361   O     0.00512   0.62619   0.28166   0.00000  Uiso   1.00
O362   O     0.22774   0.46179   0.25000   0.00000  Uiso   1.00
O363   O     0.07091   0.58822   0.31274   0.00000  Uiso   1.00
O364   O     0.22774   0.53821   0.25001   0.00000  Uiso   1.00
O365   O     0.10559   0.46179   0.25000   0.00000  Uiso   1.00
O366   O     0.16666   0.53822   0.18453   0.00000  Uiso   1.00
O367   O     0.16667   0.46178   0.31547   0.00000  Uiso   1.00
O368   O     0.16667   0.53822   0.31547   0.00000  Uiso   1.00
O369   O     0.16666   0.46178   0.18453   0.00000  Uiso   1.00
O370   O     0.06442   0.38267   0.27086   0.00000  Uiso   1.00
S371   S     0.03986   0.40444   0.23381   0.00000  Uiso   1.00
S372   S     0.29125   0.58327   0.20228   0.00000  Uiso   1.00
S373   S     0.29057   0.41704   0.29875   0.00000  Uiso   1.00
S374   S     0.03979   0.59521   0.26823   0.00000  Uiso   1.00
Zn375  Zn    0.16667   0.55104   0.25000   0.00000  Uiso   1.00
Zn376  Zn    0.16667   0.44896   0.25000   0.00000  Uiso   1.00
C377   C     0.41978   0.50000   0.25013   0.00000  Uiso   1.00
C378   C     0.64561   0.53972   0.23773   0.00000  Uiso   1.00
C379   C     0.64547   0.46041   0.26351   0.00000  Uiso   1.00
C380   C     0.35338   0.54179   0.24968   0.00000  Uiso   1.00
C381   C     0.47212   0.52434   0.04545   0.00000  Uiso   1.00
C382   C     0.53591   0.52338   0.45192   0.00000  Uiso   1.00
C383   C     0.47363   0.47766   0.45515   0.00000  Uiso   1.00
C384   C     0.53672   0.48246   0.04769   0.00000  Uiso   1.00
C385   C     0.46980   0.52383   0.09173   0.00000  Uiso   1.00
C386   C     0.53615   0.52158   0.40551   0.00000  Uiso   1.00
C387   C     0.47192   0.47606   0.40893   0.00000  Uiso   1.00
C388   C     0.57998   0.50000   0.25003   0.00000  Uiso   1.00
C389   C     0.53546   0.48094   0.09404   0.00000  Uiso   1.00
C390   C     0.50148   0.50133   0.11605   0.00000  Uiso   1.00
C391   C     0.50301   0.49895   0.38400   0.00000  Uiso   1.00
C392   C     0.50506   0.50351   0.02396   0.00000  Uiso   1.00
C393   C     0.50500   0.50153   0.47609   0.00000  Uiso   1.00
C394   C     0.62397   0.50004   0.25039   0.00000  Uiso   1.00
C395   C     0.37538   0.49995   0.25060   0.00000  Uiso   1.00
C396   C     0.43274   0.54642   0.11348   0.00000  Uiso   1.00
C397   C     0.40152   0.51146   0.13021   0.00000  Uiso   1.00
C398   C     0.57165   0.54449   0.38047   0.00000  Uiso   1.00
C399   C     0.49976   0.50031   0.16397   0.00000  Uiso   1.00
C400   C     0.61404   0.52775   0.39625   0.00000  Uiso   1.00
C401   C     0.43596   0.45089   0.38791   0.00000  Uiso   1.00
C402   C     0.40339   0.48370   0.36988   0.00000  Uiso   1.00
C403   C     0.57140   0.45865   0.11839   0.00000  Uiso   1.00
C404   C     0.56896   0.40697   0.11595   0.00000  Uiso   1.00
C405   C     0.50055   0.49970   0.33606   0.00000  Uiso   1.00
C406   C     0.50864   0.35693   0.28814   0.00000  Uiso   1.00
C407   C     0.49135   0.64307   0.21188   0.00000  Uiso   1.00
C408   C     0.49129   0.35768   0.21191   0.00000  Uiso   1.00
C409   C     0.50877   0.64229   0.28811   0.00000  Uiso   1.00
C410   C     0.35336   0.45812   0.25186   0.00000  Uiso   1.00
H411   H     0.51566   0.37472   0.31862   0.00000  Uiso   1.00
H412   H     0.37454   0.52905   0.14513   0.00000  Uiso   1.00
H413   H     0.39066   0.49016   0.10214   0.00000  Uiso   1.00
H414   H     0.44237   0.56864   0.14124   0.00000  Uiso   1.00
H415   H     0.41670   0.56913   0.08917   0.00000  Uiso   1.00
H416   H     0.61487   0.49011   0.39843   0.00000  Uiso   1.00
H417   H     0.63818   0.53926   0.37227   0.00000  Uiso   1.00
H418   H     0.62162   0.54184   0.42951   0.00000  Uiso   1.00
H419   H     0.57038   0.53852   0.34405   0.00000  Uiso   1.00
H420   H     0.56969   0.58180   0.38539   0.00000  Uiso   1.00
H421   H     0.39136   0.50534   0.39719   0.00000  Uiso   1.00
H422   H     0.48434   0.62534   0.18139   0.00000  Uiso   1.00
H423   H     0.37733   0.46430   0.35544   0.00000  Uiso   1.00
H424   H     0.41669   0.50565   0.34337   0.00000  Uiso   1.00
H425   H     0.44667   0.42791   0.36116   0.00000  Uiso   1.00
H426   H     0.42068   0.42842   0.41303   0.00000  Uiso   1.00
H427   H     0.59472   0.39163   0.13539   0.00000  Uiso   1.00
H428   H     0.53932   0.39475   0.13021   0.00000  Uiso   1.00
H429   H     0.57144   0.39567   0.08074   0.00000  Uiso   1.00
H430   H     0.60092   0.47016   0.10303   0.00000  Uiso   1.00
H431   H     0.57300   0.46864   0.15396   0.00000  Uiso   1.00
H432   H     0.40586   0.38065   0.17545   0.00000  Uiso   1.00
H433   H     0.48407   0.37602   0.18148   0.00000  Uiso   1.00
H434   H     0.61026   0.54661   0.14214   0.00000  Uiso   1.00
H435   H     0.58029   0.41425   0.35345   0.00000  Uiso   1.00
H436   H     0.38534   0.58281   0.33830   0.00000  Uiso   1.00
H437   H     0.51599   0.62392   0.31857   0.00000  Uiso   1.00
H438   H     0.44792   0.54035   0.02581   0.00000  Uiso   1.00
H439   H     0.55969   0.54187   0.46951   0.00000  Uiso   1.00
H440   H     0.45012   0.46086   0.47518   0.00000  Uiso   1.00
H441   H     0.56210   0.46667   0.02993   0.00000  Uiso   1.00
H442   H     0.41565   0.48940   0.15609   0.00000  Uiso   1.00
N443   N     0.50000   0.61907   0.25000   0.00000  Uiso   1.00
N444   N     0.50000   0.38093   0.25000   0.00000  Uiso   1.00
O445   O     0.43892   0.53821   0.25000   0.00000  Uiso   1.00
O446   O     0.33844   0.37339   0.22110   0.00000  Uiso   1.00
O447   O     0.40348   0.41131   0.18857   0.00000  Uiso   1.00
O448   O     0.60126   0.61729   0.22969   0.00000  Uiso   1.00
O449   O     0.65842   0.60759   0.17731   0.00000  Uiso   1.00
O450   O     0.59211   0.56054   0.16488   0.00000  Uiso   1.00
O451   O     0.60227   0.38220   0.27086   0.00000  Uiso   1.00
O452   O     0.65743   0.39414   0.32541   0.00000  Uiso   1.00
O453   O     0.58969   0.43990   0.33434   0.00000  Uiso   1.00
O454   O     0.39710   0.61757   0.23105   0.00000  Uiso   1.00
O455   O     0.33845   0.62619   0.28166   0.00000  Uiso   1.00
O456   O     0.56108   0.46179   0.25000   0.00000  Uiso   1.00
O457   O     0.40425   0.58822   0.31274   0.00000  Uiso   1.00
O458   O     0.56108   0.53821   0.25001   0.00000  Uiso   1.00
O459   O     0.43892   0.46179   0.25000   0.00000  Uiso   1.00
O460   O     0.50000   0.53822   0.18453   0.00000  Uiso   1.00
O461   O     0.50000   0.46178   0.31547   0.00000  Uiso   1.00
O462   O     0.50000   0.53822   0.31547   0.00000  Uiso   1.00
O463   O     0.50000   0.46178   0.18453   0.00000  Uiso   1.00
O464   O     0.39775   0.38267   0.27086   0.00000  Uiso   1.00
S465   S     0.37319   0.40444   0.23381   0.00000  Uiso   1.00
S466   S     0.62458   0.58327   0.20228   0.00000  Uiso   1.00
S467   S     0.62390   0.41704   0.29875   0.00000  Uiso   1.00
S468   S     0.37313   0.59521   0.26823   0.00000  Uiso   1.00
Zn469  Zn    0.50000   0.55104   0.25000   0.00000  Uiso   1.00
Zn470  Zn    0.50000   0.44896   0.25000   0.00000  Uiso   1.00
C471   C     0.75312   0.50000   0.25013   0.00000  Uiso   1.00
C472   C     0.97895   0.53972   0.23773   0.00000  Uiso   1.00
C473   C     0.97881   0.46041   0.26351   0.00000  Uiso   1.00
C474   C     0.68671   0.54179   0.24968   0.00000  Uiso   1.00
C475   C     0.80545   0.52434   0.04545   0.00000  Uiso   1.00
C476   C     0.86924   0.52338   0.45192   0.00000  Uiso   1.00
C477   C     0.80697   0.47766   0.45515   0.00000  Uiso   1.00
C478   C     0.87006   0.48246   0.04769   0.00000  Uiso   1.00
C479   C     0.80313   0.52383   0.09173   0.00000  Uiso   1.00
C480   C     0.86949   0.52158   0.40551   0.00000  Uiso   1.00
C481   C     0.80525   0.47606   0.40893   0.00000  Uiso   1.00
C482   C     0.91332   0.50000   0.25003   0.00000  Uiso   1.00
C483   C     0.86880   0.48094   0.09404   0.00000  Uiso   1.00
C484   C     0.83481   0.50133   0.11605   0.00000  Uiso   1.00
C485   C     0.83634   0.49895   0.38400   0.00000  Uiso   1.00
C486   C     0.83839   0.50351   0.02396   0.00000  Uiso   1.00
C487   C     0.83833   0.50153   0.47609   0.00000  Uiso   1.00
C488   C     0.95730   0.50004   0.25039   0.00000  Uiso   1.00
C489   C     0.70872   0.49995   0.25060   0.00000  Uiso   1.00
C490   C     0.76608   0.54642   0.11348   0.00000  Uiso   1.00
C491   C     0.73485   0.51146   0.13021   0.00000  Uiso   1.00
C492   C     0.90499   0.54449   0.38047   0.00000  Uiso   1.00
C493   C     0.83309   0.50031   0.16397   0.00000  Uiso   1.00
C494   C     0.94737   0.52775   0.39625   0.00000  Uiso   1.00
C495   C     0.76929   0.45089   0.38791   0.00000  Uiso   1.00
C496   C     0.73673   0.48370   0.36988   0.00000  Uiso   1.00
C497   C     0.90474   0.45865   0.11839   0.00000  Uiso   1.00
C498   C     0.90230   0.40697   0.11595   0.00000  Uiso   1.00
C499   C     0.83388   0.49970   0.33606   0.00000  Uiso   1.00
C500   C     0.84197   0.35693   0.28814   0.00000  Uiso   1.00
C501   C     0.82469   0.64307   0.21188   0.00000  Uiso   1.00
C502   C     0.82462   0.35768   0.21191   0.00000  Uiso   1.00
C503   C     0.84210   0.64229   0.28811   0.00000  Uiso   1.00
C504   C     0.68669   0.45812   0.25186   0.00000  Uiso   1.00
H505   H     0.84899   0.37472   0.31862   0.00000  Uiso   1.00
H506   H     0.70788   0.52905   0.14513   0.00000  Uiso   1.00
H507   H     0.72399   0.49016   0.10214   0.00000  Uiso   1.00
H508   H     0.77570   0.56864   0.14124   0.00000  Uiso   1.00
H509   H     0.75003   0.56913   0.08917   0.00000  Uiso   1.00
H510   H     0.94821   0.49011   0.39843   0.00000  Uiso   1.00
H511   H     0.97151   0.53926   0.37227   0.00000  Uiso   1.00
H512   H     0.95495   0.54184   0.42951   0.00000  Uiso   1.00
H513   H     0.90371   0.53852   0.34405   0.00000  Uiso   1.00
H514   H     0.90302   0.58180   0.38539   0.00000  Uiso   1.00
H515   H     0.72469   0.50534   0.39719   0.00000  Uiso   1.00
H516   H     0.81768   0.62534   0.18139   0.00000  Uiso   1.00
H517   H     0.71066   0.46430   0.35544   0.00000  Uiso   1.00
H518   H     0.75002   0.50565   0.34337   0.00000  Uiso   1.00
H519   H     0.78000   0.42791   0.36116   0.00000  Uiso   1.00
H520   H     0.75401   0.42842   0.41303   0.00000  Uiso   1.00
H521   H     0.92806   0.39163   0.13539   0.00000  Uiso   1.00
H522   H     0.87265   0.39475   0.13021   0.00000  Uiso   1.00
H523   H     0.90477   0.39567   0.08074   0.00000  Uiso   1.00
H524   H     0.93426   0.47016   0.10303   0.00000  Uiso   1.00
H525   H     0.90634   0.46864   0.15396   0.00000  Uiso   1.00
H526   H     0.73919   0.38065   0.17545   0.00000  Uiso   1.00
H527   H     0.81740   0.37602   0.18148   0.00000  Uiso   1.00
H528   H     0.94360   0.54661   0.14214   0.00000  Uiso   1.00
H529   H     0.91363   0.41425   0.35345   0.00000  Uiso   1.00
H530   H     0.71868   0.58281   0.33830   0.00000  Uiso   1.00
H531   H     0.84932   0.62392   0.31857   0.00000  Uiso   1.00
H532   H     0.78125   0.54035   0.02581   0.00000  Uiso   1.00
H533   H     0.89303   0.54187   0.46951   0.00000  Uiso   1.00
H534   H     0.78346   0.46086   0.47518   0.00000  Uiso   1.00
H535   H     0.89543   0.46667   0.02993   0.00000  Uiso   1.00
H536   H     0.74899   0.48940   0.15609   0.00000  Uiso   1.00
N537   N     0.83333   0.61907   0.25000   0.00000  Uiso   1.00
N538   N     0.83333   0.38093   0.25000   0.00000  Uiso   1.00
O539   O     0.77226   0.53821   0.25000   0.00000  Uiso   1.00
O540   O     0.67177   0.37339   0.22110   0.00000  Uiso   1.00
O541   O     0.73681   0.41131   0.18857   0.00000  Uiso   1.00
O542   O     0.93460   0.61729   0.22969   0.00000  Uiso   1.00
O543   O     0.99175   0.60759   0.17731   0.00000  Uiso   1.00
O544   O     0.92545   0.56054   0.16488   0.00000  Uiso   1.00
O545   O     0.93561   0.38220   0.27086   0.00000  Uiso   1.00
O546   O     0.99076   0.39414   0.32541   0.00000  Uiso   1.00
O547   O     0.92302   0.43990   0.33434   0.00000  Uiso   1.00
O548   O     0.73044   0.61757   0.23105   0.00000  Uiso   1.00
O549   O     0.67178   0.62619   0.28166   0.00000  Uiso   1.00
O550   O     0.89441   0.46179   0.25000   0.00000  Uiso   1.00
O551   O     0.73758   0.58822   0.31274   0.00000  Uiso   1.00
O552   O     0.89441   0.53821   0.25001   0.00000  Uiso   1.00
O553   O     0.77226   0.46179   0.25000   0.00000  Uiso   1.00
O554   O     0.83333   0.53822   0.18453   0.00000  Uiso   1.00
O555   O     0.83334   0.46178   0.31547   0.00000  Uiso   1.00
O556   O     0.83334   0.53822   0.31547   0.00000  Uiso   1.00
O557   O     0.83333   0.46178   0.18453   0.00000  Uiso   1.00
O558   O     0.73109   0.38267   0.27086   0.00000  Uiso   1.00
S559   S     0.70652   0.40444   0.23381   0.00000  Uiso   1.00
S560   S     0.95792   0.58327   0.20228   0.00000  Uiso   1.00
S561   S     0.95724   0.41704   0.29875   0.00000  Uiso   1.00
S562   S     0.70646   0.59521   0.26823   0.00000  Uiso   1.00
Zn563  Zn    0.83333   0.55104   0.25000   0.00000  Uiso   1.00
Zn564  Zn    0.83333   0.44896   0.25000   0.00000  Uiso   1.00
C565   C     0.08645   0.83333   0.25013   0.00000  Uiso   1.00
C566   C     0.31228   0.87305   0.23773   0.00000  Uiso   1.00
C567   C     0.31214   0.79375   0.26351   0.00000  Uiso   1.00
C568   C     0.02005   0.87512   0.24968   0.00000  Uiso   1.00
C569   C     0.13879   0.85767   0.04545   0.00000  Uiso   1.00
C570   C     0.20257   0.85672   0.45192   0.00000  Uiso   1.00
C571   C     0.14030   0.81099   0.45515   0.00000  Uiso   1.00
C572   C     0.20339   0.81579   0.04769   0.00000  Uiso   1.00
C573   C     0.13646   0.85716   0.09173   0.00000  Uiso   1.00
C574   C     0.20282   0.85491   0.40551   0.00000  Uiso   1.00
C575   C     0.13858   0.80939   0.40893   0.00000  Uiso   1.00
C576   C     0.24665   0.83333   0.25003   0.00000  Uiso   1.00
C577   C     0.20213   0.81427   0.09404   0.00000  Uiso   1.00
C578   C     0.16815   0.83467   0.11605   0.00000  Uiso   1.00
C579   C     0.16968   0.83228   0.38400   0.00000  Uiso   1.00
C580   C     0.17173   0.83684   0.02396   0.00000  Uiso   1.00
C581   C     0.17166   0.83486   0.47609   0.00000  Uiso   1.00
C582   C     0.29063   0.83337   0.25039   0.00000  Uiso   1.00
C583   C     0.04205   0.83328   0.25060   0.00000  Uiso   1.00
C584   C     0.09941   0.87976   0.11348   0.00000  Uiso   1.00
C585   C     0.06819   0.84479   0.13021   0.00000  Uiso   1.00
C586   C     0.23832   0.87783   0.38047   0.00000  Uiso   1.00
C587   C     0.16642   0.83364   0.16397   0.00000  Uiso   1.00
C588   C     0.28071   0.86108   0.39625   0.00000  Uiso   1.00
C589   C     0.10263   0.78422   0.38791   0.00000  Uiso   1.00
C590   C     0.07006   0.81703   0.36988   0.00000  Uiso   1.00
C591   C     0.23807   0.79199   0.11839   0.00000  Uiso   1.00
C592   C     0.23563   0.74030   0.11595   0.00000  Uiso   1.00
C593   C     0.16722   0.83304   0.33606   0.00000  Uiso   1.00
C594   C     0.17531   0.69027   0.28814   0.00000  Uiso   1.00
C595   C     0.15802   0.97641   0.21188   0.00000  Uiso   1.00
C596   C     0.15796   0.69102   0.21191   0.00000  Uiso   1.00
C597   C     0.17544   0.97563   0.28811   0.00000  Uiso   1.00
C598   C     0.02003   0.79145   0.25186   0.00000  Uiso   1.00
H599   H     0.18233   0.70805   0.31862   0.00000  Uiso   1.00
H600   H     0.04121   0.86238   0.14513   0.00000  Uiso   1.00
H601   H     0.05733   0.82349   0.10214   0.00000  Uiso   1.00
H602   H     0.10904   0.90197   0.14124   0.00000  Uiso   1.00
H603   H     0.08337   0.90247   0.08917   0.00000  Uiso   1.00
H604   H     0.28154   0.82345   0.39843   0.00000  Uiso   1.00
H605   H     0.30485   0.87259   0.37227   0.00000  Uiso   1.00
H606   H     0.28828   0.87517   0.42951   0.00000  Uiso   1.00
H607   H     0.23705   0.87185   0.34405   0.00000  Uiso   1.00
H608   H     0.23635   0.91514   0.38539   0.00000  Uiso   1.00
H609   H     0.05803   0.83867   0.39719   0.00000  Uiso   1.00
H610   H     0.15101   0.95868   0.18139   0.00000  Uiso   1.00
H611   H     0.04399   0.79764   0.35544   0.00000  Uiso   1.00
H612   H     0.08335   0.83898   0.34337   0.00000  Uiso   1.00
H613   H     0.11333   0.76124   0.36116   0.00000  Uiso   1.00
H614   H     0.08735   0.76175   0.41303   0.00000  Uiso   1.00
H615   H     0.26139   0.72496   0.13539   0.00000  Uiso   1.00
H616   H     0.20599   0.72808   0.13021   0.00000  Uiso   1.00
H617   H     0.23810   0.72900   0.08074   0.00000  Uiso   1.00
H618   H     0.26759   0.80349   0.10303   0.00000  Uiso   1.00
H619   H     0.23967   0.80197   0.15396   0.00000  Uiso   1.00
H620   H     0.07253   0.71398   0.17545   0.00000  Uiso   1.00
H621   H     0.15074   0.70935   0.18148   0.00000  Uiso   1.00
H622   H     0.27693   0.87995   0.14214   0.00000  Uiso   1.00
H623   H     0.24696   0.74758   0.35345   0.00000  Uiso   1.00
H624   H     0.05201   0.91614   0.33830   0.00000  Uiso   1.00
H625   H     0.18265   0.95726   0.31857   0.00000  Uiso   1.00
H626   H     0.11458   0.87368   0.02581   0.00000  Uiso   1.00
H627   H     0.22636   0.87520   0.46951   0.00000  Uiso   1.00
H628   H     0.11679   0.79420   0.47518   0.00000  Uiso   1.00
H629   H     0.22877   0.80000   0.02993   0.00000  Uiso   1.00
H630   H     0.08232   0.82273   0.15609   0.00000  Uiso   1.00
N631   N     0.16667   0.95240   0.25000   0.00000  Uiso   1.00
N632   N     0.16667   0.71427   0.25000   0.00000  Uiso   1.00
O633   O     0.10559   0.87154   0.25000   0.00000  Uiso   1.00
O634   O     0.00510   0.70673   0.22110   0.00000  Uiso   1.00
O635   O     0.07014   0.74464   0.18857   0.00000  Uiso   1.00
O636   O     0.26793   0.95063   0.22969   0.00000  Uiso   1.00
O637   O     0.32509   0.94093   0.17731   0.00000  Uiso   1.00
O638   O     0.25878   0.89387   0.16488   0.00000  Uiso   1.00
O639   O     0.26894   0.71553   0.27086   0.00000  Uiso   1.00
O640   O     0.32409   0.72748   0.32541   0.00000  Uiso   1.00
O641   O     0.25636   0.77323   0.33434   0.00000  Uiso   1.00
O642   O     0.06377   0.95091   0.23105   0.00000  Uiso   1.00
O643   O     0.00512   0.95953   0.28166   0.00000  Uiso   1.00
O644   O     0.22774   0.79513   0.25000   0.00000  Uiso   1.00
O645   O     0.07091   0.92155   0.31274   0.00000  Uiso   1.00
O646   O     0.22774   0.87154   0.25001   0.00000  Uiso   1.00
O647   O     0.10559   0.79513   0.25000   0.00000  Uiso   1.00
O648   O     0.16666   0.87155   0.18453   0.00000  Uiso   1.00
O649   O     0.16667   0.79511   0.31547   0.00000  Uiso   1.00
O650   O     0.16667   0.87155   0.31547   0.00000  Uiso   1.00
O651   O     0.16666   0.79511   0.18453   0.00000  Uiso   1.00
O652   O     0.06442   0.71600   0.27086   0.00000  Uiso   1.00
S653   S     0.03986   0.73778   0.23381   0.00000  Uiso   1.00
S654   S     0.29125   0.91661   0.20228   0.00000  Uiso   1.00
S655   S     0.29057   0.75037   0.29875   0.00000  Uiso   1.00
S656   S     0.03979   0.92855   0.26823   0.00000  Uiso   1.00
Zn657  Zn    0.16667   0.88437   0.25000   0.00000  Uiso   1.00
Zn658  Zn    0.16667   0.78229   0.25000   0.00000  Uiso   1.00
C659   C     0.41978   0.83333   0.25013   0.00000  Uiso   1.00
C660   C     0.64561   0.87305   0.23773   0.00000  Uiso   1.00
C661   C     0.64547   0.79375   0.26351   0.00000  Uiso   1.00
C662   C     0.35338   0.87512   0.24968   0.00000  Uiso   1.00
C663   C     0.47212   0.85767   0.04545   0.00000  Uiso   1.00
C664   C     0.53591   0.85672   0.45192   0.00000  Uiso   1.00
C665   C     0.47363   0.81099   0.45515   0.00000  Uiso   1.00
C666   C     0.53672   0.81579   0.04769   0.00000  Uiso   1.00
C667   C     0.46980   0.85716   0.09173   0.00000  Uiso   1.00
C668   C     0.53615   0.85491   0.40551   0.00000  Uiso   1.00
C669   C     0.47192   0.80939   0.40893   0.00000  Uiso   1.00
C670   C     0.57998   0.83333   0.25003   0.00000  Uiso   1.00
C671   C     0.53546   0.81427   0.09404   0.00000  Uiso   1.00
C672   C     0.50148   0.83467   0.11605   0.00000  Uiso   1.00
C673   C     0.50301   0.83228   0.38400   0.00000  Uiso   1.00
C674   C     0.50506   0.83684   0.02396   0.00000  Uiso   1.00
C675   C     0.50500   0.83486   0.47609   0.00000  Uiso   1.00
C676   C     0.62397   0.83337   0.25039   0.00000  Uiso   1.00
C677   C     0.37538   0.83328   0.25060   0.00000  Uiso   1.00
C678   C     0.43274   0.87976   0.11348   0.00000  Uiso   1.00
C679   C     0.40152   0.84479   0.13021   0.00000  Uiso   1.00
C680   C     0.57165   0.87783   0.38047   0.00000  Uiso   1.00
C681   C     0.49976   0.83364   0.16397   0.00000  Uiso   1.00
C682   C     0.61404   0.86108   0.39625   0.00000  Uiso   1.00
C683   C     0.43596   0.78422   0.38791   0.00000  Uiso   1.00
C684   C     0.40339   0.81703   0.36988   0.00000  Uiso   1.00
C685   C     0.57140   0.79199   0.11839   0.00000  Uiso   1.00
C686   C     0.56896   0.74030   0.11595   0.00000  Uiso   1.00
C687   C     0.50055   0.83304   0.33606   0.00000  Uiso   1.00
C688   C     0.50864   0.69027   0.28814   0.00000  Uiso   1.00
C689   C     0.49135   0.97641   0.21188   0.00000  Uiso   1.00
C690   C     0.49129   0.69102   0.21191   0.00000  Uiso   1.00
C691   C     0.50877   0.97563   0.28811   0.00000  Uiso   1.00
C692   C     0.35336   0.79145   0.25186   0.00000  Uiso   1.00
H693   H     0.51566   0.70805   0.31862   0.00000  Uiso   1.00
H694   H     0.37454   0.86238   0.14513   0.00000  Uiso   1.00
H695   H     0.39066   0.82349   0.10214   0.00000  Uiso   1.00
H696   H     0.44237   0.90197   0.14124   0.00000  Uiso   1.00
H697   H     0.41670   0.90247   0.08917   0.00000  Uiso   1.00
H698   H     0.61487   0.82345   0.39843   0.00000  Uiso   1.00
H699   H     0.63818   0.87259   0.37227   0.00000  Uiso   1.00
H700   H     0.62162   0.87517   0.42951   0.00000  Uiso   1.00
H701   H     0.57038   0.87185   0.34405   0.00000  Uiso   1.00
H702   H     0.56969   0.91514   0.38539   0.00000  Uiso   1.00
H703   H     0.39136   0.83867   0.39719   0.00000  Uiso   1.00
H704   H     0.48434   0.95868   0.18139   0.00000  Uiso   1.00
H705   H     0.37733   0.79764   0.35544   0.00000  Uiso   1.00
H706   H     0.41669   0.83898   0.34337   0.00000  Uiso   1.00
H707   H     0.44667   0.76124   0.36116   0.00000  Uiso   1.00
H708   H     0.42068   0.76175   0.41303   0.00000  Uiso   1.00
H709   H     0.59472   0.72496   0.13539   0.00000  Uiso   1.00
H710   H     0.53932   0.72808   0.13021   0.00000  Uiso   1.00
H711   H     0.57144   0.72900   0.08074   0.00000  Uiso   1.00
H712   H     0.60092   0.80349   0.10303   0.00000  Uiso   1.00
H713   H     0.57300   0.80197   0.15396   0.00000  Uiso   1.00
H714   H     0.40586   0.71398   0.17545   0.00000  Uiso   1.00
H715   H     0.48407   0.70935   0.18148   0.00000  Uiso   1.00
H716   H     0.61026   0.87995   0.14214   0.00000  Uiso   1.00
H717   H     0.58029   0.74758   0.35345   0.00000  Uiso   1.00
H718   H     0.38534   0.91614   0.33830   0.00000  Uiso   1.00
H719   H     0.51599   0.95726   0.31857   0.00000  Uiso   1.00
H720   H     0.44792   0.87368   0.02581   0.00000  Uiso   1.00
H721   H     0.55969   0.87520   0.46951   0.00000  Uiso   1.00
H722   H     0.45012   0.79420   0.47518   0.00000  Uiso   1.00
H723   H     0.56210   0.80000   0.02993   0.00000  Uiso   1.00
H724   H     0.41565   0.82273   0.15609   0.00000  Uiso   1.00
N725   N     0.50000   0.95240   0.25000   0.00000  Uiso   1.00
N726   N     0.50000   0.71427   0.25000   0.00000  Uiso   1.00
O727   O     0.43892   0.87154   0.25000   0.00000  Uiso   1.00
O728   O     0.33844   0.70673   0.22110   0.00000  Uiso   1.00
O729   O     0.40348   0.74464   0.18857   0.00000  Uiso   1.00
O730   O     0.60126   0.95063   0.22969   0.00000  Uiso   1.00
O731   O     0.65842   0.94093   0.17731   0.00000  Uiso   1.00
O732   O     0.59211   0.89387   0.16488   0.00000  Uiso   1.00
O733   O     0.60227   0.71553   0.27086   0.00000  Uiso   1.00
O734   O     0.65743   0.72748   0.32541   0.00000  Uiso   1.00
O735   O     0.58969   0.77323   0.33434   0.00000  Uiso   1.00
O736   O     0.39710   0.95091   0.23105   0.00000  Uiso   1.00
O737   O     0.33845   0.95953   0.28166   0.00000  Uiso   1.00
O738   O     0.56108   0.79513   0.25000   0.00000  Uiso   1.00
O739   O     0.40425   0.92155   0.31274   0.00000  Uiso   1.00
O740   O     0.56108   0.87154   0.25001   0.00000  Uiso   1.00
O741   O     0.43892   0.79513   0.25000   0.00000  Uiso   1.00
O742   O     0.50000   0.87155   0.18453   0.00000  Uiso   1.00
O743   O     0.50000   0.79511   0.31547   0.00000  Uiso   1.00
O744   O     0.50000   0.87155   0.31547   0.00000  Uiso   1.00
O745   O     0.50000   0.79511   0.18453   0.00000  Uiso   1.00
O746   O     0.39775   0.71600   0.27086   0.00000  Uiso   1.00
S747   S     0.37319   0.73778   0.23381   0.00000  Uiso   1.00
S748   S     0.62458   0.91661   0.20228   0.00000  Uiso   1.00
S749   S     0.62390   0.75037   0.29875   0.00000  Uiso   1.00
S750   S     0.37313   0.92855   0.26823   0.00000  Uiso   1.00
Zn751  Zn    0.50000   0.88437   0.25000   0.00000  Uiso   1.00
Zn752  Zn    0.50000   0.78229   0.25000   0.00000  Uiso   1.00
C753   C     0.75312   0.83333   0.25013   0.00000  Uiso   1.00
C754   C     0.97895   0.87305   0.23773   0.00000  Uiso   1.00
C755   C     0.97881   0.79375   0.26351   0.00000  Uiso   1.00
C756   C     0.68671   0.87512   0.24968   0.00000  Uiso   1.00
C757   C     0.80545   0.85767   0.04545   0.00000  Uiso   1.00
C758   C     0.86924   0.85672   0.45192   0.00000  Uiso   1.00
C759   C     0.80697   0.81099   0.45515   0.00000  Uiso   1.00
C760   C     0.87006   0.81579   0.04769   0.00000  Uiso   1.00
C761   C     0.80313   0.85716   0.09173   0.00000  Uiso   1.00
C762   C     0.86949   0.85491   0.40551   0.00000  Uiso   1.00
C763   C     0.80525   0.80939   0.40893   0.00000  Uiso   1.00
C764   C     0.91332   0.83333   0.25003   0.00000  Uiso   1.00
C765   C     0.86880   0.81427   0.09404   0.00000  Uiso   1.00
C766   C     0.83481   0.83467   0.11605   0.00000  Uiso   1.00
C767   C     0.83634   0.83228   0.38400   0.00000  Uiso   1.00
C768   C     0.83839   0.83684   0.02396   0.00000  Uiso   1.00
C769   C     0.83833   0.83486   0.47609   0.00000  Uiso   1.00
C770   C     0.95730   0.83337   0.25039   0.00000  Uiso   1.00
C771   C     0.70872   0.83328   0.25060   0.00000  Uiso   1.00
C772   C     0.76608   0.87976   0.11348   0.00000  Uiso   1.00
C773   C     0.73485   0.84479   0.13021   0.00000  Uiso   1.00
C774   C     0.90499   0.87783   0.38047   0.00000  Uiso   1.00
C775   C     0.83309   0.83364   0.16397   0.00000  Uiso   1.00
C776   C     0.94737   0.86108   0.39625   0.00000  Uiso   1.00
C777   C     0.76929   0.78422   0.38791   0.00000  Uiso   1.00
C778   C     0.73673   0.81703   0.36988   0.00000  Uiso   1.00
C779   C     0.90474   0.79199   0.11839   0.00000  Uiso   1.00
C780   C     0.90230   0.74030   0.11595   0.00000  Uiso   1.00
C781   C     0.83388   0.83304   0.33606   0.00000  Uiso   1.00
C782   C     0.84197   0.69027   0.28814   0.00000  Uiso   1.00
C783   C     0.82469   0.97641   0.21188   0.00000  Uiso   1.00
C784   C     0.82462   0.69102   0.21191   0.00000  Uiso   1.00
C785   C     0.84210   0.97563   0.28811   0.00000  Uiso   1.00
C786   C     0.68669   0.79145   0.25186   0.00000  Uiso   1.00
H787   H     0.84899   0.70805   0.31862   0.00000  Uiso   1.00
H788   H     0.70788   0.86238   0.14513   0.00000  Uiso   1.00
H789   H     0.72399   0.82349   0.10214   0.00000  Uiso   1.00
H790   H     0.77570   0.90197   0.14124   0.00000  Uiso   1.00
H791   H     0.75003   0.90247   0.08917   0.00000  Uiso   1.00
H792   H     0.94821   0.82345   0.39843   0.00000  Uiso   1.00
H793   H     0.97151   0.87259   0.37227   0.00000  Uiso   1.00
H794   H     0.95495   0.87517   0.42951   0.00000  Uiso   1.00
H795   H     0.90371   0.87185   0.34405   0.00000  Uiso   1.00
H796   H     0.90302   0.91514   0.38539   0.00000  Uiso   1.00
H797   H     0.72469   0.83867   0.39719   0.00000  Uiso   1.00
H798   H     0.81768   0.95868   0.18139   0.00000  Uiso   1.00
H799   H     0.71066   0.79764   0.35544   0.00000  Uiso   1.00
H800   H     0.75002   0.83898   0.34337   0.00000  Uiso   1.00
H801   H     0.78000   0.76124   0.36116   0.00000  Uiso   1.00
H802   H     0.75401   0.76175   0.41303   0.00000  Uiso   1.00
H803   H     0.92806   0.72496   0.13539   0.00000  Uiso   1.00
H804   H     0.87265   0.72808   0.13021   0.00000  Uiso   1.00
H805   H     0.90477   0.72900   0.08074   0.00000  Uiso   1.00
H806   H     0.93426   0.80349   0.10303   0.00000  Uiso   1.00
H807   H     0.90634   0.80197   0.15396   0.00000  Uiso   1.00
H808   H     0.73919   0.71398   0.17545   0.00000  Uiso   1.00
H809   H     0.81740   0.70935   0.18148   0.00000  Uiso   1.00
H810   H     0.94360   0.87995   0.14214   0.00000  Uiso   1.00
H811   H     0.91363   0.74758   0.35345   0.00000  Uiso   1.00
H812   H     0.71868   0.91614   0.33830   0.00000  Uiso   1.00
H813   H     0.84932   0.95726   0.31857   0.00000  Uiso   1.00
H814   H     0.78125   0.87368   0.02581   0.00000  Uiso   1.00
H815   H     0.89303   0.87520   0.46951   0.00000  Uiso   1.00
H816   H     0.78346   0.79420   0.47518   0.00000  Uiso   1.00
H817   H     0.89543   0.80000   0.02993   0.00000  Uiso   1.00
H818   H     0.74899   0.82273   0.15609   0.00000  Uiso   1.00
N819   N     0.83333   0.95240   0.25000   0.00000  Uiso   1.00
N820   N     0.83333   0.71427   0.25000   0.00000  Uiso   1.00
O821   O     0.77226   0.87154   0.25000   0.00000  Uiso   1.00
O822   O     0.67177   0.70673   0.22110   0.00000  Uiso   1.00
O823   O     0.73681   0.74464   0.18857   0.00000  Uiso   1.00
O824   O     0.93460   0.95063   0.22969   0.00000  Uiso   1.00
O825   O     0.99175   0.94093   0.17731   0.00000  Uiso   1.00
O826   O     0.92545   0.89387   0.16488   0.00000  Uiso   1.00
O827   O     0.93561   0.71553   0.27086   0.00000  Uiso   1.00
O828   O     0.99076   0.72748   0.32541   0.00000  Uiso   1.00
O829   O     0.92302   0.77323   0.33434   0.00000  Uiso   1.00
O830   O     0.73044   0.95091   0.23105   0.00000  Uiso   1.00
O831   O     0.67178   0.95953   0.28166   0.00000  Uiso   1.00
O832   O     0.89441   0.79513   0.25000   0.00000  Uiso   1.00
O833   O     0.73758   0.92155   0.31274   0.00000  Uiso   1.00
O834   O     0.89441   0.87154   0.25001   0.00000  Uiso   1.00
O835   O     0.77226   0.79513   0.25000   0.00000  Uiso   1.00
O836   O     0.83333   0.87155   0.18453   0.00000  Uiso   1.00
O837   O     0.83334   0.79511   0.31547   0.00000  Uiso   1.00
O838   O     0.83334   0.87155   0.31547   0.00000  Uiso   1.00
O839   O     0.83333   0.79511   0.18453   0.00000  Uiso   1.00
O840   O     0.73109   0.71600   0.27086   0.00000  Uiso   1.00
S841   S     0.70652   0.73778   0.23381   0.00000  Uiso   1.00
S842   S     0.95792   0.91661   0.20228   0.00000  Uiso   1.00
S843   S     0.95724   0.75037   0.29875   0.00000  Uiso   1.00
S844   S     0.70646   0.92855   0.26823   0.00000  Uiso   1.00
Zn845  Zn    0.83333   0.88437   0.25000   0.00000  Uiso   1.00
Zn846  Zn    0.83333   0.78229   0.25000   0.00000  Uiso   1.00
C847   C     0.08645   0.16666   0.75013   0.00000  Uiso   1.00
C848   C     0.31228   0.20638   0.73773   0.00000  Uiso   1.00
C849   C     0.31214   0.12708   0.76351   0.00000  Uiso   1.00
C850   C     0.02005   0.20845   0.74968   0.00000  Uiso   1.00
C851   C     0.13879   0.19101   0.54545   0.00000  Uiso   1.00
C852   C     0.20257   0.19005   0.95192   0.00000  Uiso   1.00
C853   C     0.14030   0.14432   0.95515   0.00000  Uiso   1.00
C854   C     0.20339   0.14912   0.54769   0.00000  Uiso   1.00
C855   C     0.13646   0.19049   0.59173   0.00000  Uiso   1.00
C856   C     0.20282   0.18825   0.90551   0.00000  Uiso   1.00
C857   C     0.13858   0.14273   0.90893   0.00000  Uiso   1.00
C858   C     0.24665   0.16667   0.75003   0.00000  Uiso   1.00
C859   C     0.20213   0.14761   0.59404   0.00000  Uiso   1.00
C860   C     0.16815   0.16800   0.61605   0.00000  Uiso   1.00
C861   C     0.16968   0.16562   0.88400   0.00000  Uiso   1.00
C862   C     0.17173   0.17018   0.52396   0.00000  Uiso   1.00
C863   C     0.17166   0.16819   0.97609   0.00000  Uiso   1.00
C864   C     0.29063   0.16670   0.75039   0.00000  Uiso   1.00
C865   C     0.04205   0.16662   0.75060   0.00000  Uiso   1.00
C866   C     0.09941   0.21309   0.61348   0.00000  Uiso   1.00
C867   C     0.06819   0.17813   0.63021   0.00000  Uiso   1.00
C868   C     0.23832   0.21116   0.88047   0.00000  Uiso   1.00
C869   C     0.16642   0.16697   0.66397   0.00000  Uiso   1.00
C870   C     0.28071   0.19442   0.89625   0.00000  Uiso   1.00
C871   C     0.10263   0.11756   0.88791   0.00000  Uiso   1.00
C872   C     0.07006   0.15037   0.86988   0.00000  Uiso   1.00
C873   C     0.23807   0.12532   0.61839   0.00000  Uiso   1.00
C874   C     0.23563   0.07364   0.61595   0.00000  Uiso   1.00
C875   C     0.16722   0.16637   0.83606   0.00000  Uiso   1.00
C876   C     0.17531   0.02360   0.78814   0.00000  Uiso   1.00
C877   C     0.15802   0.30974   0.71188   0.00000  Uiso   1.00
C878   C     0.15796   0.02435   0.71191   0.00000  Uiso   1.00
C879   C     0.17544   0.30896   0.78811   0.00000  Uiso   1.00
C880   C     0.02003   0.12479   0.75186   0.00000  Uiso   1.00
H881   H     0.18233   0.04138   0.81862   0.00000  Uiso   1.00
H882   H     0.04121   0.19571   0.64513   0.00000  Uiso   1.00
H883   H     0.05733   0.15682   0.60214   0.00000  Uiso   1.00
H884   H     0.10904   0.23530   0.64124   0.00000  Uiso   1.00
H885   H     0.08337   0.23580   0.58917   0.00000  Uiso   1.00
H886   H     0.28154   0.15678   0.89843   0.00000  Uiso   1.00
H887   H     0.30485   0.20593   0.87227   0.00000  Uiso   1.00
H888   H     0.28828   0.20851   0.92951   0.00000  Uiso   1.00
H889   H     0.23705   0.20518   0.84405   0.00000  Uiso   1.00
H890   H     0.23635   0.24847   0.88539   0.00000  Uiso   1.00
H891   H     0.05803   0.17201   0.89719   0.00000  Uiso   1.00
H892   H     0.15101   0.29201   0.68139   0.00000  Uiso   1.00
H893   H     0.04399   0.13097   0.85544   0.00000  Uiso   1.00
H894   H     0.08335   0.17232   0.84337   0.00000  Uiso   1.00
H895   H     0.11333   0.09457   0.86116   0.00000  Uiso   1.00
H896   H     0.08735   0.09509   0.91303   0.00000  Uiso   1.00
H897   H     0.26139   0.05830   0.63539   0.00000  Uiso   1.00
H898   H     0.20599   0.06141   0.63021   0.00000  Uiso   1.00
H899   H     0.23810   0.06234   0.58074   0.00000  Uiso   1.00
H900   H     0.26759   0.13683   0.60303   0.00000  Uiso   1.00
H901   H     0.23967   0.13531   0.65396   0.00000  Uiso   1.00
H902   H     0.07253   0.04732   0.67545   0.00000  Uiso   1.00
H903   H     0.15074   0.04269   0.68148   0.00000  Uiso   1.00
H904   H     0.27693   0.21328   0.64214   0.00000  Uiso   1.00
H905   H     0.24696   0.08092   0.85345   0.00000  Uiso   1.00
H906   H     0.05201   0.24947   0.83830   0.00000  Uiso   1.00
H907   H     0.18265   0.29059   0.81857   0.00000  Uiso   1.00
H908   H     0.11458   0.20702   0.52581   0.00000  Uiso   1.00
H909   H     0.22636   0.20853   0.96951   0.00000  Uiso   1.00
H910   H     0.11679   0.12753   0.97518   0.00000  Uiso   1.00
H911   H     0.22877   0.13334   0.52993   0.00000  Uiso   1.00
H912   H     0.08232   0.15607   0.65609   0.00000  Uiso   1.00
N913   N     0.16667   0.28573   0.75000   0.00000  Uiso   1.00
N914   N     0.16667   0.04760   0.75000   0.00000  Uiso   1.00
O915   O     0.10559   0.20487   0.75000   0.00000  Uiso   1.00
O916   O     0.00510   0.04006   0.72110   0.00000  Uiso   1.00
O917   O     0.07014   0.07798   0.68857   0.00000  Uiso   1.00
O918   O     0.26793   0.28396   0.72969   0.00000  Uiso   1.00
O919   O     0.32509   0.27426   0.67731   0.00000  Uiso   1.00
O920   O     0.25878   0.22720   0.66488   0.00000  Uiso   1.00
O921   O     0.26894   0.04887   0.77086   0.00000  Uiso   1.00
O922   O     0.32409   0.06081   0.82541   0.00000  Uiso   1.00
O923   O     0.25636   0.10656   0.83434   0.00000  Uiso   1.00
O924   O     0.06377   0.28424   0.73105   0.00000  Uiso   1.00
O925   O     0.00512   0.29286   0.78166   0.00000  Uiso   1.00
O926   O     0.22774   0.12846   0.75000   0.00000  Uiso   1.00
O927   O     0.07091   0.25488   0.81274   0.00000  Uiso   1.00
O928   O     0.22774   0.20487   0.75001   0.00000  Uiso   1.00
O929   O     0.10559   0.12846   0.75000   0.00000  Uiso   1.00
O930   O     0.16666   0.20489   0.68453   0.00000  Uiso   1.00
O931   O     0.16667   0.12845   0.81547   0.00000  Uiso   1.00
O932   O     0.16667   0.20489   0.81547   0.00000  Uiso   1.00
O933   O     0.16666   0.12845   0.68453   0.00000  Uiso   1.00
O934   O     0.06442   0.04933   0.77086   0.00000  Uiso   1.00
S935   S     0.03986   0.07111   0.73381   0.00000  Uiso   1.00
S936   S     0.29125   0.24994   0.70228   0.00000  Uiso   1.00
S937   S     0.29057   0.08370   0.79875   0.00000  Uiso   1.00
S938   S     0.03979   0.26188   0.76823   0.00000  Uiso   1.00
Zn939  Zn    0.16667   0.21771   0.75000   0.00000  Uiso   1.00
Zn940  Zn    0.16667   0.11563   0.75000   0.00000  Uiso   1.00
C941   C     0.41978   0.16666   0.75013   0.00000  Uiso   1.00
C942   C     0.64561   0.20638   0.73773   0.00000  Uiso   1.00
C943   C     0.64547   0.12708   0.76351   0.00000  Uiso   1.00
C944   C     0.35338   0.20845   0.74968   0.00000  Uiso   1.00
C945   C     0.47212   0.19101   0.54545   0.00000  Uiso   1.00
C946   C     0.53591   0.19005   0.95192   0.00000  Uiso   1.00
C947   C     0.47363   0.14432   0.95515   0.00000  Uiso   1.00
C948   C     0.53672   0.14912   0.54769   0.00000  Uiso   1.00
C949   C     0.46980   0.19049   0.59173   0.00000  Uiso   1.00
C950   C     0.53615   0.18825   0.90551   0.00000  Uiso   1.00
C951   C     0.47192   0.14273   0.90893   0.00000  Uiso   1.00
C952   C     0.57998   0.16667   0.75003   0.00000  Uiso   1.00
C953   C     0.53546   0.14761   0.59404   0.00000  Uiso   1.00
C954   C     0.50148   0.16800   0.61605   0.00000  Uiso   1.00
C955   C     0.50301   0.16562   0.88400   0.00000  Uiso   1.00
C956   C     0.50506   0.17018   0.52396   0.00000  Uiso   1.00
C957   C     0.50500   0.16819   0.97609   0.00000  Uiso   1.00
C958   C     0.62397   0.16670   0.75039   0.00000  Uiso   1.00
C959   C     0.37538   0.16662   0.75060   0.00000  Uiso   1.00
C960   C     0.43274   0.21309   0.61348   0.00000  Uiso   1.00
C961   C     0.40152   0.17813   0.63021   0.00000  Uiso   1.00
C962   C     0.57165   0.21116   0.88047   0.00000  Uiso   1.00
C963   C     0.49976   0.16697   0.66397   0.00000  Uiso   1.00
C964   C     0.61404   0.19442   0.89625   0.00000  Uiso   1.00
C965   C     0.43596   0.11756   0.88791   0.00000  Uiso   1.00
C966   C     0.40339   0.15037   0.86988   0.00000  Uiso   1.00
C967   C     0.57140   0.12532   0.61839   0.00000  Uiso   1.00
C968   C     0.56896   0.07364   0.61595   0.00000  Uiso   1.00
C969   C     0.50055   0.16637   0.83606   0.00000  Uiso   1.00
C970   C     0.50864   0.02360   0.78814   0.00000  Uiso   1.00
C971   C     0.49135   0.30974   0.71188   0.00000  Uiso   1.00
C972   C     0.49129   0.02435   0.71191   0.00000  Uiso   1.00
C973   C     0.50877   0.30896   0.78811   0.00000  Uiso   1.00
C974   C     0.35336   0.12479   0.75186   0.00000  Uiso   1.00
H975   H     0.51566   0.04138   0.81862   0.00000  Uiso   1.00
H976   H     0.37454   0.19571   0.64513   0.00000  Uiso   1.00
H977   H     0.39066   0.15682   0.60214   0.00000  Uiso   1.00
H978   H     0.44237   0.23530   0.64124   0.00000  Uiso   1.00
H979   H     0.41670   0.23580   0.58917   0.00000  Uiso   1.00
H980   H     0.61487   0.15678   0.89843   0.00000  Uiso   1.00
H981   H     0.63818   0.20593   0.87227   0.00000  Uiso   1.00
H982   H     0.62162   0.20851   0.92951   0.00000  Uiso   1.00
H983   H     0.57038   0.20518   0.84405   0.00000  Uiso   1.00
H984   H     0.56969   0.24847   0.88539   0.00000  Uiso   1.00
H985   H     0.39136   0.17201   0.89719   0.00000  Uiso   1.00
H986   H     0.48434   0.29201   0.68139   0.00000  Uiso   1.00
H987   H     0.37733   0.13097   0.85544   0.00000  Uiso   1.00
H988   H     0.41669   0.17232   0.84337   0.00000  Uiso   1.00
H989   H     0.44667   0.09457   0.86116   0.00000  Uiso   1.00
H990   H     0.42068   0.09509   0.91303   0.00000  Uiso   1.00
H991   H     0.59472   0.05830   0.63539   0.00000  Uiso   1.00
H992   H     0.53932   0.06141   0.63021   0.00000  Uiso   1.00
H993   H     0.57144   0.06234   0.58074   0.00000  Uiso   1.00
H994   H     0.60092   0.13683   0.60303   0.00000  Uiso   1.00
H995   H     0.57300   0.13531   0.65396   0.00000  Uiso   1.00
H996   H     0.40586   0.04732   0.67545   0.00000  Uiso   1.00
H997   H     0.48407   0.04269   0.68148   0.00000  Uiso   1.00
H998   H     0.61026   0.21328   0.64214   0.00000  Uiso   1.00
H999   H     0.58029   0.08092   0.85345   0.00000  Uiso   1.00
H1000  H     0.38534   0.24947   0.83830   0.00000  Uiso   1.00
H1001  H     0.51599   0.29059   0.81857   0.00000  Uiso   1.00
H1002  H     0.44792   0.20702   0.52581   0.00000  Uiso   1.00
H1003  H     0.55969   0.20853   0.96951   0.00000  Uiso   1.00
H1004  H     0.45012   0.12753   0.97518   0.00000  Uiso   1.00
H1005  H     0.56210   0.13334   0.52993   0.00000  Uiso   1.00
H1006  H     0.41565   0.15607   0.65609   0.00000  Uiso   1.00
N1007  N     0.50000   0.28573   0.75000   0.00000  Uiso   1.00
N1008  N     0.50000   0.04760   0.75000   0.00000  Uiso   1.00
O1009  O     0.43892   0.20487   0.75000   0.00000  Uiso   1.00
O1010  O     0.33844   0.04006   0.72110   0.00000  Uiso   1.00
O1011  O     0.40348   0.07798   0.68857   0.00000  Uiso   1.00
O1012  O     0.60126   0.28396   0.72969   0.00000  Uiso   1.00
O1013  O     0.65842   0.27426   0.67731   0.00000  Uiso   1.00
O1014  O     0.59211   0.22720   0.66488   0.00000  Uiso   1.00
O1015  O     0.60227   0.04887   0.77086   0.00000  Uiso   1.00
O1016  O     0.65743   0.06081   0.82541   0.00000  Uiso   1.00
O1017  O     0.58969   0.10656   0.83434   0.00000  Uiso   1.00
O1018  O     0.39710   0.28424   0.73105   0.00000  Uiso   1.00
O1019  O     0.33845   0.29286   0.78166   0.00000  Uiso   1.00
O1020  O     0.56108   0.12846   0.75000   0.00000  Uiso   1.00
O1021  O     0.40425   0.25488   0.81274   0.00000  Uiso   1.00
O1022  O     0.56108   0.20487   0.75001   0.00000  Uiso   1.00
O1023  O     0.43892   0.12846   0.75000   0.00000  Uiso   1.00
O1024  O     0.50000   0.20489   0.68453   0.00000  Uiso   1.00
O1025  O     0.50000   0.12845   0.81547   0.00000  Uiso   1.00
O1026  O     0.50000   0.20489   0.81547   0.00000  Uiso   1.00
O1027  O     0.50000   0.12845   0.68453   0.00000  Uiso   1.00
O1028  O     0.39775   0.04933   0.77086   0.00000  Uiso   1.00
S1029  S     0.37319   0.07111   0.73381   0.00000  Uiso   1.00
S1030  S     0.62458   0.24994   0.70228   0.00000  Uiso   1.00
S1031  S     0.62390   0.08370   0.79875   0.00000  Uiso   1.00
S1032  S     0.37313   0.26188   0.76823   0.00000  Uiso   1.00
Zn1033 Zn    0.50000   0.21771   0.75000   0.00000  Uiso   1.00
Zn1034 Zn    0.50000   0.11563   0.75000   0.00000  Uiso   1.00
C1035  C     0.75312   0.16666   0.75013   0.00000  Uiso   1.00
C1036  C     0.97895   0.20638   0.73773   0.00000  Uiso   1.00
C1037  C     0.97881   0.12708   0.76351   0.00000  Uiso   1.00
C1038  C     0.68671   0.20845   0.74968   0.00000  Uiso   1.00
C1039  C     0.80545   0.19101   0.54545   0.00000  Uiso   1.00
C1040  C     0.86924   0.19005   0.95192   0.00000  Uiso   1.00
C1041  C     0.80697   0.14432   0.95515   0.00000  Uiso   1.00
C1042  C     0.87006   0.14912   0.54769   0.00000  Uiso   1.00
C1043  C     0.80313   0.19049   0.59173   0.00000  Uiso   1.00
C1044  C     0.86949   0.18825   0.90551   0.00000  Uiso   1.00
C1045  C     0.80525   0.14273   0.90893   0.00000  Uiso   1.00
C1046  C     0.91332   0.16667   0.75003   0.00000  Uiso   1.00
C1047  C     0.86880   0.14761   0.59404   0.00000  Uiso   1.00
C1048  C     0.83481   0.16800   0.61605   0.00000  Uiso   1.00
C1049  C     0.83634   0.16562   0.88400   0.00000  Uiso   1.00
C1050  C     0.83839   0.17018   0.52396   0.00000  Uiso   1.00
C1051  C     0.83833   0.16819   0.97609   0.00000  Uiso   1.00
C1052  C     0.95730   0.16670   0.75039   0.00000  Uiso   1.00
C1053  C     0.70872   0.16662   0.75060   0.00000  Uiso   1.00
C1054  C     0.76608   0.21309   0.61348   0.00000  Uiso   1.00
C1055  C     0.73485   0.17813   0.63021   0.00000  Uiso   1.00
C1056  C     0.90499   0.21116   0.88047   0.00000  Uiso   1.00
C1057  C     0.83309   0.16697   0.66397   0.00000  Uiso   1.00
C1058  C     0.94737   0.19442   0.89625   0.00000  Uiso   1.00
C1059  C     0.76929   0.11756   0.88791   0.00000  Uiso   1.00
C1060  C     0.73673   0.15037   0.86988   0.00000  Uiso   1.00
C1061  C     0.90474   0.12532   0.61839   0.00000  Uiso   1.00
C1062  C     0.90230   0.07364   0.61595   0.00000  Uiso   1.00
C1063  C     0.83388   0.16637   0.83606   0.00000  Uiso   1.00
C1064  C     0.84197   0.02360   0.78814   0.00000  Uiso   1.00
C1065  C     0.82469   0.30974   0.71188   0.00000  Uiso   1.00
C1066  C     0.82462   0.02435   0.71191   0.00000  Uiso   1.00
C1067  C     0.84210   0.30896   0.78811   0.00000  Uiso   1.00
C1068  C     0.68669   0.12479   0.75186   0.00000  Uiso   1.00
H1069  H     0.84899   0.04138   0.81862   0.00000  Uiso   1.00
H1070  H     0.70788   0.19571   0.64513   0.00000  Uiso   1.00
H1071  H     0.72399   0.15682   0.60214   0.00000  Uiso   1.00
H1072  H     0.77570   0.23530   0.64124   0.00000  Uiso   1.00
H1073  H     0.75003   0.23580   0.58917   0.00000  Uiso   1.00
H1074  H     0.94821   0.15678   0.89843   0.00000  Uiso   1.00
H1075  H     0.97151   0.20593   0.87227   0.00000  Uiso   1.00
H1076  H     0.95495   0.20851   0.92951   0.00000  Uiso   1.00
H1077  H     0.90371   0.20518   0.84405   0.00000  Uiso   1.00
H1078  H     0.90302   0.24847   0.88539   0.00000  Uiso   1.00
H1079  H     0.72469   0.17201   0.89719   0.00000  Uiso   1.00
H1080  H     0.81768   0.29201   0.68139   0.00000  Uiso   1.00
H1081  H     0.71066   0.13097   0.85544   0.00000  Uiso   1.00
H1082  H     0.75002   0.17232   0.84337   0.00000  Uiso   1.00
H1083  H     0.78000   0.09457   0.86116   0.00000  Uiso   1.00
H1084  H     0.75401   0.09509   0.91303   0.00000  Uiso   1.00
H1085  H     0.92806   0.05830   0.63539   0.00000  Uiso   1.00
H1086  H     0.87265   0.06141   0.63021   0.00000  Uiso   1.00
H1087  H     0.90477   0.06234   0.58074   0.00000  Uiso   1.00
H1088  H     0.93426   0.13683   0.60303   0.00000  Uiso   1.00
H1089  H     0.90634   0.13531   0.65396   0.00000  Uiso   1.00
H1090  H     0.73919   0.04732   0.67545   0.00000  Uiso   1.00
H1091  H     0.81740   0.04269   0.68148   0.00000  Uiso   1.00
H1092  H     0.94360   0.21328   0.64214   0.00000  Uiso   1.00
H1093  H     0.91363   0.08092   0.85345   0.00000  Uiso   1.00
H1094  H     0.71868   0.24947   0.83830   0.00000  Uiso   1.00
H1095  H     0.84932   0.29059   0.81857   0.00000  Uiso   1.00
H1096  H     0.78125   0.20702   0.52581   0.00000  Uiso   1.00
H1097  H     0.89303   0.20853   0.96951   0.00000  Uiso   1.00
H1098  H     0.78346   0.12753   0.97518   0.00000  Uiso   1.00
H1099  H     0.89543   0.13334   0.52993   0.00000  Uiso   1.00
H1100  H     0.74899   0.15607   0.65609   0.00000  Uiso   1.00
N1101  N     0.83333   0.28573   0.75000   0.00000  Uiso   1.00
N1102  N     0.83333   0.04760   0.75000   0.00000  Uiso   1.00
O1103  O     0.77226   0.20487   0.75000   0.00000  Uiso   1.00
O1104  O     0.67177   0.04006   0.72110   0.00000  Uiso   1.00
O1105  O     0.73681   0.07798   0.68857   0.00000  Uiso   1.00
O1106  O     0.93460   0.28396   0.72969   0.00000  Uiso   1.00
O1107  O     0.99175   0.27426   0.67731   0.00000  Uiso   1.00
O1108  O     0.92545   0.22720   0.66488   0.00000  Uiso   1.00
O1109  O     0.93561   0.04887   0.77086   0.00000  Uiso   1.00
O1110  O     0.99076   0.06081   0.82541   0.00000  Uiso   1.00
O1111  O     0.92302   0.10656   0.83434   0.00000  Uiso   1.00
O1112  O     0.73044   0.28424   0.73105   0.00000  Uiso   1.00
O1113  O     0.67178   0.29286   0.78166   0.00000  Uiso   1.00
O1114  O     0.89441   0.12846   0.75000   0.00000  Uiso   1.00
O1115  O     0.73758   0.25488   0.81274   0.00000  Uiso   1.00
O1116  O     0.89441   0.20487   0.75001   0.00000  Uiso   1.00
O1117  O     0.77226   0.12846   0.75000   0.00000  Uiso   1.00
O1118  O     0.83333   0.20489   0.68453   0.00000  Uiso   1.00
O1119  O     0.83334   0.12845   0.81547   0.00000  Uiso   1.00
O1120  O     0.83334   0.20489   0.81547   0.00000  Uiso   1.00
O1121  O     0.83333   0.12845   0.68453   0.00000  Uiso   1.00
O1122  O     0.73109   0.04933   0.77086   0.00000  Uiso   1.00
S1123  S     0.70652   0.07111   0.73381   0.00000  Uiso   1.00
S1124  S     0.95792   0.24994   0.70228   0.00000  Uiso   1.00
S1125  S     0.95724   0.08370   0.79875   0.00000  Uiso   1.00
S1126  S     0.70646   0.26188   0.76823   0.00000  Uiso   1.00
Zn1127 Zn    0.83333   0.21771   0.75000   0.00000  Uiso   1.00
Zn1128 Zn    0.83333   0.11563   0.75000   0.00000  Uiso   1.00
C1129  C     0.08645   0.50000   0.75013   0.00000  Uiso   1.00
C1130  C     0.31228   0.53972   0.73773   0.00000  Uiso   1.00
C1131  C     0.31214   0.46041   0.76351   0.00000  Uiso   1.00
C1132  C     0.02005   0.54179   0.74968   0.00000  Uiso   1.00
C1133  C     0.13879   0.52434   0.54545   0.00000  Uiso   1.00
C1134  C     0.20257   0.52338   0.95192   0.00000  Uiso   1.00
C1135  C     0.14030   0.47766   0.95515   0.00000  Uiso   1.00
C1136  C     0.20339   0.48246   0.54769   0.00000  Uiso   1.00
C1137  C     0.13646   0.52383   0.59173   0.00000  Uiso   1.00
C1138  C     0.20282   0.52158   0.90551   0.00000  Uiso   1.00
C1139  C     0.13858   0.47606   0.90893   0.00000  Uiso   1.00
C1140  C     0.24665   0.50000   0.75003   0.00000  Uiso   1.00
C1141  C     0.20213   0.48094   0.59404   0.00000  Uiso   1.00
C1142  C     0.16815   0.50133   0.61605   0.00000  Uiso   1.00
C1143  C     0.16968   0.49895   0.88400   0.00000  Uiso   1.00
C1144  C     0.17173   0.50351   0.52396   0.00000  Uiso   1.00
C1145  C     0.17166   0.50153   0.97609   0.00000  Uiso   1.00
C1146  C     0.29063   0.50004   0.75039   0.00000  Uiso   1.00
C1147  C     0.04205   0.49995   0.75060   0.00000  Uiso   1.00
C1148  C     0.09941   0.54642   0.61348   0.00000  Uiso   1.00
C1149  C     0.06819   0.51146   0.63021   0.00000  Uiso   1.00
C1150  C     0.23832   0.54449   0.88047   0.00000  Uiso   1.00
C1151  C     0.16642   0.50031   0.66397   0.00000  Uiso   1.00
C1152  C     0.28071   0.52775   0.89625   0.00000  Uiso   1.00
C1153  C     0.10263   0.45089   0.88791   0.00000  Uiso   1.00
C1154  C     0.07006   0.48370   0.86988   0.00000  Uiso   1.00
C1155  C     0.23807   0.45865   0.61839   0.00000  Uiso   1.00
C1156  C     0.23563   0.40697   0.61595   0.00000  Uiso   1.00
C1157  C     0.16722   0.49970   0.83606   0.00000  Uiso   1.00
C1158  C     0.17531   0.35693   0.78814   0.00000  Uiso   1.00
C1159  C     0.15802   0.64307   0.71188   0.00000  Uiso   1.00
C1160  C     0.15796   0.35768   0.71191   0.00000  Uiso   1.00
C1161  C     0.17544   0.64229   0.78811   0.00000  Uiso   1.00
C1162  C     0.02003   0.45812   0.75186   0.00000  Uiso   1.00
H1163  H     0.18233   0.37472   0.81862   0.00000  Uiso   1.00
H1164  H     0.04121   0.52905   0.64513   0.00000  Uiso   1.00
H1165  H     0.05733   0.49016   0.60214   0.00000  Uiso   1.00
H1166  H     0.10904   0.56864   0.64124   0.00000  Uiso   1.00
H1167  H     0.08337   0.56913   0.58917   0.00000  Uiso   1.00
H1168  H     0.28154   0.49011   0.89843   0.00000  Uiso   1.00
H1169  H     0.30485   0.53926   0.87227   0.00000  Uiso   1.00
H1170  H     0.28828   0.54184   0.92951   0.00000  Uiso   1.00
H1171  H     0.23705   0.53852   0.84405   0.00000  Uiso   1.00
H1172  H     0.23635   0.58180   0.88539   0.00000  Uiso   1.00
H1173  H     0.05803   0.50534   0.89719   0.00000  Uiso   1.00
H1174  H     0.15101   0.62534   0.68139   0.00000  Uiso   1.00
H1175  H     0.04399   0.46430   0.85544   0.00000  Uiso   1.00
H1176  H     0.08335   0.50565   0.84337   0.00000  Uiso   1.00
H1177  H     0.11333   0.42791   0.86116   0.00000  Uiso   1.00
H1178  H     0.08735   0.42842   0.91303   0.00000  Uiso   1.00
H1179  H     0.26139   0.39163   0.63539   0.00000  Uiso   1.00
H1180  H     0.20599   0.39475   0.63021   0.00000  Uiso   1.00
H1181  H     0.23810   0.39567   0.58074   0.00000  Uiso   1.00
H1182  H     0.26759   0.47016   0.60303   0.00000  Uiso   1.00
H1183  H     0.23967   0.46864   0.65396   0.00000  Uiso   1.00
H1184  H     0.07253   0.38065   0.67545   0.00000  Uiso   1.00
H1185  H     0.15074   0.37602   0.68148   0.00000  Uiso   1.00
H1186  H     0.27693   0.54661   0.64214   0.00000  Uiso   1.00
H1187  H     0.24696   0.41425   0.85345   0.00000  Uiso   1.00
H1188  H     0.05201   0.58281   0.83830   0.00000  Uiso   1.00
H1189  H     0.18265   0.62392   0.81857   0.00000  Uiso   1.00
H1190  H     0.11458   0.54035   0.52581   0.00000  Uiso   1.00
H1191  H     0.22636   0.54187   0.96951   0.00000  Uiso   1.00
H1192  H     0.11679   0.46086   0.97518   0.00000  Uiso   1.00
H1193  H     0.22877   0.46667   0.52993   0.00000  Uiso   1.00
H1194  H     0.08232   0.48940   0.65609   0.00000  Uiso   1.00
N1195  N     0.16667   0.61907   0.75000   0.00000  Uiso   1.00
N1196  N     0.16667   0.38093   0.75000   0.00000  Uiso   1.00
O1197  O     0.10559   0.53821   0.75000   0.00000  Uiso   1.00
O1198  O     0.00510   0.37339   0.72110   0.00000  Uiso   1.00
O1199  O     0.07014   0.41131   0.68857   0.00000  Uiso   1.00
O1200  O     0.26793   0.61729   0.72969   0.00000  Uiso   1.00
O1201  O     0.32509   0.60759   0.67731   0.00000  Uiso   1.00
O1202  O     0.25878   0.56054   0.66488   0.00000  Uiso   1.00
O1203  O     0.26894   0.38220   0.77086   0.00000  Uiso   1.00
O1204  O     0.32409   0.39414   0.82541   0.00000  Uiso   1.00
O1205  O     0.25636   0.43990   0.83434   0.00000  Uiso   1.00
O1206  O     0.06377   0.61757   0.73105   0.00000  Uiso   1.00
O1207  O     0.00512   0.62619   0.78166   0.00000  Uiso   1.00
O1208  O     0.22774   0.46179   0.75000   0.00000  Uiso   1.00
O1209  O     0.07091   0.58822   0.81274   0.00000  Uiso   1.00
O1210  O     0.22774   0.53821   0.75001   0.00000  Uiso   1.00
O1211  O     0.10559   0.46179   0.75000   0.00000  Uiso   1.00
O1212  O     0.16666   0.53822   0.68453   0.00000  Uiso   1.00
O1213  O     0.16667   0.46178   0.81547   0.00000  Uiso   1.00
O1214  O     0.16667   0.53822   0.81547   0.00000  Uiso   1.00
O1215  O     0.16666   0.46178   0.68453   0.00000  Uiso   1.00
O1216  O     0.06442   0.38267   0.77086   0.00000  Uiso   1.00
S1217  S     0.03986   0.40444   0.73381   0.00000  Uiso   1.00
S1218  S     0.29125   0.58327   0.70228   0.00000  Uiso   1.00
S1219  S     0.29057   0.41704   0.79875   0.00000  Uiso   1.00
S1220  S     0.03979   0.59521   0.76823   0.00000  Uiso   1.00
Zn1221 Zn    0.16667   0.55104   0.75000   0.00000  Uiso   1.00
Zn1222 Zn    0.16667   0.44896   0.75000   0.00000  Uiso   1.00
C1223  C     0.41978   0.50000   0.75013   0.00000  Uiso   1.00
C1224  C     0.64561   0.53972   0.73773   0.00000  Uiso   1.00
C1225  C     0.64547   0.46041   0.76351   0.00000  Uiso   1.00
C1226  C     0.35338   0.54179   0.74968   0.00000  Uiso   1.00
C1227  C     0.47212   0.52434   0.54545   0.00000  Uiso   1.00
C1228  C     0.53591   0.52338   0.95192   0.00000  Uiso   1.00
C1229  C     0.47363   0.47766   0.95515   0.00000  Uiso   1.00
C1230  C     0.53672   0.48246   0.54769   0.00000  Uiso   1.00
C1231  C     0.46980   0.52383   0.59173   0.00000  Uiso   1.00
C1232  C     0.53615   0.52158   0.90551   0.00000  Uiso   1.00
C1233  C     0.47192   0.47606   0.90893   0.00000  Uiso   1.00
C1234  C     0.57998   0.50000   0.75003   0.00000  Uiso   1.00
C1235  C     0.53546   0.48094   0.59404   0.00000  Uiso   1.00
C1236  C     0.50148   0.50133   0.61605   0.00000  Uiso   1.00
C1237  C     0.50301   0.49895   0.88400   0.00000  Uiso   1.00
C1238  C     0.50506   0.50351   0.52396   0.00000  Uiso   1.00
C1239  C     0.50500   0.50153   0.97609   0.00000  Uiso   1.00
C1240  C     0.62397   0.50004   0.75039   0.00000  Uiso   1.00
C1241  C     0.37538   0.49995   0.75060   0.00000  Uiso   1.00
C1242  C     0.43274   0.54642   0.61348   0.00000  Uiso   1.00
C1243  C     0.40152   0.51146   0.63021   0.00000  Uiso   1.00
C1244  C     0.57165   0.54449   0.88047   0.00000  Uiso   1.00
C1245  C     0.49976   0.50031   0.66397   0.00000  Uiso   1.00
C1246  C     0.61404   0.52775   0.89625   0.00000  Uiso   1.00
C1247  C     0.43596   0.45089   0.88791   0.00000  Uiso   1.00
C1248  C     0.40339   0.48370   0.86988   0.00000  Uiso   1.00
C1249  C     0.57140   0.45865   0.61839   0.00000  Uiso   1.00
C1250  C     0.56896   0.40697   0.61595   0.00000  Uiso   1.00
C1251  C     0.50055   0.49970   0.83606   0.00000  Uiso   1.00
C1252  C     0.50864   0.35693   0.78814   0.00000  Uiso   1.00
C1253  C     0.49135   0.64307   0.71188   0.00000  Uiso   1.00
C1254  C     0.49129   0.35768   0.71191   0.00000  Uiso   1.00
C1255  C     0.50877   0.64229   0.78811   0.00000  Uiso   1.00
C1256  C     0.35336   0.45812   0.75186   0.00000  Uiso   1.00
H1257  H     0.51566   0.37472   0.81862   0.00000  Uiso   1.00
H1258  H     0.37454   0.52905   0.64513   0.00000  Uiso   1.00
H1259  H     0.39066   0.49016   0.60214   0.00000  Uiso   1.00
H1260  H     0.44237   0.56864   0.64124   0.00000  Uiso   1.00
H1261  H     0.41670   0.56913   0.58917   0.00000  Uiso   1.00
H1262  H     0.61487   0.49011   0.89843   0.00000  Uiso   1.00
H1263  H     0.63818   0.53926   0.87227   0.00000  Uiso   1.00
H1264  H     0.62162   0.54184   0.92951   0.00000  Uiso   1.00
H1265  H     0.57038   0.53852   0.84405   0.00000  Uiso   1.00
H1266  H     0.56969   0.58180   0.88539   0.00000  Uiso   1.00
H1267  H     0.39136   0.50534   0.89719   0.00000  Uiso   1.00
H1268  H     0.48434   0.62534   0.68139   0.00000  Uiso   1.00
H1269  H     0.37733   0.46430   0.85544   0.00000  Uiso   1.00
H1270  H     0.41669   0.50565   0.84337   0.00000  Uiso   1.00
H1271  H     0.44667   0.42791   0.86116   0.00000  Uiso   1.00
H1272  H     0.42068   0.42842   0.91303   0.00000  Uiso   1.00
H1273  H     0.59472   0.39163   0.63539   0.00000  Uiso   1.00
H1274  H     0.53932   0.39475   0.63021   0.00000  Uiso   1.00
H1275  H     0.57144   0.39567   0.58074   0.00000  Uiso   1.00
H1276  H     0.60092   0.47016   0.60303   0.00000  Uiso   1.00
H1277  H     0.57300   0.46864   0.65396   0.00000  Uiso   1.00
H1278  H     0.40586   0.38065   0.67545   0.00000  Uiso   1.00
H1279  H     0.48407   0.37602   0.68148   0.00000  Uiso   1.00
H1280  H     0.61026   0.54661   0.64214   0.00000  Uiso   1.00
H1281  H     0.58029   0.41425   0.85345   0.00000  Uiso   1.00
H1282  H     0.38534   0.58281   0.83830   0.00000  Uiso   1.00
H1283  H     0.51599   0.62392   0.81857   0.00000  Uiso   1.00
H1284  H     0.44792   0.54035   0.52581   0.00000  Uiso   1.00
H1285  H     0.55969   0.54187   0.96951   0.00000  Uiso   1.00
H1286  H     0.45012   0.46086   0.97518   0.00000  Uiso   1.00
H1287  H     0.56210   0.46667   0.52993   0.00000  Uiso   1.00
H1288  H     0.41565   0.48940   0.65609   0.00000  Uiso   1.00
N1289  N     0.50000   0.61907   0.75000   0.00000  Uiso   1.00
N1290  N     0.50000   0.38093   0.75000   0.00000  Uiso   1.00
O1291  O     0.43892   0.53821   0.75000   0.00000  Uiso   1.00
O1292  O     0.33844   0.37339   0.72110   0.00000  Uiso   1.00
O1293  O     0.40348   0.41131   0.68857   0.00000  Uiso   1.00
O1294  O     0.60126   0.61729   0.72969   0.00000  Uiso   1.00
O1295  O     0.65842   0.60759   0.67731   0.00000  Uiso   1.00
O1296  O     0.59211   0.56054   0.66488   0.00000  Uiso   1.00
O1297  O     0.60227   0.38220   0.77086   0.00000  Uiso   1.00
O1298  O     0.65743   0.39414   0.82541   0.00000  Uiso   1.00
O1299  O     0.58969   0.43990   0.83434   0.00000  Uiso   1.00
O1300  O     0.39710   0.61757   0.73105   0.00000  Uiso   1.00
O1301  O     0.33845   0.62619   0.78166   0.00000  Uiso   1.00
O1302  O     0.56108   0.46179   0.75000   0.00000  Uiso   1.00
O1303  O     0.40425   0.58822   0.81274   0.00000  Uiso   1.00
O1304  O     0.56108   0.53821   0.75001   0.00000  Uiso   1.00
O1305  O     0.43892   0.46179   0.75000   0.00000  Uiso   1.00
O1306  O     0.50000   0.53822   0.68453   0.00000  Uiso   1.00
O1307  O     0.50000   0.46178   0.81547   0.00000  Uiso   1.00
O1308  O     0.50000   0.53822   0.81547   0.00000  Uiso   1.00
O1309  O     0.50000   0.46178   0.68453   0.00000  Uiso   1.00
O1310  O     0.39775   0.38267   0.77086   0.00000  Uiso   1.00
S1311  S     0.37319   0.40444   0.73381   0.00000  Uiso   1.00
S1312  S     0.62458   0.58327   0.70228   0.00000  Uiso   1.00
S1313  S     0.62390   0.41704   0.79875   0.00000  Uiso   1.00
S1314  S     0.37313   0.59521   0.76823   0.00000  Uiso   1.00
Zn1315 Zn    0.50000   0.55104   0.75000   0.00000  Uiso   1.00
Zn1316 Zn    0.50000   0.44896   0.75000   0.00000  Uiso   1.00
C1317  C     0.75312   0.50000   0.75013   0.00000  Uiso   1.00
C1318  C     0.97895   0.53972   0.73773   0.00000  Uiso   1.00
C1319  C     0.97881   0.46041   0.76351   0.00000  Uiso   1.00
C1320  C     0.68671   0.54179   0.74968   0.00000  Uiso   1.00
C1321  C     0.80545   0.52434   0.54545   0.00000  Uiso   1.00
C1322  C     0.86924   0.52338   0.95192   0.00000  Uiso   1.00
C1323  C     0.80697   0.47766   0.95515   0.00000  Uiso   1.00
C1324  C     0.87006   0.48246   0.54769   0.00000  Uiso   1.00
C1325  C     0.80313   0.52383   0.59173   0.00000  Uiso   1.00
C1326  C     0.86949   0.52158   0.90551   0.00000  Uiso   1.00
C1327  C     0.80525   0.47606   0.90893   0.00000  Uiso   1.00
C1328  C     0.91332   0.50000   0.75003   0.00000  Uiso   1.00
C1329  C     0.86880   0.48094   0.59404   0.00000  Uiso   1.00
C1330  C     0.83481   0.50133   0.61605   0.00000  Uiso   1.00
C1331  C     0.83634   0.49895   0.88400   0.00000  Uiso   1.00
C1332  C     0.83839   0.50351   0.52396   0.00000  Uiso   1.00
C1333  C     0.83833   0.50153   0.97609   0.00000  Uiso   1.00
C1334  C     0.95730   0.50004   0.75039   0.00000  Uiso   1.00
C1335  C     0.70872   0.49995   0.75060   0.00000  Uiso   1.00
C1336  C     0.76608   0.54642   0.61348   0.00000  Uiso   1.00
C1337  C     0.73485   0.51146   0.63021   0.00000  Uiso   1.00
C1338  C     0.90499   0.54449   0.88047   0.00000  Uiso   1.00
C1339  C     0.83309   0.50031   0.66397   0.00000  Uiso   1.00
C1340  C     0.94737   0.52775   0.89625   0.00000  Uiso   1.00
C1341  C     0.76929   0.45089   0.88791   0.00000  Uiso   1.00
C1342  C     0.73673   0.48370   0.86988   0.00000  Uiso   1.00
C1343  C     0.90474   0.45865   0.61839   0.00000  Uiso   1.00
C1344  C     0.90230   0.40697   0.61595   0.00000  Uiso   1.00
C1345  C     0.83388   0.49970   0.83606   0.00000  Uiso   1.00
C1346  C     0.84197   0.35693   0.78814   0.00000  Uiso   1.00
C1347  C     0.82469   0.64307   0.71188   0.00000  Uiso   1.00
C1348  C     0.82462   0.35768   0.71191   0.00000  Uiso   1.00
C1349  C     0.84210   0.64229   0.78811   0.00000  Uiso   1.00
C1350  C     0.68669   0.45812   0.75186   0.00000  Uiso   1.00
H1351  H     0.84899   0.37472   0.81862   0.00000  Uiso   1.00
H1352  H     0.70788   0.52905   0.64513   0.00000  Uiso   1.00
H1353  H     0.72399   0.49016   0.60214   0.00000  Uiso   1.00
H1354  H     0.77570   0.56864   0.64124   0.00000  Uiso   1.00
H1355  H     0.75003   0.56913   0.58917   0.00000  Uiso   1.00
H1356  H     0.94821   0.49011   0.89843   0.00000  Uiso   1.00
H1357  H     0.97151   0.53926   0.87227   0.00000  Uiso   1.00
H1358  H     0.95495   0.54184   0.92951   0.00000  Uiso   1.00
H1359  H     0.90371   0.53852   0.84405   0.00000  Uiso   1.00
H1360  H     0.90302   0.58180   0.88539   0.00000  Uiso   1.00
H1361  H     0.72469   0.50534   0.89719   0.00000  Uiso   1.00
H1362  H     0.81768   0.62534   0.68139   0.00000  Uiso   1.00
H1363  H     0.71066   0.46430   0.85544   0.00000  Uiso   1.00
H1364  H     0.75002   0.50565   0.84337   0.00000  Uiso   1.00
H1365  H     0.78000   0.42791   0.86116   0.00000  Uiso   1.00
H1366  H     0.75401   0.42842   0.91303   0.00000  Uiso   1.00
H1367  H     0.92806   0.39163   0.63539   0.00000  Uiso   1.00
H1368  H     0.87265   0.39475   0.63021   0.00000  Uiso   1.00
H1369  H     0.90477   0.39567   0.58074   0.00000  Uiso   1.00
H1370  H     0.93426   0.47016   0.60303   0.00000  Uiso   1.00
H1371  H     0.90634   0.46864   0.65396   0.00000  Uiso   1.00
H1372  H     0.73919   0.38065   0.67545   0.00000  Uiso   1.00
H1373  H     0.81740   0.37602   0.68148   0.00000  Uiso   1.00
H1374  H     0.94360   0.54661   0.64214   0.00000  Uiso   1.00
H1375  H     0.91363   0.41425   0.85345   0.00000  Uiso   1.00
H1376  H     0.71868   0.58281   0.83830   0.00000  Uiso   1.00
H1377  H     0.84932   0.62392   0.81857   0.00000  Uiso   1.00
H1378  H     0.78125   0.54035   0.52581   0.00000  Uiso   1.00
H1379  H     0.89303   0.54187   0.96951   0.00000  Uiso   1.00
H1380  H     0.78346   0.46086   0.97518   0.00000  Uiso   1.00
H1381  H     0.89543   0.46667   0.52993   0.00000  Uiso   1.00
H1382  H     0.74899   0.48940   0.65609   0.00000  Uiso   1.00
N1383  N     0.83333   0.61907   0.75000   0.00000  Uiso   1.00
N1384  N     0.83333   0.38093   0.75000   0.00000  Uiso   1.00
O1385  O     0.77226   0.53821   0.75000   0.00000  Uiso   1.00
O1386  O     0.67177   0.37339   0.72110   0.00000  Uiso   1.00
O1387  O     0.73681   0.41131   0.68857   0.00000  Uiso   1.00
O1388  O     0.93460   0.61729   0.72969   0.00000  Uiso   1.00
O1389  O     0.99175   0.60759   0.67731   0.00000  Uiso   1.00
O1390  O     0.92545   0.56054   0.66488   0.00000  Uiso   1.00
O1391  O     0.93561   0.38220   0.77086   0.00000  Uiso   1.00
O1392  O     0.99076   0.39414   0.82541   0.00000  Uiso   1.00
O1393  O     0.92302   0.43990   0.83434   0.00000  Uiso   1.00
O1394  O     0.73044   0.61757   0.73105   0.00000  Uiso   1.00
O1395  O     0.67178   0.62619   0.78166   0.00000  Uiso   1.00
O1396  O     0.89441   0.46179   0.75000   0.00000  Uiso   1.00
O1397  O     0.73758   0.58822   0.81274   0.00000  Uiso   1.00
O1398  O     0.89441   0.53821   0.75001   0.00000  Uiso   1.00
O1399  O     0.77226   0.46179   0.75000   0.00000  Uiso   1.00
O1400  O     0.83333   0.53822   0.68453   0.00000  Uiso   1.00
O1401  O     0.83334   0.46178   0.81547   0.00000  Uiso   1.00
O1402  O     0.83334   0.53822   0.81547   0.00000  Uiso   1.00
O1403  O     0.83333   0.46178   0.68453   0.00000  Uiso   1.00
O1404  O     0.73109   0.38267   0.77086   0.00000  Uiso   1.00
S1405  S     0.70652   0.40444   0.73381   0.00000  Uiso   1.00
S1406  S     0.95792   0.58327   0.70228   0.00000  Uiso   1.00
S1407  S     0.95724   0.41704   0.79875   0.00000  Uiso   1.00
S1408  S     0.70646   0.59521   0.76823   0.00000  Uiso   1.00
Zn1409 Zn    0.83333   0.55104   0.75000   0.00000  Uiso   1.00
Zn1410 Zn    0.83333   0.44896   0.75000   0.00000  Uiso   1.00
C1411  C     0.08645   0.83333   0.75013   0.00000  Uiso   1.00
C1412  C     0.31228   0.87305   0.73773   0.00000  Uiso   1.00
C1413  C     0.31214   0.79375   0.76351   0.00000  Uiso   1.00
C1414  C     0.02005   0.87512   0.74968   0.00000  Uiso   1.00
C1415  C     0.13879   0.85767   0.54545   0.00000  Uiso   1.00
C1416  C     0.20257   0.85672   0.95192   0.00000  Uiso   1.00
C1417  C     0.14030   0.81099   0.95515   0.00000  Uiso   1.00
C1418  C     0.20339   0.81579   0.54769   0.00000  Uiso   1.00
C1419  C     0.13646   0.85716   0.59173   0.00000  Uiso   1.00
C1420  C     0.20282   0.85491   0.90551   0.00000  Uiso   1.00
C1421  C     0.13858   0.80939   0.90893   0.00000  Uiso   1.00
C1422  C     0.24665   0.83333   0.75003   0.00000  Uiso   1.00
C1423  C     0.20213   0.81427   0.59404   0.00000  Uiso   1.00
C1424  C     0.16815   0.83467   0.61605   0.00000  Uiso   1.00
C1425  C     0.16968   0.83228   0.88400   0.00000  Uiso   1.00
C1426  C     0.17173   0.83684   0.52396   0.00000  Uiso   1.00
C1427  C     0.17166   0.83486   0.97609   0.00000  Uiso   1.00
C1428  C     0.29063   0.83337   0.75039   0.00000  Uiso   1.00
C1429  C     0.04205   0.83328   0.75060   0.00000  Uiso   1.00
C1430  C     0.09941   0.87976   0.61348   0.00000  Uiso   1.00
C1431  C     0.06819   0.84479   0.63021   0.00000  Uiso   1.00
C1432  C     0.23832   0.87783   0.88047   0.00000  Uiso   1.00
C1433  C     0.16642   0.83364   0.66397   0.00000  Uiso   1.00
C1434  C     0.28071   0.86108   0.89625   0.00000  Uiso   1.00
C1435  C     0.10263   0.78422   0.88791   0.00000  Uiso   1.00
C1436  C     0.07006   0.81703   0.86988   0.00000  Uiso   1.00
C1437  C     0.23807   0.79199   0.61839   0.00000  Uiso   1.00
C1438  C     0.23563   0.74030   0.61595   0.00000  Uiso   1.00
C1439  C     0.16722   0.83304   0.83606   0.00000  Uiso   1.00
C1440  C     0.17531   0.69027   0.78814   0.00000  Uiso   1.00
C1441  C     0.15802   0.97641   0.71188   0.00000  Uiso   1.00
C1442  C     0.15796   0.69102   0.71191   0.00000  Uiso   1.00
C1443  C     0.17544   0.97563   0.78811   0.00000  Uiso   1.00
C1444  C     0.02003   0.79145   0.75186   0.00000  Uiso   1.00
H1445  H     0.18233   0.70805   0.81862   0.00000  Uiso   1.00
H1446  H     0.04121   0.86238   0.64513   0.00000  Uiso   1.00
H1447  H     0.05733   0.82349   0.60214   0.00000  Uiso   1.00
H1448  H     0.10904   0.90197   0.64124   0.00000  Uiso   1.00
H1449  H     0.08337   0.90247   0.58917   0.00000  Uiso   1.00
H1450  H     0.28154   0.82345   0.89843   0.00000  Uiso   1.00
H1451  H     0.30485   0.87259   0.87227   0.00000  Uiso   1.00
H1452  H     0.28828   0.87517   0.92951   0.00000  Uiso   1.00
H1453  H     0.23705   0.87185   0.84405   0.00000  Uiso   1.00
H1454  H     0.23635   0.91514   0.88539   0.00000  Uiso   1.00
H1455  H     0.05803   0.83867   0.89719   0.00000  Uiso   1.00
H1456  H     0.15101   0.95868   0.68139   0.00000  Uiso   1.00
H1457  H     0.04399   0.79764   0.85544   0.00000  Uiso   1.00
H1458  H     0.08335   0.83898   0.84337   0.00000  Uiso   1.00
H1459  H     0.11333   0.76124   0.86116   0.00000  Uiso   1.00
H1460  H     0.08735   0.76175   0.91303   0.00000  Uiso   1.00
H1461  H     0.26139   0.72496   0.63539   0.00000  Uiso   1.00
H1462  H     0.20599   0.72808   0.63021   0.00000  Uiso   1.00
H1463  H     0.23810   0.72900   0.58074   0.00000  Uiso   1.00
H1464  H     0.26759   0.80349   0.60303   0.00000  Uiso   1.00
H1465  H     0.23967   0.80197   0.65396   0.00000  Uiso   1.00
H1466  H     0.07253   0.71398   0.67545   0.00000  Uiso   1.00
H1467  H     0.15074   0.70935   0.68148   0.00000  Uiso   1.00
H1468  H     0.27693   0.87995   0.64214   0.00000  Uiso   1.00
H1469  H     0.24696   0.74758   0.85345   0.00000  Uiso   1.00
H1470  H     0.05201   0.91614   0.83830   0.00000  Uiso   1.00
H1471  H     0.18265   0.95726   0.81857   0.00000  Uiso   1.00
H1472  H     0.11458   0.87368   0.52581   0.00000  Uiso   1.00
H1473  H     0.22636   0.87520   0.96951   0.00000  Uiso   1.00
H1474  H     0.11679   0.79420   0.97518   0.00000  Uiso   1.00
H1475  H     0.22877   0.80000   0.52993   0.00000  Uiso   1.00
H1476  H     0.08232   0.82273   0.65609   0.00000  Uiso   1.00
N1477  N     0.16667   0.95240   0.75000   0.00000  Uiso   1.00
N1478  N     0.16667   0.71427   0.75000   0.00000  Uiso   1.00
O1479  O     0.10559   0.87154   0.75000   0.00000  Uiso   1.00
O1480  O     0.00510   0.70673   0.72110   0.00000  Uiso   1.00
O1481  O     0.07014   0.74464   0.68857   0.00000  Uiso   1.00
O1482  O     0.26793   0.95063   0.72969   0.00000  Uiso   1.00
O1483  O     0.32509   0.94093   0.67731   0.00000  Uiso   1.00
O1484  O     0.25878   0.89387   0.66488   0.00000  Uiso   1.00
O1485  O     0.26894   0.71553   0.77086   0.00000  Uiso   1.00
O1486  O     0.32409   0.72748   0.82541   0.00000  Uiso   1.00
O1487  O     0.25636   0.77323   0.83434   0.00000  Uiso   1.00
O1488  O     0.06377   0.95091   0.73105   0.00000  Uiso   1.00
O1489  O     0.00512   0.95953   0.78166   0.00000  Uiso   1.00
O1490  O     0.22774   0.79513   0.75000   0.00000  Uiso   1.00
O1491  O     0.07091   0.92155   0.81274   0.00000  Uiso   1.00
O1492  O     0.22774   0.87154   0.75001   0.00000  Uiso   1.00
O1493  O     0.10559   0.79513   0.75000   0.00000  Uiso   1.00
O1494  O     0.16666   0.87155   0.68453   0.00000  Uiso   1.00
O1495  O     0.16667   0.79511   0.81547   0.00000  Uiso   1.00
O1496  O     0.16667   0.87155   0.81547   0.00000  Uiso   1.00
O1497  O     0.16666   0.79511   0.68453   0.00000  Uiso   1.00
O1498  O     0.06442   0.71600   0.77086   0.00000  Uiso   1.00
S1499  S     0.03986   0.73778   0.73381   0.00000  Uiso   1.00
S1500  S     0.29125   0.91661   0.70228   0.00000  Uiso   1.00
S1501  S     0.29057   0.75037   0.79875   0.00000  Uiso   1.00
S1502  S     0.03979   0.92855   0.76823   0.00000  Uiso   1.00
Zn1503 Zn    0.16667   0.88437   0.75000   0.00000  Uiso   1.00
Zn1504 Zn    0.16667   0.78229   0.75000   0.00000  Uiso   1.00
C1505  C     0.41978   0.83333   0.75013   0.00000  Uiso   1.00
C1506  C     0.64561   0.87305   0.73773   0.00000  Uiso   1.00
C1507  C     0.64547   0.79375   0.76351   0.00000  Uiso   1.00
C1508  C     0.35338   0.87512   0.74968   0.00000  Uiso   1.00
C1509  C     0.47212   0.85767   0.54545   0.00000  Uiso   1.00
C1510  C     0.53591   0.85672   0.95192   0.00000  Uiso   1.00
C1511  C     0.47363   0.81099   0.95515   0.00000  Uiso   1.00
C1512  C     0.53672   0.81579   0.54769   0.00000  Uiso   1.00
C1513  C     0.46980   0.85716   0.59173   0.00000  Uiso   1.00
C1514  C     0.53615   0.85491   0.90551   0.00000  Uiso   1.00
C1515  C     0.47192   0.80939   0.90893   0.00000  Uiso   1.00
C1516  C     0.57998   0.83333   0.75003   0.00000  Uiso   1.00
C1517  C     0.53546   0.81427   0.59404   0.00000  Uiso   1.00
C1518  C     0.50148   0.83467   0.61605   0.00000  Uiso   1.00
C1519  C     0.50301   0.83228   0.88400   0.00000  Uiso   1.00
C1520  C     0.50506   0.83684   0.52396   0.00000  Uiso   1.00
C1521  C     0.50500   0.83486   0.97609   0.00000  Uiso   1.00
C1522  C     0.62397   0.83337   0.75039   0.00000  Uiso   1.00
C1523  C     0.37538   0.83328   0.75060   0.00000  Uiso   1.00
C1524  C     0.43274   0.87976   0.61348   0.00000  Uiso   1.00
C1525  C     0.40152   0.84479   0.63021   0.00000  Uiso   1.00
C1526  C     0.57165   0.87783   0.88047   0.00000  Uiso   1.00
C1527  C     0.49976   0.83364   0.66397   0.00000  Uiso   1.00
C1528  C     0.61404   0.86108   0.89625   0.00000  Uiso   1.00
C1529  C     0.43596   0.78422   0.88791   0.00000  Uiso   1.00
C1530  C     0.40339   0.81703   0.86988   0.00000  Uiso   1.00
C1531  C     0.57140   0.79199   0.61839   0.00000  Uiso   1.00
C1532  C     0.56896   0.74030   0.61595   0.00000  Uiso   1.00
C1533  C     0.50055   0.83304   0.83606   0.00000  Uiso   1.00
C1534  C     0.50864   0.69027   0.78814   0.00000  Uiso   1.00
C1535  C     0.49135   0.97641   0.71188   0.00000  Uiso   1.00
C1536  C     0.49129   0.69102   0.71191   0.00000  Uiso   1.00
C1537  C     0.50877   0.97563   0.78811   0.00000  Uiso   1.00
C1538  C     0.35336   0.79145   0.75186   0.00000  Uiso   1.00
H1539  H     0.51566   0.70805   0.81862   0.00000  Uiso   1.00
H1540  H     0.37454   0.86238   0.64513   0.00000  Uiso   1.00
H1541  H     0.39066   0.82349   0.60214   0.00000  Uiso   1.00
H1542  H     0.44237   0.90197   0.64124   0.00000  Uiso   1.00
H1543  H     0.41670   0.90247   0.58917   0.00000  Uiso   1.00
H1544  H     0.61487   0.82345   0.89843   0.00000  Uiso   1.00
H1545  H     0.63818   0.87259   0.87227   0.00000  Uiso   1.00
H1546  H     0.62162   0.87517   0.92951   0.00000  Uiso   1.00
H1547  H     0.57038   0.87185   0.84405   0.00000  Uiso   1.00
H1548  H     0.56969   0.91514   0.88539   0.00000  Uiso   1.00
H1549  H     0.39136   0.83867   0.89719   0.00000  Uiso   1.00
H1550  H     0.48434   0.95868   0.68139   0.00000  Uiso   1.00
H1551  H     0.37733   0.79764   0.85544   0.00000  Uiso   1.00
H1552  H     0.41669   0.83898   0.84337   0.00000  Uiso   1.00
H1553  H     0.44667   0.76124   0.86116   0.00000  Uiso   1.00
H1554  H     0.42068   0.76175   0.91303   0.00000  Uiso   1.00
H1555  H     0.59472   0.72496   0.63539   0.00000  Uiso   1.00
H1556  H     0.53932   0.72808   0.63021   0.00000  Uiso   1.00
H1557  H     0.57144   0.72900   0.58074   0.00000  Uiso   1.00
H1558  H     0.60092   0.80349   0.60303   0.00000  Uiso   1.00
H1559  H     0.57300   0.80197   0.65396   0.00000  Uiso   1.00
H1560  H     0.40586   0.71398   0.67545   0.00000  Uiso   1.00
H1561  H     0.48407   0.70935   0.68148   0.00000  Uiso   1.00
H1562  H     0.61026   0.87995   0.64214   0.00000  Uiso   1.00
H1563  H     0.58029   0.74758   0.85345   0.00000  Uiso   1.00
H1564  H     0.38534   0.91614   0.83830   0.00000  Uiso   1.00
H1565  H     0.51599   0.95726   0.81857   0.00000  Uiso   1.00
H1566  H     0.44792   0.87368   0.52581   0.00000  Uiso   1.00
H1567  H     0.55969   0.87520   0.96951   0.00000  Uiso   1.00
H1568  H     0.45012   0.79420   0.97518   0.00000  Uiso   1.00
H1569  H     0.56210   0.80000   0.52993   0.00000  Uiso   1.00
H1570  H     0.41565   0.82273   0.65609   0.00000  Uiso   1.00
N1571  N     0.50000   0.95240   0.75000   0.00000  Uiso   1.00
N1572  N     0.50000   0.71427   0.75000   0.00000  Uiso   1.00
O1573  O     0.43892   0.87154   0.75000   0.00000  Uiso   1.00
O1574  O     0.33844   0.70673   0.72110   0.00000  Uiso   1.00
O1575  O     0.40348   0.74464   0.68857   0.00000  Uiso   1.00
O1576  O     0.60126   0.95063   0.72969   0.00000  Uiso   1.00
O1577  O     0.65842   0.94093   0.67731   0.00000  Uiso   1.00
O1578  O     0.59211   0.89387   0.66488   0.00000  Uiso   1.00
O1579  O     0.60227   0.71553   0.77086   0.00000  Uiso   1.00
O1580  O     0.65743   0.72748   0.82541   0.00000  Uiso   1.00
O1581  O     0.58969   0.77323   0.83434   0.00000  Uiso   1.00
O1582  O     0.39710   0.95091   0.73105   0.00000  Uiso   1.00
O1583  O     0.33845   0.95953   0.78166   0.00000  Uiso   1.00
O1584  O     0.56108   0.79513   0.75000   0.00000  Uiso   1.00
O1585  O     0.40425   0.92155   0.81274   0.00000  Uiso   1.00
O1586  O     0.56108   0.87154   0.75001   0.00000  Uiso   1.00
O1587  O     0.43892   0.79513   0.75000   0.00000  Uiso   1.00
O1588  O     0.50000   0.87155   0.68453   0.00000  Uiso   1.00
O1589  O     0.50000   0.79511   0.81547   0.00000  Uiso   1.00
O1590  O     0.50000   0.87155   0.81547   0.00000  Uiso   1.00
O1591  O     0.50000   0.79511   0.68453   0.00000  Uiso   1.00
O1592  O     0.39775   0.71600   0.77086   0.00000  Uiso   1.00
S1593  S     0.37319   0.73778   0.73381   0.00000  Uiso   1.00
S1594  S     0.62458   0.91661   0.70228   0.00000  Uiso   1.00
S1595  S     0.62390   0.75037   0.79875   0.00000  Uiso   1.00
S1596  S     0.37313   0.92855   0.76823   0.00000  Uiso   1.00
Zn1597 Zn    0.50000   0.88437   0.75000   0.00000  Uiso   1.00
Zn1598 Zn    0.50000   0.78229   0.75000   0.00000  Uiso   1.00
C1599  C     0.75312   0.83333   0.75013   0.00000  Uiso   1.00
C1600  C     0.97895   0.87305   0.73773   0.00000  Uiso   1.00
C1601  C     0.97881   0.79375   0.76351   0.00000  Uiso   1.00
C1602  C     0.68671   0.87512   0.74968   0.00000  Uiso   1.00
C1603  C     0.80545   0.85767   0.54545   0.00000  Uiso   1.00
C1604  C     0.86924   0.85672   0.95192   0.00000  Uiso   1.00
C1605  C     0.80697   0.81099   0.95515   0.00000  Uiso   1.00
C1606  C     0.87006   0.81579   0.54769   0.00000  Uiso   1.00
C1607  C     0.80313   0.85716   0.59173   0.00000  Uiso   1.00
C1608  C     0.86949   0.85491   0.90551   0.00000  Uiso   1.00
C1609  C     0.80525   0.80939   0.90893   0.00000  Uiso   1.00
C1610  C     0.91332   0.83333   0.75003   0.00000  Uiso   1.00
C1611  C     0.86880   0.81427   0.59404   0.00000  Uiso   1.00
C1612  C     0.83481   0.83467   0.61605   0.00000  Uiso   1.00
C1613  C     0.83634   0.83228   0.88400   0.00000  Uiso   1.00
C1614  C     0.83839   0.83684   0.52396   0.00000  Uiso   1.00
C1615  C     0.83833   0.83486   0.97609   0.00000  Uiso   1.00
C1616  C     0.95730   0.83337   0.75039   0.00000  Uiso   1.00
C1617  C     0.70872   0.83328   0.75060   0.00000  Uiso   1.00
C1618  C     0.76608   0.87976   0.61348   0.00000  Uiso   1.00
C1619  C     0.73485   0.84479   0.63021   0.00000  Uiso   1.00
C1620  C     0.90499   0.87783   0.88047   0.00000  Uiso   1.00
C1621  C     0.83309   0.83364   0.66397   0.00000  Uiso   1.00
C1622  C     0.94737   0.86108   0.89625   0.00000  Uiso   1.00
C1623  C     0.76929   0.78422   0.88791   0.00000  Uiso   1.00
C1624  C     0.73673   0.81703   0.86988   0.00000  Uiso   1.00
C1625  C     0.90474   0.79199   0.61839   0.00000  Uiso   1.00
C1626  C     0.90230   0.74030   0.61595   0.00000  Uiso   1.00
C1627  C     0.83388   0.83304   0.83606   0.00000  Uiso   1.00
C1628  C     0.84197   0.69027   0.78814   0.00000  Uiso   1.00
C1629  C     0.82469   0.97641   0.71188   0.00000  Uiso   1.00
C1630  C     0.82462   0.69102   0.71191   0.00000  Uiso   1.00
C1631  C     0.84210   0.97563   0.78811   0.00000  Uiso   1.00
C1632  C     0.68669   0.79145   0.75186   0.00000  Uiso   1.00
H1633  H     0.84899   0.70805   0.81862   0.00000  Uiso   1.00
H1634  H     0.70788   0.86238   0.64513   0.00000  Uiso   1.00
H1635  H     0.72399   0.82349   0.60214   0.00000  Uiso   1.00
H1636  H     0.77570   0.90197   0.64124   0.00000  Uiso   1.00
H1637  H     0.75003   0.90247   0.58917   0.00000  Uiso   1.00
H1638  H     0.94821   0.82345   0.89843   0.00000  Uiso   1.00
H1639  H     0.97151   0.87259   0.87227   0.00000  Uiso   1.00
H1640  H     0.95495   0.87517   0.92951   0.00000  Uiso   1.00
H1641  H     0.90371   0.87185   0.84405   0.00000  Uiso   1.00
H1642  H     0.90302   0.91514   0.88539   0.00000  Uiso   1.00
H1643  H     0.72469   0.83867   0.89719   0.00000  Uiso   1.00
H1644  H     0.81768   0.95868   0.68139   0.00000  Uiso   1.00
H1645  H     0.71066   0.79764   0.85544   0.00000  Uiso   1.00
H1646  H     0.75002   0.83898   0.84337   0.00000  Uiso   1.00
H1647  H     0.78000   0.76124   0.86116   0.00000  Uiso   1.00
H1648  H     0.75401   0.76175   0.91303   0.00000  Uiso   1.00
H1649  H     0.92806   0.72496   0.63539   0.00000  Uiso   1.00
H1650  H     0.87265   0.72808   0.63021   0.00000  Uiso   1.00
H1651  H     0.90477   0.72900   0.58074   0.00000  Uiso   1.00
H1652  H     0.93426   0.80349   0.60303   0.00000  Uiso   1.00
H1653  H     0.90634   0.80197   0.65396   0.00000  Uiso   1.00
H1654  H     0.73919   0.71398   0.67545   0.00000  Uiso   1.00
H1655  H     0.81740   0.70935   0.68148   0.00000  Uiso   1.00
H1656  H     0.94360   0.87995   0.64214   0.00000  Uiso   1.00
H1657  H     0.91363   0.74758   0.85345   0.00000  Uiso   1.00
H1658  H     0.71868   0.91614   0.83830   0.00000  Uiso   1.00
H1659  H     0.84932   0.95726   0.81857   0.00000  Uiso   1.00
H1660  H     0.78125   0.87368   0.52581   0.00000  Uiso   1.00
H1661  H     0.89303   0.87520   0.96951   0.00000  Uiso   1.00
H1662  H     0.78346   0.79420   0.97518   0.00000  Uiso   1.00
H1663  H     0.89543   0.80000   0.52993   0.00000  Uiso   1.00
H1664  H     0.74899   0.82273   0.65609   0.00000  Uiso   1.00
N1665  N     0.83333   0.95240   0.75000   0.00000  Uiso   1.00
N1666  N     0.83333   0.71427   0.75000   0.00000  Uiso   1.00
O1667  O     0.77226   0.87154   0.75000   0.00000  Uiso   1.00
O1668  O     0.67177   0.70673   0.72110   0.00000  Uiso   1.00
O1669  O     0.73681   0.74464   0.68857   0.00000  Uiso   1.00
O1670  O     0.93460   0.95063   0.72969   0.00000  Uiso   1.00
O1671  O     0.99175   0.94093   0.67731   0.00000  Uiso   1.00
O1672  O     0.92545   0.89387   0.66488   0.00000  Uiso   1.00
O1673  O     0.93561   0.71553   0.77086   0.00000  Uiso   1.00
O1674  O     0.99076   0.72748   0.82541   0.00000  Uiso   1.00
O1675  O     0.92302   0.77323   0.83434   0.00000  Uiso   1.00
O1676  O     0.73044   0.95091   0.73105   0.00000  Uiso   1.00
O1677  O     0.67178   0.95953   0.78166   0.00000  Uiso   1.00
O1678  O     0.89441   0.79513   0.75000   0.00000  Uiso   1.00
O1679  O     0.73758   0.92155   0.81274   0.00000  Uiso   1.00
O1680  O     0.89441   0.87154   0.75001   0.00000  Uiso   1.00
O1681  O     0.77226   0.79513   0.75000   0.00000  Uiso   1.00
O1682  O     0.83333   0.87155   0.68453   0.00000  Uiso   1.00
O1683  O     0.83334   0.79511   0.81547   0.00000  Uiso   1.00
O1684  O     0.83334   0.87155   0.81547   0.00000  Uiso   1.00
O1685  O     0.83333   0.79511   0.68453   0.00000  Uiso   1.00
O1686  O     0.73109   0.71600   0.77086   0.00000  Uiso   1.00
S1687  S     0.70652   0.73778   0.73381   0.00000  Uiso   1.00
S1688  S     0.95792   0.91661   0.70228   0.00000  Uiso   1.00
S1689  S     0.95724   0.75037   0.79875   0.00000  Uiso   1.00
S1690  S     0.70646   0.92855   0.76823   0.00000  Uiso   1.00
Zn1691 Zn    0.83333   0.88437   0.75000   0.00000  Uiso   1.00
Zn1692 Zn    0.83333   0.78229   0.75000   0.00000  Uiso   1.00
loop_
_geom_bond_atom_site_label_1
_geom_bond_atom_site_label_2
_geom_bond_distance
_geom_bond_site_symmetry_2
_ccdc_geom_bond_type
C1     C19     1.438   .     S
C1     O69     1.285   .     A
C1     O83     1.283   .     A
C2     C18     1.411   .     A
C2     S90     1.790   .     S
C2     C98     1.380   .     S
C3     C18     1.410   .     A
C3     S91     1.790   .     S
C3     C128    1.381   .     S
C4     C19     1.422   .     A
C4     S92     1.792   .     S
C4     C190    1.380   1_455 S
C5     C16     1.390   .     A
C5     C9      1.386   .     A
C5     H62     1.085   .     S
C6     H63     1.084   .     S
C6     C17     1.389   .     A
C6     C10     1.390   .     A
C7     C11     1.385   .     A
C7     C17     1.389   .     A
C7     H64     1.085   .     S
C8     C13     1.388   .     A
C8     H65     1.085   .     S
C8     C16     1.390   .     A
C9     C14     1.418   .     A
C9     C20     1.520   .     S
C10    C22     1.526   .     S
C10    C15     1.422   .     A
C11    C25     1.521   .     S
C11    C15     1.419   .     A
C12    O82     1.280   .     A
C12    O80     1.281   .     A
C12    C18     1.425   .     S
C13    C14     1.418   .     A
C13    C27     1.519   .     S
C14    C23     1.435   .     S
C15    C29     1.437   .     S
C16    C863    1.434   1_554 S
C17    C862    1.434   .     S
C19    C34     1.424   .     A
C20    H39     1.112   .     S
C20    H38     1.107   .     S
C20    C21     1.524   .     S
C21    H66     1.105   .     S
C21    H36     1.111   .     S
C21    H37     1.111   .     S
C22    H44     1.111   .     S
C22    H43     1.106   .     S
C22    C24     1.532   .     S
C23    O87     1.285   .     A
C23    O84     1.280   .     A
C24    H42     1.110   .     S
C24    H41     1.111   .     S
C24    H40     1.109   .     S
C25    H50     1.112   .     S
C25    H49     1.108   .     S
C25    C26     1.525   .     S
C26    H45     1.111   .     S
C26    H47     1.110   .     S
C26    H48     1.105   .     S
C27    H54     1.112   .     S
C27    H55     1.108   .     S
C27    C28     1.526   .     S
C28    H51     1.111   .     S
C28    H53     1.111   .     S
C28    H52     1.109   .     S
C29    O85     1.280   .     A
C29    O86     1.285   .     A
C30    H35     1.081   .     S
C30    N68     1.365   .     A
C30    C597    1.412   1_545 S
C31    H46     1.080   .     S
C31    N67     1.365   .     A
C31    C314    1.411   .     S
C32    N68     1.365   .     A
C32    H57     1.080   .     S
C32    C595    1.411   1_545 S
C33    N67     1.366   .     A
C33    H61     1.081   .     S
C33    C312    1.412   .     S
C34    S89     1.793   .     S
C34    C191    1.381   1_455 S
H56    O71     0.990   .     S
H58    O74     0.990   .     S
H59    O77     0.990   .     S
H60    O81     0.991   .     S
N67    Zn93    2.002   .     S
N68    Zn94    2.002   .     S
O69    Zn93    2.014   .     S
O70    S89     1.502   .     D
O71    S89     1.681   .     S
O72    S90     1.503   .     D
O73    S90     1.503   .     D
O74    S90     1.681   .     S
O75    S91     1.503   .     D
O76    S91     1.503   .     D
O77    S91     1.680   .     S
O78    S92     1.503   .     D
O79    S92     1.503   .     D
O80    Zn94    2.014   .     S
O81    S92     1.682   .     S
O82    Zn93    2.014   .     S
O83    Zn94    2.014   .     S
O84    Zn93    1.999   .     S
O85    Zn94    1.999   .     S
O86    Zn93    1.991   .     S
O87    Zn94    1.991   .     S
O88    S89     1.503   .     D
C95    C113    1.438   .     S
C95    O163    1.285   .     A
C95    O177    1.283   .     A
C96    C112    1.411   .     A
C96    S184    1.790   .     S
C96    C192    1.380   .     S
C97    C112    1.410   .     A
C97    S185    1.790   .     S
C97    C222    1.381   .     S
C98    C113    1.422   .     A
C98    S186    1.792   .     S
C99    C110    1.390   .     A
C99    C103    1.386   .     A
C99    H156    1.085   .     S
C100   H157    1.084   .     S
C100   C111    1.389   .     A
C100   C104    1.390   .     A
C101   C105    1.385   .     A
C101   C111    1.389   .     A
C101   H158    1.085   .     S
C102   C107    1.388   .     A
C102   H159    1.085   .     S
C102   C110    1.390   .     A
C103   C108    1.418   .     A
C103   C114    1.520   .     S
C104   C116    1.526   .     S
C104   C109    1.422   .     A
C105   C119    1.521   .     S
C105   C109    1.419   .     A
C106   O176    1.280   .     A
C106   O174    1.281   .     A
C106   C112    1.425   .     S
C107   C108    1.418   .     A
C107   C121    1.519   .     S
C108   C117    1.435   .     S
C109   C123    1.437   .     S
C110   C957    1.434   1_554 S
C111   C956    1.434   .     S
C113   C128    1.424   .     A
C114   H133    1.112   .     S
C114   H132    1.107   .     S
C114   C115    1.524   .     S
C115   H160    1.105   .     S
C115   H130    1.111   .     S
C115   H131    1.111   .     S
C116   H138    1.111   .     S
C116   H137    1.106   .     S
C116   C118    1.532   .     S
C117   O181    1.285   .     A
C117   O178    1.280   .     A
C118   H136    1.110   .     S
C118   H135    1.111   .     S
C118   H134    1.109   .     S
C119   H144    1.112   .     S
C119   H143    1.108   .     S
C119   C120    1.525   .     S
C120   H139    1.111   .     S
C120   H141    1.110   .     S
C120   H142    1.105   .     S
C121   H148    1.112   .     S
C121   H149    1.108   .     S
C121   C122    1.526   .     S
C122   H145    1.111   .     S
C122   H147    1.111   .     S
C122   H146    1.109   .     S
C123   O179    1.280   .     A
C123   O180    1.285   .     A
C124   H129    1.081   .     S
C124   N162    1.365   .     A
C124   C691    1.412   1_545 S
C125   H140    1.080   .     S
C125   N161    1.365   .     A
C125   C408    1.411   .     S
C126   N162    1.365   .     A
C126   H151    1.080   .     S
C126   C689    1.411   1_545 S
C127   N161    1.366   .     A
C127   H155    1.081   .     S
C127   C406    1.412   .     S
C128   S183    1.793   .     S
H150   O165    0.990   .     S
H152   O168    0.990   .     S
H153   O171    0.990   .     S
H154   O175    0.991   .     S
N161   Zn187   2.002   .     S
N162   Zn188   2.002   .     S
O163   Zn187   2.014   .     S
O164   S183    1.502   .     D
O165   S183    1.681   .     S
O166   S184    1.503   .     D
O167   S184    1.503   .     D
O168   S184    1.681   .     S
O169   S185    1.503   .     D
O170   S185    1.503   .     D
O171   S185    1.680   .     S
O172   S186    1.503   .     D
O173   S186    1.503   .     D
O174   Zn188   2.014   .     S
O175   S186    1.682   .     S
O176   Zn187   2.014   .     S
O177   Zn188   2.014   .     S
O178   Zn187   1.999   .     S
O179   Zn188   1.999   .     S
O180   Zn187   1.991   .     S
O181   Zn188   1.991   .     S
O182   S183    1.503   .     D
C189   C207    1.438   .     S
C189   O257    1.285   .     A
C189   O271    1.283   .     A
C190   C206    1.411   .     A
C190   S278    1.790   .     S
C190   C4      1.380   1_655 S
C191   C206    1.410   .     A
C191   S279    1.790   .     S
C191   C34     1.381   1_655 S
C192   C207    1.422   .     A
C192   S280    1.792   .     S
C193   C204    1.390   .     A
C193   C197    1.386   .     A
C193   H250    1.085   .     S
C194   H251    1.084   .     S
C194   C205    1.389   .     A
C194   C198    1.390   .     A
C195   C199    1.385   .     A
C195   C205    1.389   .     A
C195   H252    1.085   .     S
C196   C201    1.388   .     A
C196   H253    1.085   .     S
C196   C204    1.390   .     A
C197   C202    1.418   .     A
C197   C208    1.520   .     S
C198   C210    1.526   .     S
C198   C203    1.422   .     A
C199   C213    1.521   .     S
C199   C203    1.419   .     A
C200   O270    1.280   .     A
C200   O268    1.281   .     A
C200   C206    1.425   .     S
C201   C202    1.418   .     A
C201   C215    1.519   .     S
C202   C211    1.435   .     S
C203   C217    1.437   .     S
C204   C1051   1.434   1_554 S
C205   C1050   1.434   .     S
C207   C222    1.424   .     A
C208   H227    1.112   .     S
C208   H226    1.107   .     S
C208   C209    1.524   .     S
C209   H254    1.105   .     S
C209   H224    1.111   .     S
C209   H225    1.111   .     S
C210   H232    1.111   .     S
C210   H231    1.106   .     S
C210   C212    1.532   .     S
C211   O275    1.285   .     A
C211   O272    1.280   .     A
C212   H230    1.110   .     S
C212   H229    1.111   .     S
C212   H228    1.109   .     S
C213   H238    1.112   .     S
C213   H237    1.108   .     S
C213   C214    1.525   .     S
C214   H233    1.111   .     S
C214   H235    1.110   .     S
C214   H236    1.105   .     S
C215   H242    1.112   .     S
C215   H243    1.108   .     S
C215   C216    1.526   .     S
C216   H239    1.111   .     S
C216   H241    1.111   .     S
C216   H240    1.109   .     S
C217   O273    1.280   .     A
C217   O274    1.285   .     A
C218   H223    1.081   .     S
C218   N256    1.365   .     A
C218   C785    1.412   1_545 S
C219   H234    1.080   .     S
C219   N255    1.365   .     A
C219   C502    1.411   .     S
C220   N256    1.365   .     A
C220   H245    1.080   .     S
C220   C783    1.411   1_545 S
C221   N255    1.366   .     A
C221   H249    1.081   .     S
C221   C500    1.412   .     S
C222   S277    1.793   .     S
H244   O259    0.990   .     S
H246   O262    0.990   .     S
H247   O265    0.990   .     S
H248   O269    0.991   .     S
N255   Zn281   2.002   .     S
N256   Zn282   2.002   .     S
O257   Zn281   2.014   .     S
O258   S277    1.502   .     D
O259   S277    1.681   .     S
O260   S278    1.503   .     D
O261   S278    1.503   .     D
O262   S278    1.681   .     S
O263   S279    1.503   .     D
O264   S279    1.503   .     D
O265   S279    1.680   .     S
O266   S280    1.503   .     D
O267   S280    1.503   .     D
O268   Zn282   2.014   .     S
O269   S280    1.682   .     S
O270   Zn281   2.014   .     S
O271   Zn282   2.014   .     S
O272   Zn281   1.999   .     S
O273   Zn282   1.999   .     S
O274   Zn281   1.991   .     S
O275   Zn282   1.991   .     S
O276   S277    1.503   .     D
C283   C301    1.438   .     S
C283   O351    1.285   .     A
C283   O365    1.283   .     A
C284   C300    1.411   .     A
C284   S372    1.790   .     S
C284   C380    1.380   .     S
C285   C300    1.410   .     A
C285   S373    1.790   .     S
C285   C410    1.381   .     S
C286   C301    1.422   .     A
C286   S374    1.792   .     S
C286   C472    1.380   1_455 S
C287   C298    1.390   .     A
C287   C291    1.386   .     A
C287   H344    1.085   .     S
C288   H345    1.084   .     S
C288   C299    1.389   .     A
C288   C292    1.390   .     A
C289   C293    1.385   .     A
C289   C299    1.389   .     A
C289   H346    1.085   .     S
C290   C295    1.388   .     A
C290   H347    1.085   .     S
C290   C298    1.390   .     A
C291   C296    1.418   .     A
C291   C302    1.520   .     S
C292   C304    1.526   .     S
C292   C297    1.422   .     A
C293   C307    1.521   .     S
C293   C297    1.419   .     A
C294   O364    1.280   .     A
C294   O362    1.281   .     A
C294   C300    1.425   .     S
C295   C296    1.418   .     A
C295   C309    1.519   .     S
C296   C305    1.435   .     S
C297   C311    1.437   .     S
C298   C1145   1.434   1_554 S
C299   C1144   1.434   .     S
C301   C316    1.424   .     A
C302   H321    1.112   .     S
C302   H320    1.107   .     S
C302   C303    1.524   .     S
C303   H348    1.105   .     S
C303   H318    1.111   .     S
C303   H319    1.111   .     S
C304   H326    1.111   .     S
C304   H325    1.106   .     S
C304   C306    1.532   .     S
C305   O369    1.285   .     A
C305   O366    1.280   .     A
C306   H324    1.110   .     S
C306   H323    1.111   .     S
C306   H322    1.109   .     S
C307   H332    1.112   .     S
C307   H331    1.108   .     S
C307   C308    1.525   .     S
C308   H327    1.111   .     S
C308   H329    1.110   .     S
C308   H330    1.105   .     S
C309   H336    1.112   .     S
C309   H337    1.108   .     S
C309   C310    1.526   .     S
C310   H333    1.111   .     S
C310   H335    1.111   .     S
C310   H334    1.109   .     S
C311   O367    1.280   .     A
C311   O368    1.285   .     A
C312   H317    1.081   .     S
C312   N350    1.365   .     A
C313   H328    1.080   .     S
C313   N349    1.365   .     A
C313   C596    1.411   .     S
C314   N350    1.365   .     A
C314   H339    1.080   .     S
C315   N349    1.366   .     A
C315   H343    1.081   .     S
C315   C594    1.412   .     S
C316   S371    1.793   .     S
C316   C473    1.381   1_455 S
H338   O353    0.990   .     S
H340   O356    0.990   .     S
H341   O359    0.990   .     S
H342   O363    0.991   .     S
N349   Zn375   2.002   .     S
N350   Zn376   2.002   .     S
O351   Zn375   2.014   .     S
O352   S371    1.502   .     D
O353   S371    1.681   .     S
O354   S372    1.503   .     D
O355   S372    1.503   .     D
O356   S372    1.681   .     S
O357   S373    1.503   .     D
O358   S373    1.503   .     D
O359   S373    1.680   .     S
O360   S374    1.503   .     D
O361   S374    1.503   .     D
O362   Zn376   2.014   .     S
O363   S374    1.682   .     S
O364   Zn375   2.014   .     S
O365   Zn376   2.014   .     S
O366   Zn375   1.999   .     S
O367   Zn376   1.999   .     S
O368   Zn375   1.991   .     S
O369   Zn376   1.991   .     S
O370   S371    1.503   .     D
C377   C395    1.438   .     S
C377   O445    1.285   .     A
C377   O459    1.283   .     A
C378   C394    1.411   .     A
C378   S466    1.790   .     S
C378   C474    1.380   .     S
C379   C394    1.410   .     A
C379   S467    1.790   .     S
C379   C504    1.381   .     S
C380   C395    1.422   .     A
C380   S468    1.792   .     S
C381   C392    1.390   .     A
C381   C385    1.386   .     A
C381   H438    1.085   .     S
C382   H439    1.084   .     S
C382   C393    1.389   .     A
C382   C386    1.390   .     A
C383   C387    1.385   .     A
C383   C393    1.389   .     A
C383   H440    1.085   .     S
C384   C389    1.388   .     A
C384   H441    1.085   .     S
C384   C392    1.390   .     A
C385   C390    1.418   .     A
C385   C396    1.520   .     S
C386   C398    1.526   .     S
C386   C391    1.422   .     A
C387   C401    1.521   .     S
C387   C391    1.419   .     A
C388   O458    1.280   .     A
C388   O456    1.281   .     A
C388   C394    1.425   .     S
C389   C390    1.418   .     A
C389   C403    1.519   .     S
C390   C399    1.435   .     S
C391   C405    1.437   .     S
C392   C1239   1.434   1_554 S
C393   C1238   1.434   .     S
C395   C410    1.424   .     A
C396   H415    1.112   .     S
C396   H414    1.107   .     S
C396   C397    1.524   .     S
C397   H442    1.105   .     S
C397   H412    1.111   .     S
C397   H413    1.111   .     S
C398   H420    1.111   .     S
C398   H419    1.106   .     S
C398   C400    1.532   .     S
C399   O463    1.285   .     A
C399   O460    1.280   .     A
C400   H418    1.110   .     S
C400   H417    1.111   .     S
C400   H416    1.109   .     S
C401   H426    1.112   .     S
C401   H425    1.108   .     S
C401   C402    1.525   .     S
C402   H421    1.111   .     S
C402   H423    1.110   .     S
C402   H424    1.105   .     S
C403   H430    1.112   .     S
C403   H431    1.108   .     S
C403   C404    1.526   .     S
C404   H427    1.111   .     S
C404   H429    1.111   .     S
C404   H428    1.109   .     S
C405   O461    1.280   .     A
C405   O462    1.285   .     A
C406   H411    1.081   .     S
C406   N444    1.365   .     A
C407   H422    1.080   .     S
C407   N443    1.365   .     A
C407   C690    1.411   .     S
C408   N444    1.365   .     A
C408   H433    1.080   .     S
C409   N443    1.366   .     A
C409   H437    1.081   .     S
C409   C688    1.412   .     S
C410   S465    1.793   .     S
H432   O447    0.990   .     S
H434   O450    0.990   .     S
H435   O453    0.990   .     S
H436   O457    0.991   .     S
N443   Zn469   2.002   .     S
N444   Zn470   2.002   .     S
O445   Zn469   2.014   .     S
O446   S465    1.502   .     D
O447   S465    1.681   .     S
O448   S466    1.503   .     D
O449   S466    1.503   .     D
O450   S466    1.681   .     S
O451   S467    1.503   .     D
O452   S467    1.503   .     D
O453   S467    1.680   .     S
O454   S468    1.503   .     D
O455   S468    1.503   .     D
O456   Zn470   2.014   .     S
O457   S468    1.682   .     S
O458   Zn469   2.014   .     S
O459   Zn470   2.014   .     S
O460   Zn469   1.999   .     S
O461   Zn470   1.999   .     S
O462   Zn469   1.991   .     S
O463   Zn470   1.991   .     S
O464   S465    1.503   .     D
C471   C489    1.438   .     S
C471   O539    1.285   .     A
C471   O553    1.283   .     A
C472   C488    1.411   .     A
C472   S560    1.790   .     S
C472   C286    1.380   1_655 S
C473   C488    1.410   .     A
C473   S561    1.790   .     S
C473   C316    1.381   1_655 S
C474   C489    1.422   .     A
C474   S562    1.792   .     S
C475   C486    1.390   .     A
C475   C479    1.386   .     A
C475   H532    1.085   .     S
C476   H533    1.084   .     S
C476   C487    1.389   .     A
C476   C480    1.390   .     A
C477   C481    1.385   .     A
C477   C487    1.389   .     A
C477   H534    1.085   .     S
C478   C483    1.388   .     A
C478   H535    1.085   .     S
C478   C486    1.390   .     A
C479   C484    1.418   .     A
C479   C490    1.520   .     S
C480   C492    1.526   .     S
C480   C485    1.422   .     A
C481   C495    1.521   .     S
C481   C485    1.419   .     A
C482   O552    1.280   .     A
C482   O550    1.281   .     A
C482   C488    1.425   .     S
C483   C484    1.418   .     A
C483   C497    1.519   .     S
C484   C493    1.435   .     S
C485   C499    1.437   .     S
C486   C1333   1.434   1_554 S
C487   C1332   1.434   .     S
C489   C504    1.424   .     A
C490   H509    1.112   .     S
C490   H508    1.107   .     S
C490   C491    1.524   .     S
C491   H536    1.105   .     S
C491   H506    1.111   .     S
C491   H507    1.111   .     S
C492   H514    1.111   .     S
C492   H513    1.106   .     S
C492   C494    1.532   .     S
C493   O557    1.285   .     A
C493   O554    1.280   .     A
C494   H512    1.110   .     S
C494   H511    1.111   .     S
C494   H510    1.109   .     S
C495   H520    1.112   .     S
C495   H519    1.108   .     S
C495   C496    1.525   .     S
C496   H515    1.111   .     S
C496   H517    1.110   .     S
C496   H518    1.105   .     S
C497   H524    1.112   .     S
C497   H525    1.108   .     S
C497   C498    1.526   .     S
C498   H521    1.111   .     S
C498   H523    1.111   .     S
C498   H522    1.109   .     S
C499   O555    1.280   .     A
C499   O556    1.285   .     A
C500   H505    1.081   .     S
C500   N538    1.365   .     A
C501   H516    1.080   .     S
C501   N537    1.365   .     A
C501   C784    1.411   .     S
C502   N538    1.365   .     A
C502   H527    1.080   .     S
C503   N537    1.366   .     A
C503   H531    1.081   .     S
C503   C782    1.412   .     S
C504   S559    1.793   .     S
H526   O541    0.990   .     S
H528   O544    0.990   .     S
H529   O547    0.990   .     S
H530   O551    0.991   .     S
N537   Zn563   2.002   .     S
N538   Zn564   2.002   .     S
O539   Zn563   2.014   .     S
O540   S559    1.502   .     D
O541   S559    1.681   .     S
O542   S560    1.503   .     D
O543   S560    1.503   .     D
O544   S560    1.681   .     S
O545   S561    1.503   .     D
O546   S561    1.503   .     D
O547   S561    1.680   .     S
O548   S562    1.503   .     D
O549   S562    1.503   .     D
O550   Zn564   2.014   .     S
O551   S562    1.682   .     S
O552   Zn563   2.014   .     S
O553   Zn564   2.014   .     S
O554   Zn563   1.999   .     S
O555   Zn564   1.999   .     S
O556   Zn563   1.991   .     S
O557   Zn564   1.991   .     S
O558   S559    1.503   .     D
C565   C583    1.438   .     S
C565   O633    1.285   .     A
C565   O647    1.283   .     A
C566   C582    1.411   .     A
C566   S654    1.790   .     S
C566   C662    1.380   .     S
C567   C582    1.410   .     A
C567   S655    1.790   .     S
C567   C692    1.381   .     S
C568   C583    1.422   .     A
C568   S656    1.792   .     S
C568   C754    1.380   1_455 S
C569   C580    1.390   .     A
C569   C573    1.386   .     A
C569   H626    1.085   .     S
C570   H627    1.084   .     S
C570   C581    1.389   .     A
C570   C574    1.390   .     A
C571   C575    1.385   .     A
C571   C581    1.389   .     A
C571   H628    1.085   .     S
C572   C577    1.388   .     A
C572   H629    1.085   .     S
C572   C580    1.390   .     A
C573   C578    1.418   .     A
C573   C584    1.520   .     S
C574   C586    1.526   .     S
C574   C579    1.422   .     A
C575   C589    1.521   .     S
C575   C579    1.419   .     A
C576   O646    1.280   .     A
C576   O644    1.281   .     A
C576   C582    1.425   .     S
C577   C578    1.418   .     A
C577   C591    1.519   .     S
C578   C587    1.435   .     S
C579   C593    1.437   .     S
C580   C1427   1.434   1_554 S
C581   C1426   1.434   .     S
C583   C598    1.424   .     A
C584   H603    1.112   .     S
C584   H602    1.107   .     S
C584   C585    1.524   .     S
C585   H630    1.105   .     S
C585   H600    1.111   .     S
C585   H601    1.111   .     S
C586   H608    1.111   .     S
C586   H607    1.106   .     S
C586   C588    1.532   .     S
C587   O651    1.285   .     A
C587   O648    1.280   .     A
C588   H606    1.110   .     S
C588   H605    1.111   .     S
C588   H604    1.109   .     S
C589   H614    1.112   .     S
C589   H613    1.108   .     S
C589   C590    1.525   .     S
C590   H609    1.111   .     S
C590   H611    1.110   .     S
C590   H612    1.105   .     S
C591   H618    1.112   .     S
C591   H619    1.108   .     S
C591   C592    1.526   .     S
C592   H615    1.111   .     S
C592   H617    1.111   .     S
C592   H616    1.109   .     S
C593   O649    1.280   .     A
C593   O650    1.285   .     A
C594   H599    1.081   .     S
C594   N632    1.365   .     A
C595   H610    1.080   .     S
C595   N631    1.365   .     A
C595   C32     1.411   1_565 S
C596   N632    1.365   .     A
C596   H621    1.080   .     S
C597   N631    1.366   .     A
C597   H625    1.081   .     S
C597   C30     1.412   1_565 S
C598   S653    1.793   .     S
C598   C755    1.381   1_455 S
H620   O635    0.990   .     S
H622   O638    0.990   .     S
H623   O641    0.990   .     S
H624   O645    0.991   .     S
N631   Zn657   2.002   .     S
N632   Zn658   2.002   .     S
O633   Zn657   2.014   .     S
O634   S653    1.502   .     D
O635   S653    1.681   .     S
O636   S654    1.503   .     D
O637   S654    1.503   .     D
O638   S654    1.681   .     S
O639   S655    1.503   .     D
O640   S655    1.503   .     D
O641   S655    1.680   .     S
O642   S656    1.503   .     D
O643   S656    1.503   .     D
O644   Zn658   2.014   .     S
O645   S656    1.682   .     S
O646   Zn657   2.014   .     S
O647   Zn658   2.014   .     S
O648   Zn657   1.999   .     S
O649   Zn658   1.999   .     S
O650   Zn657   1.991   .     S
O651   Zn658   1.991   .     S
O652   S653    1.503   .     D
C659   C677    1.438   .     S
C659   O727    1.285   .     A
C659   O741    1.283   .     A
C660   C676    1.411   .     A
C660   S748    1.790   .     S
C660   C756    1.380   .     S
C661   C676    1.410   .     A
C661   S749    1.790   .     S
C661   C786    1.381   .     S
C662   C677    1.422   .     A
C662   S750    1.792   .     S
C663   C674    1.390   .     A
C663   C667    1.386   .     A
C663   H720    1.085   .     S
C664   H721    1.084   .     S
C664   C675    1.389   .     A
C664   C668    1.390   .     A
C665   C669    1.385   .     A
C665   C675    1.389   .     A
C665   H722    1.085   .     S
C666   C671    1.388   .     A
C666   H723    1.085   .     S
C666   C674    1.390   .     A
C667   C672    1.418   .     A
C667   C678    1.520   .     S
C668   C680    1.526   .     S
C668   C673    1.422   .     A
C669   C683    1.521   .     S
C669   C673    1.419   .     A
C670   O740    1.280   .     A
C670   O738    1.281   .     A
C670   C676    1.425   .     S
C671   C672    1.418   .     A
C671   C685    1.519   .     S
C672   C681    1.435   .     S
C673   C687    1.437   .     S
C674   C1521   1.434   1_554 S
C675   C1520   1.434   .     S
C677   C692    1.424   .     A
C678   H697    1.112   .     S
C678   H696    1.107   .     S
C678   C679    1.524   .     S
C679   H724    1.105   .     S
C679   H694    1.111   .     S
C679   H695    1.111   .     S
C680   H702    1.111   .     S
C680   H701    1.106   .     S
C680   C682    1.532   .     S
C681   O745    1.285   .     A
C681   O742    1.280   .     A
C682   H700    1.110   .     S
C682   H699    1.111   .     S
C682   H698    1.109   .     S
C683   H708    1.112   .     S
C683   H707    1.108   .     S
C683   C684    1.525   .     S
C684   H703    1.111   .     S
C684   H705    1.110   .     S
C684   H706    1.105   .     S
C685   H712    1.112   .     S
C685   H713    1.108   .     S
C685   C686    1.526   .     S
C686   H709    1.111   .     S
C686   H711    1.111   .     S
C686   H710    1.109   .     S
C687   O743    1.280   .     A
C687   O744    1.285   .     A
C688   H693    1.081   .     S
C688   N726    1.365   .     A
C689   H704    1.080   .     S
C689   N725    1.365   .     A
C689   C126    1.411   1_565 S
C690   N726    1.365   .     A
C690   H715    1.080   .     S
C691   N725    1.366   .     A
C691   H719    1.081   .     S
C691   C124    1.412   1_565 S
C692   S747    1.793   .     S
H714   O729    0.990   .     S
H716   O732    0.990   .     S
H717   O735    0.990   .     S
H718   O739    0.991   .     S
N725   Zn751   2.002   .     S
N726   Zn752   2.002   .     S
O727   Zn751   2.014   .     S
O728   S747    1.502   .     D
O729   S747    1.681   .     S
O730   S748    1.503   .     D
O731   S748    1.503   .     D
O732   S748    1.681   .     S
O733   S749    1.503   .     D
O734   S749    1.503   .     D
O735   S749    1.680   .     S
O736   S750    1.503   .     D
O737   S750    1.503   .     D
O738   Zn752   2.014   .     S
O739   S750    1.682   .     S
O740   Zn751   2.014   .     S
O741   Zn752   2.014   .     S
O742   Zn751   1.999   .     S
O743   Zn752   1.999   .     S
O744   Zn751   1.991   .     S
O745   Zn752   1.991   .     S
O746   S747    1.503   .     D
C753   C771    1.438   .     S
C753   O821    1.285   .     A
C753   O835    1.283   .     A
C754   C770    1.411   .     A
C754   S842    1.790   .     S
C754   C568    1.380   1_655 S
C755   C770    1.410   .     A
C755   S843    1.790   .     S
C755   C598    1.381   1_655 S
C756   C771    1.422   .     A
C756   S844    1.792   .     S
C757   C768    1.390   .     A
C757   C761    1.386   .     A
C757   H814    1.085   .     S
C758   H815    1.084   .     S
C758   C769    1.389   .     A
C758   C762    1.390   .     A
C759   C763    1.385   .     A
C759   C769    1.389   .     A
C759   H816    1.085   .     S
C760   C765    1.388   .     A
C760   H817    1.085   .     S
C760   C768    1.390   .     A
C761   C766    1.418   .     A
C761   C772    1.520   .     S
C762   C774    1.526   .     S
C762   C767    1.422   .     A
C763   C777    1.521   .     S
C763   C767    1.419   .     A
C764   O834    1.280   .     A
C764   O832    1.281   .     A
C764   C770    1.425   .     S
C765   C766    1.418   .     A
C765   C779    1.519   .     S
C766   C775    1.435   .     S
C767   C781    1.437   .     S
C768   C1615   1.434   1_554 S
C769   C1614   1.434   .     S
C771   C786    1.424   .     A
C772   H791    1.112   .     S
C772   H790    1.107   .     S
C772   C773    1.524   .     S
C773   H818    1.105   .     S
C773   H788    1.111   .     S
C773   H789    1.111   .     S
C774   H796    1.111   .     S
C774   H795    1.106   .     S
C774   C776    1.532   .     S
C775   O839    1.285   .     A
C775   O836    1.280   .     A
C776   H794    1.110   .     S
C776   H793    1.111   .     S
C776   H792    1.109   .     S
C777   H802    1.112   .     S
C777   H801    1.108   .     S
C777   C778    1.525   .     S
C778   H797    1.111   .     S
C778   H799    1.110   .     S
C778   H800    1.105   .     S
C779   H806    1.112   .     S
C779   H807    1.108   .     S
C779   C780    1.526   .     S
C780   H803    1.111   .     S
C780   H805    1.111   .     S
C780   H804    1.109   .     S
C781   O837    1.280   .     A
C781   O838    1.285   .     A
C782   H787    1.081   .     S
C782   N820    1.365   .     A
C783   H798    1.080   .     S
C783   N819    1.365   .     A
C783   C220    1.411   1_565 S
C784   N820    1.365   .     A
C784   H809    1.080   .     S
C785   N819    1.366   .     A
C785   H813    1.081   .     S
C785   C218    1.412   1_565 S
C786   S841    1.793   .     S
H808   O823    0.990   .     S
H810   O826    0.990   .     S
H811   O829    0.990   .     S
H812   O833    0.991   .     S
N819   Zn845   2.002   .     S
N820   Zn846   2.002   .     S
O821   Zn845   2.014   .     S
O822   S841    1.502   .     D
O823   S841    1.681   .     S
O824   S842    1.503   .     D
O825   S842    1.503   .     D
O826   S842    1.681   .     S
O827   S843    1.503   .     D
O828   S843    1.503   .     D
O829   S843    1.680   .     S
O830   S844    1.503   .     D
O831   S844    1.503   .     D
O832   Zn846   2.014   .     S
O833   S844    1.682   .     S
O834   Zn845   2.014   .     S
O835   Zn846   2.014   .     S
O836   Zn845   1.999   .     S
O837   Zn846   1.999   .     S
O838   Zn845   1.991   .     S
O839   Zn846   1.991   .     S
O840   S841    1.503   .     D
C847   C865    1.438   .     S
C847   O915    1.285   .     A
C847   O929    1.283   .     A
C848   C864    1.411   .     A
C848   S936    1.790   .     S
C848   C944    1.380   .     S
C849   C864    1.410   .     A
C849   S937    1.790   .     S
C849   C974    1.381   .     S
C850   C865    1.422   .     A
C850   S938    1.792   .     S
C850   C1036   1.380   1_455 S
C851   C862    1.390   .     A
C851   C855    1.386   .     A
C851   H908    1.085   .     S
C852   H909    1.084   .     S
C852   C863    1.389   .     A
C852   C856    1.390   .     A
C853   C857    1.385   .     A
C853   C863    1.389   .     A
C853   H910    1.085   .     S
C854   C859    1.388   .     A
C854   H911    1.085   .     S
C854   C862    1.390   .     A
C855   C860    1.418   .     A
C855   C866    1.520   .     S
C856   C868    1.526   .     S
C856   C861    1.422   .     A
C857   C871    1.521   .     S
C857   C861    1.419   .     A
C858   O928    1.280   .     A
C858   O926    1.281   .     A
C858   C864    1.425   .     S
C859   C860    1.418   .     A
C859   C873    1.519   .     S
C860   C869    1.435   .     S
C861   C875    1.437   .     S
C863   C16     1.434   1_556 S
C865   C880    1.424   .     A
C866   H885    1.112   .     S
C866   H884    1.107   .     S
C866   C867    1.524   .     S
C867   H912    1.105   .     S
C867   H882    1.111   .     S
C867   H883    1.111   .     S
C868   H890    1.111   .     S
C868   H889    1.106   .     S
C868   C870    1.532   .     S
C869   O933    1.285   .     A
C869   O930    1.280   .     A
C870   H888    1.110   .     S
C870   H887    1.111   .     S
C870   H886    1.109   .     S
C871   H896    1.112   .     S
C871   H895    1.108   .     S
C871   C872    1.525   .     S
C872   H891    1.111   .     S
C872   H893    1.110   .     S
C872   H894    1.105   .     S
C873   H900    1.112   .     S
C873   H901    1.108   .     S
C873   C874    1.526   .     S
C874   H897    1.111   .     S
C874   H899    1.111   .     S
C874   H898    1.109   .     S
C875   O931    1.280   .     A
C875   O932    1.285   .     A
C876   H881    1.081   .     S
C876   N914    1.365   .     A
C876   C1443   1.412   1_545 S
C877   H892    1.080   .     S
C877   N913    1.365   .     A
C877   C1160   1.411   .     S
C878   N914    1.365   .     A
C878   H903    1.080   .     S
C878   C1441   1.411   1_545 S
C879   N913    1.366   .     A
C879   H907    1.081   .     S
C879   C1158   1.412   .     S
C880   S935    1.793   .     S
C880   C1037   1.381   1_455 S
H902   O917    0.990   .     S
H904   O920    0.990   .     S
H905   O923    0.990   .     S
H906   O927    0.991   .     S
N913   Zn939   2.002   .     S
N914   Zn940   2.002   .     S
O915   Zn939   2.014   .     S
O916   S935    1.502   .     D
O917   S935    1.681   .     S
O918   S936    1.503   .     D
O919   S936    1.503   .     D
O920   S936    1.681   .     S
O921   S937    1.503   .     D
O922   S937    1.503   .     D
O923   S937    1.680   .     S
O924   S938    1.503   .     D
O925   S938    1.503   .     D
O926   Zn940   2.014   .     S
O927   S938    1.682   .     S
O928   Zn939   2.014   .     S
O929   Zn940   2.014   .     S
O930   Zn939   1.999   .     S
O931   Zn940   1.999   .     S
O932   Zn939   1.991   .     S
O933   Zn940   1.991   .     S
O934   S935    1.503   .     D
C941   C959    1.438   .     S
C941   O1009   1.285   .     A
C941   O1023   1.283   .     A
C942   C958    1.411   .     A
C942   S1030   1.790   .     S
C942   C1038   1.380   .     S
C943   C958    1.410   .     A
C943   S1031   1.790   .     S
C943   C1068   1.381   .     S
C944   C959    1.422   .     A
C944   S1032   1.792   .     S
C945   C956    1.390   .     A
C945   C949    1.386   .     A
C945   H1002   1.085   .     S
C946   H1003   1.084   .     S
C946   C957    1.389   .     A
C946   C950    1.390   .     A
C947   C951    1.385   .     A
C947   C957    1.389   .     A
C947   H1004   1.085   .     S
C948   C953    1.388   .     A
C948   H1005   1.085   .     S
C948   C956    1.390   .     A
C949   C954    1.418   .     A
C949   C960    1.520   .     S
C950   C962    1.526   .     S
C950   C955    1.422   .     A
C951   C965    1.521   .     S
C951   C955    1.419   .     A
C952   O1022   1.280   .     A
C952   O1020   1.281   .     A
C952   C958    1.425   .     S
C953   C954    1.418   .     A
C953   C967    1.519   .     S
C954   C963    1.435   .     S
C955   C969    1.437   .     S
C957   C110    1.434   1_556 S
C959   C974    1.424   .     A
C960   H979    1.112   .     S
C960   H978    1.107   .     S
C960   C961    1.524   .     S
C961   H1006   1.105   .     S
C961   H976    1.111   .     S
C961   H977    1.111   .     S
C962   H984    1.111   .     S
C962   H983    1.106   .     S
C962   C964    1.532   .     S
C963   O1027   1.285   .     A
C963   O1024   1.280   .     A
C964   H982    1.110   .     S
C964   H981    1.111   .     S
C964   H980    1.109   .     S
C965   H990    1.112   .     S
C965   H989    1.108   .     S
C965   C966    1.525   .     S
C966   H985    1.111   .     S
C966   H987    1.110   .     S
C966   H988    1.105   .     S
C967   H994    1.112   .     S
C967   H995    1.108   .     S
C967   C968    1.526   .     S
C968   H991    1.111   .     S
C968   H993    1.111   .     S
C968   H992    1.109   .     S
C969   O1025   1.280   .     A
C969   O1026   1.285   .     A
C970   H975    1.081   .     S
C970   N1008   1.365   .     A
C970   C1537   1.412   1_545 S
C971   H986    1.080   .     S
C971   N1007   1.365   .     A
C971   C1254   1.411   .     S
C972   N1008   1.365   .     A
C972   H997    1.080   .     S
C972   C1535   1.411   1_545 S
C973   N1007   1.366   .     A
C973   H1001   1.081   .     S
C973   C1252   1.412   .     S
C974   S1029   1.793   .     S
H996   O1011   0.990   .     S
H998   O1014   0.990   .     S
H999   O1017   0.990   .     S
H1000  O1021   0.991   .     S
N1007  Zn1033  2.002   .     S
N1008  Zn1034  2.002   .     S
O1009  Zn1033  2.014   .     S
O1010  S1029   1.502   .     D
O1011  S1029   1.681   .     S
O1012  S1030   1.503   .     D
O1013  S1030   1.503   .     D
O1014  S1030   1.681   .     S
O1015  S1031   1.503   .     D
O1016  S1031   1.503   .     D
O1017  S1031   1.680   .     S
O1018  S1032   1.503   .     D
O1019  S1032   1.503   .     D
O1020  Zn1034  2.014   .     S
O1021  S1032   1.682   .     S
O1022  Zn1033  2.014   .     S
O1023  Zn1034  2.014   .     S
O1024  Zn1033  1.999   .     S
O1025  Zn1034  1.999   .     S
O1026  Zn1033  1.991   .     S
O1027  Zn1034  1.991   .     S
O1028  S1029   1.503   .     D
C1035  C1053   1.438   .     S
C1035  O1103   1.285   .     A
C1035  O1117   1.283   .     A
C1036  C1052   1.411   .     A
C1036  S1124   1.790   .     S
C1036  C850    1.380   1_655 S
C1037  C1052   1.410   .     A
C1037  S1125   1.790   .     S
C1037  C880    1.381   1_655 S
C1038  C1053   1.422   .     A
C1038  S1126   1.792   .     S
C1039  C1050   1.390   .     A
C1039  C1043   1.386   .     A
C1039  H1096   1.085   .     S
C1040  H1097   1.084   .     S
C1040  C1051   1.389   .     A
C1040  C1044   1.390   .     A
C1041  C1045   1.385   .     A
C1041  C1051   1.389   .     A
C1041  H1098   1.085   .     S
C1042  C1047   1.388   .     A
C1042  H1099   1.085   .     S
C1042  C1050   1.390   .     A
C1043  C1048   1.418   .     A
C1043  C1054   1.520   .     S
C1044  C1056   1.526   .     S
C1044  C1049   1.422   .     A
C1045  C1059   1.521   .     S
C1045  C1049   1.419   .     A
C1046  O1116   1.280   .     A
C1046  O1114   1.281   .     A
C1046  C1052   1.425   .     S
C1047  C1048   1.418   .     A
C1047  C1061   1.519   .     S
C1048  C1057   1.435   .     S
C1049  C1063   1.437   .     S
C1051  C204    1.434   1_556 S
C1053  C1068   1.424   .     A
C1054  H1073   1.112   .     S
C1054  H1072   1.107   .     S
C1054  C1055   1.524   .     S
C1055  H1100   1.105   .     S
C1055  H1070   1.111   .     S
C1055  H1071   1.111   .     S
C1056  H1078   1.111   .     S
C1056  H1077   1.106   .     S
C1056  C1058   1.532   .     S
C1057  O1121   1.285   .     A
C1057  O1118   1.280   .     A
C1058  H1076   1.110   .     S
C1058  H1075   1.111   .     S
C1058  H1074   1.109   .     S
C1059  H1084   1.112   .     S
C1059  H1083   1.108   .     S
C1059  C1060   1.525   .     S
C1060  H1079   1.111   .     S
C1060  H1081   1.110   .     S
C1060  H1082   1.105   .     S
C1061  H1088   1.112   .     S
C1061  H1089   1.108   .     S
C1061  C1062   1.526   .     S
C1062  H1085   1.111   .     S
C1062  H1087   1.111   .     S
C1062  H1086   1.109   .     S
C1063  O1119   1.280   .     A
C1063  O1120   1.285   .     A
C1064  H1069   1.081   .     S
C1064  N1102   1.365   .     A
C1064  C1631   1.412   1_545 S
C1065  H1080   1.080   .     S
C1065  N1101   1.365   .     A
C1065  C1348   1.411   .     S
C1066  N1102   1.365   .     A
C1066  H1091   1.080   .     S
C1066  C1629   1.411   1_545 S
C1067  N1101   1.366   .     A
C1067  H1095   1.081   .     S
C1067  C1346   1.412   .     S
C1068  S1123   1.793   .     S
H1090  O1105   0.990   .     S
H1092  O1108   0.990   .     S
H1093  O1111   0.990   .     S
H1094  O1115   0.991   .     S
N1101  Zn1127  2.002   .     S
N1102  Zn1128  2.002   .     S
O1103  Zn1127  2.014   .     S
O1104  S1123   1.502   .     D
O1105  S1123   1.681   .     S
O1106  S1124   1.503   .     D
O1107  S1124   1.503   .     D
O1108  S1124   1.681   .     S
O1109  S1125   1.503   .     D
O1110  S1125   1.503   .     D
O1111  S1125   1.680   .     S
O1112  S1126   1.503   .     D
O1113  S1126   1.503   .     D
O1114  Zn1128  2.014   .     S
O1115  S1126   1.682   .     S
O1116  Zn1127  2.014   .     S
O1117  Zn1128  2.014   .     S
O1118  Zn1127  1.999   .     S
O1119  Zn1128  1.999   .     S
O1120  Zn1127  1.991   .     S
O1121  Zn1128  1.991   .     S
O1122  S1123   1.503   .     D
C1129  C1147   1.438   .     S
C1129  O1197   1.285   .     A
C1129  O1211   1.283   .     A
C1130  C1146   1.411   .     A
C1130  S1218   1.790   .     S
C1130  C1226   1.380   .     S
C1131  C1146   1.410   .     A
C1131  S1219   1.790   .     S
C1131  C1256   1.381   .     S
C1132  C1147   1.422   .     A
C1132  S1220   1.792   .     S
C1132  C1318   1.380   1_455 S
C1133  C1144   1.390   .     A
C1133  C1137   1.386   .     A
C1133  H1190   1.085   .     S
C1134  H1191   1.084   .     S
C1134  C1145   1.389   .     A
C1134  C1138   1.390   .     A
C1135  C1139   1.385   .     A
C1135  C1145   1.389   .     A
C1135  H1192   1.085   .     S
C1136  C1141   1.388   .     A
C1136  H1193   1.085   .     S
C1136  C1144   1.390   .     A
C1137  C1142   1.418   .     A
C1137  C1148   1.520   .     S
C1138  C1150   1.526   .     S
C1138  C1143   1.422   .     A
C1139  C1153   1.521   .     S
C1139  C1143   1.419   .     A
C1140  O1210   1.280   .     A
C1140  O1208   1.281   .     A
C1140  C1146   1.425   .     S
C1141  C1142   1.418   .     A
C1141  C1155   1.519   .     S
C1142  C1151   1.435   .     S
C1143  C1157   1.437   .     S
C1145  C298    1.434   1_556 S
C1147  C1162   1.424   .     A
C1148  H1167   1.112   .     S
C1148  H1166   1.107   .     S
C1148  C1149   1.524   .     S
C1149  H1194   1.105   .     S
C1149  H1164   1.111   .     S
C1149  H1165   1.111   .     S
C1150  H1172   1.111   .     S
C1150  H1171   1.106   .     S
C1150  C1152   1.532   .     S
C1151  O1215   1.285   .     A
C1151  O1212   1.280   .     A
C1152  H1170   1.110   .     S
C1152  H1169   1.111   .     S
C1152  H1168   1.109   .     S
C1153  H1178   1.112   .     S
C1153  H1177   1.108   .     S
C1153  C1154   1.525   .     S
C1154  H1173   1.111   .     S
C1154  H1175   1.110   .     S
C1154  H1176   1.105   .     S
C1155  H1182   1.112   .     S
C1155  H1183   1.108   .     S
C1155  C1156   1.526   .     S
C1156  H1179   1.111   .     S
C1156  H1181   1.111   .     S
C1156  H1180   1.109   .     S
C1157  O1213   1.280   .     A
C1157  O1214   1.285   .     A
C1158  H1163   1.081   .     S
C1158  N1196   1.365   .     A
C1159  H1174   1.080   .     S
C1159  N1195   1.365   .     A
C1159  C1442   1.411   .     S
C1160  N1196   1.365   .     A
C1160  H1185   1.080   .     S
C1161  N1195   1.366   .     A
C1161  H1189   1.081   .     S
C1161  C1440   1.412   .     S
C1162  S1217   1.793   .     S
C1162  C1319   1.381   1_455 S
H1184  O1199   0.990   .     S
H1186  O1202   0.990   .     S
H1187  O1205   0.990   .     S
H1188  O1209   0.991   .     S
N1195  Zn1221  2.002   .     S
N1196  Zn1222  2.002   .     S
O1197  Zn1221  2.014   .     S
O1198  S1217   1.502   .     D
O1199  S1217   1.681   .     S
O1200  S1218   1.503   .     D
O1201  S1218   1.503   .     D
O1202  S1218   1.681   .     S
O1203  S1219   1.503   .     D
O1204  S1219   1.503   .     D
O1205  S1219   1.680   .     S
O1206  S1220   1.503   .     D
O1207  S1220   1.503   .     D
O1208  Zn1222  2.014   .     S
O1209  S1220   1.682   .     S
O1210  Zn1221  2.014   .     S
O1211  Zn1222  2.014   .     S
O1212  Zn1221  1.999   .     S
O1213  Zn1222  1.999   .     S
O1214  Zn1221  1.991   .     S
O1215  Zn1222  1.991   .     S
O1216  S1217   1.503   .     D
C1223  C1241   1.438   .     S
C1223  O1291   1.285   .     A
C1223  O1305   1.283   .     A
C1224  C1240   1.411   .     A
C1224  S1312   1.790   .     S
C1224  C1320   1.380   .     S
C1225  C1240   1.410   .     A
C1225  S1313   1.790   .     S
C1225  C1350   1.381   .     S
C1226  C1241   1.422   .     A
C1226  S1314   1.792   .     S
C1227  C1238   1.390   .     A
C1227  C1231   1.386   .     A
C1227  H1284   1.085   .     S
C1228  H1285   1.084   .     S
C1228  C1239   1.389   .     A
C1228  C1232   1.390   .     A
C1229  C1233   1.385   .     A
C1229  C1239   1.389   .     A
C1229  H1286   1.085   .     S
C1230  C1235   1.388   .     A
C1230  H1287   1.085   .     S
C1230  C1238   1.390   .     A
C1231  C1236   1.418   .     A
C1231  C1242   1.520   .     S
C1232  C1244   1.526   .     S
C1232  C1237   1.422   .     A
C1233  C1247   1.521   .     S
C1233  C1237   1.419   .     A
C1234  O1304   1.280   .     A
C1234  O1302   1.281   .     A
C1234  C1240   1.425   .     S
C1235  C1236   1.418   .     A
C1235  C1249   1.519   .     S
C1236  C1245   1.435   .     S
C1237  C1251   1.437   .     S
C1239  C392    1.434   1_556 S
C1241  C1256   1.424   .     A
C1242  H1261   1.112   .     S
C1242  H1260   1.107   .     S
C1242  C1243   1.524   .     S
C1243  H1288   1.105   .     S
C1243  H1258   1.111   .     S
C1243  H1259   1.111   .     S
C1244  H1266   1.111   .     S
C1244  H1265   1.106   .     S
C1244  C1246   1.532   .     S
C1245  O1309   1.285   .     A
C1245  O1306   1.280   .     A
C1246  H1264   1.110   .     S
C1246  H1263   1.111   .     S
C1246  H1262   1.109   .     S
C1247  H1272   1.112   .     S
C1247  H1271   1.108   .     S
C1247  C1248   1.525   .     S
C1248  H1267   1.111   .     S
C1248  H1269   1.110   .     S
C1248  H1270   1.105   .     S
C1249  H1276   1.112   .     S
C1249  H1277   1.108   .     S
C1249  C1250   1.526   .     S
C1250  H1273   1.111   .     S
C1250  H1275   1.111   .     S
C1250  H1274   1.109   .     S
C1251  O1307   1.280   .     A
C1251  O1308   1.285   .     A
C1252  H1257   1.081   .     S
C1252  N1290   1.365   .     A
C1253  H1268   1.080   .     S
C1253  N1289   1.365   .     A
C1253  C1536   1.411   .     S
C1254  N1290   1.365   .     A
C1254  H1279   1.080   .     S
C1255  N1289   1.366   .     A
C1255  H1283   1.081   .     S
C1255  C1534   1.412   .     S
C1256  S1311   1.793   .     S
H1278  O1293   0.990   .     S
H1280  O1296   0.990   .     S
H1281  O1299   0.990   .     S
H1282  O1303   0.991   .     S
N1289  Zn1315  2.002   .     S
N1290  Zn1316  2.002   .     S
O1291  Zn1315  2.014   .     S
O1292  S1311   1.502   .     D
O1293  S1311   1.681   .     S
O1294  S1312   1.503   .     D
O1295  S1312   1.503   .     D
O1296  S1312   1.681   .     S
O1297  S1313   1.503   .     D
O1298  S1313   1.503   .     D
O1299  S1313   1.680   .     S
O1300  S1314   1.503   .     D
O1301  S1314   1.503   .     D
O1302  Zn1316  2.014   .     S
O1303  S1314   1.682   .     S
O1304  Zn1315  2.014   .     S
O1305  Zn1316  2.014   .     S
O1306  Zn1315  1.999   .     S
O1307  Zn1316  1.999   .     S
O1308  Zn1315  1.991   .     S
O1309  Zn1316  1.991   .     S
O1310  S1311   1.503   .     D
C1317  C1335   1.438   .     S
C1317  O1385   1.285   .     A
C1317  O1399   1.283   .     A
C1318  C1334   1.411   .     A
C1318  S1406   1.790   .     S
C1318  C1132   1.380   1_655 S
C1319  C1334   1.410   .     A
C1319  S1407   1.790   .     S
C1319  C1162   1.381   1_655 S
C1320  C1335   1.422   .     A
C1320  S1408   1.792   .     S
C1321  C1332   1.390   .     A
C1321  C1325   1.386   .     A
C1321  H1378   1.085   .     S
C1322  H1379   1.084   .     S
C1322  C1333   1.389   .     A
C1322  C1326   1.390   .     A
C1323  C1327   1.385   .     A
C1323  C1333   1.389   .     A
C1323  H1380   1.085   .     S
C1324  C1329   1.388   .     A
C1324  H1381   1.085   .     S
C1324  C1332   1.390   .     A
C1325  C1330   1.418   .     A
C1325  C1336   1.520   .     S
C1326  C1338   1.526   .     S
C1326  C1331   1.422   .     A
C1327  C1341   1.521   .     S
C1327  C1331   1.419   .     A
C1328  O1398   1.280   .     A
C1328  O1396   1.281   .     A
C1328  C1334   1.425   .     S
C1329  C1330   1.418   .     A
C1329  C1343   1.519   .     S
C1330  C1339   1.435   .     S
C1331  C1345   1.437   .     S
C1333  C486    1.434   1_556 S
C1335  C1350   1.424   .     A
C1336  H1355   1.112   .     S
C1336  H1354   1.107   .     S
C1336  C1337   1.524   .     S
C1337  H1382   1.105   .     S
C1337  H1352   1.111   .     S
C1337  H1353   1.111   .     S
C1338  H1360   1.111   .     S
C1338  H1359   1.106   .     S
C1338  C1340   1.532   .     S
C1339  O1403   1.285   .     A
C1339  O1400   1.280   .     A
C1340  H1358   1.110   .     S
C1340  H1357   1.111   .     S
C1340  H1356   1.109   .     S
C1341  H1366   1.112   .     S
C1341  H1365   1.108   .     S
C1341  C1342   1.525   .     S
C1342  H1361   1.111   .     S
C1342  H1363   1.110   .     S
C1342  H1364   1.105   .     S
C1343  H1370   1.112   .     S
C1343  H1371   1.108   .     S
C1343  C1344   1.526   .     S
C1344  H1367   1.111   .     S
C1344  H1369   1.111   .     S
C1344  H1368   1.109   .     S
C1345  O1401   1.280   .     A
C1345  O1402   1.285   .     A
C1346  H1351   1.081   .     S
C1346  N1384   1.365   .     A
C1347  H1362   1.080   .     S
C1347  N1383   1.365   .     A
C1347  C1630   1.411   .     S
C1348  N1384   1.365   .     A
C1348  H1373   1.080   .     S
C1349  N1383   1.366   .     A
C1349  H1377   1.081   .     S
C1349  C1628   1.412   .     S
C1350  S1405   1.793   .     S
H1372  O1387   0.990   .     S
H1374  O1390   0.990   .     S
H1375  O1393   0.990   .     S
H1376  O1397   0.991   .     S
N1383  Zn1409  2.002   .     S
N1384  Zn1410  2.002   .     S
O1385  Zn1409  2.014   .     S
O1386  S1405   1.502   .     D
O1387  S1405   1.681   .     S
O1388  S1406   1.503   .     D
O1389  S1406   1.503   .     D
O1390  S1406   1.681   .     S
O1391  S1407   1.503   .     D
O1392  S1407   1.503   .     D
O1393  S1407   1.680   .     S
O1394  S1408   1.503   .     D
O1395  S1408   1.503   .     D
O1396  Zn1410  2.014   .     S
O1397  S1408   1.682   .     S
O1398  Zn1409  2.014   .     S
O1399  Zn1410  2.014   .     S
O1400  Zn1409  1.999   .     S
O1401  Zn1410  1.999   .     S
O1402  Zn1409  1.991   .     S
O1403  Zn1410  1.991   .     S
O1404  S1405   1.503   .     D
C1411  C1429   1.438   .     S
C1411  O1479   1.285   .     A
C1411  O1493   1.283   .     A
C1412  C1428   1.411   .     A
C1412  S1500   1.790   .     S
C1412  C1508   1.380   .     S
C1413  C1428   1.410   .     A
C1413  S1501   1.790   .     S
C1413  C1538   1.381   .     S
C1414  C1429   1.422   .     A
C1414  S1502   1.792   .     S
C1414  C1600   1.380   1_455 S
C1415  C1426   1.390   .     A
C1415  C1419   1.386   .     A
C1415  H1472   1.085   .     S
C1416  H1473   1.084   .     S
C1416  C1427   1.389   .     A
C1416  C1420   1.390   .     A
C1417  C1421   1.385   .     A
C1417  C1427   1.389   .     A
C1417  H1474   1.085   .     S
C1418  C1423   1.388   .     A
C1418  H1475   1.085   .     S
C1418  C1426   1.390   .     A
C1419  C1424   1.418   .     A
C1419  C1430   1.520   .     S
C1420  C1432   1.526   .     S
C1420  C1425   1.422   .     A
C1421  C1435   1.521   .     S
C1421  C1425   1.419   .     A
C1422  O1492   1.280   .     A
C1422  O1490   1.281   .     A
C1422  C1428   1.425   .     S
C1423  C1424   1.418   .     A
C1423  C1437   1.519   .     S
C1424  C1433   1.435   .     S
C1425  C1439   1.437   .     S
C1427  C580    1.434   1_556 S
C1429  C1444   1.424   .     A
C1430  H1449   1.112   .     S
C1430  H1448   1.107   .     S
C1430  C1431   1.524   .     S
C1431  H1476   1.105   .     S
C1431  H1446   1.111   .     S
C1431  H1447   1.111   .     S
C1432  H1454   1.111   .     S
C1432  H1453   1.106   .     S
C1432  C1434   1.532   .     S
C1433  O1497   1.285   .     A
C1433  O1494   1.280   .     A
C1434  H1452   1.110   .     S
C1434  H1451   1.111   .     S
C1434  H1450   1.109   .     S
C1435  H1460   1.112   .     S
C1435  H1459   1.108   .     S
C1435  C1436   1.525   .     S
C1436  H1455   1.111   .     S
C1436  H1457   1.110   .     S
C1436  H1458   1.105   .     S
C1437  H1464   1.112   .     S
C1437  H1465   1.108   .     S
C1437  C1438   1.526   .     S
C1438  H1461   1.111   .     S
C1438  H1463   1.111   .     S
C1438  H1462   1.109   .     S
C1439  O1495   1.280   .     A
C1439  O1496   1.285   .     A
C1440  H1445   1.081   .     S
C1440  N1478   1.365   .     A
C1441  H1456   1.080   .     S
C1441  N1477   1.365   .     A
C1441  C878    1.411   1_565 S
C1442  N1478   1.365   .     A
C1442  H1467   1.080   .     S
C1443  N1477   1.366   .     A
C1443  H1471   1.081   .     S
C1443  C876    1.412   1_565 S
C1444  S1499   1.793   .     S
C1444  C1601   1.381   1_455 S
H1466  O1481   0.990   .     S
H1468  O1484   0.990   .     S
H1469  O1487   0.990   .     S
H1470  O1491   0.991   .     S
N1477  Zn1503  2.002   .     S
N1478  Zn1504  2.002   .     S
O1479  Zn1503  2.014   .     S
O1480  S1499   1.502   .     D
O1481  S1499   1.681   .     S
O1482  S1500   1.503   .     D
O1483  S1500   1.503   .     D
O1484  S1500   1.681   .     S
O1485  S1501   1.503   .     D
O1486  S1501   1.503   .     D
O1487  S1501   1.680   .     S
O1488  S1502   1.503   .     D
O1489  S1502   1.503   .     D
O1490  Zn1504  2.014   .     S
O1491  S1502   1.682   .     S
O1492  Zn1503  2.014   .     S
O1493  Zn1504  2.014   .     S
O1494  Zn1503  1.999   .     S
O1495  Zn1504  1.999   .     S
O1496  Zn1503  1.991   .     S
O1497  Zn1504  1.991   .     S
O1498  S1499   1.503   .     D
C1505  C1523   1.438   .     S
C1505  O1573   1.285   .     A
C1505  O1587   1.283   .     A
C1506  C1522   1.411   .     A
C1506  S1594   1.790   .     S
C1506  C1602   1.380   .     S
C1507  C1522   1.410   .     A
C1507  S1595   1.790   .     S
C1507  C1632   1.381   .     S
C1508  C1523   1.422   .     A
C1508  S1596   1.792   .     S
C1509  C1520   1.390   .     A
C1509  C1513   1.386   .     A
C1509  H1566   1.085   .     S
C1510  H1567   1.084   .     S
C1510  C1521   1.389   .     A
C1510  C1514   1.390   .     A
C1511  C1515   1.385   .     A
C1511  C1521   1.389   .     A
C1511  H1568   1.085   .     S
C1512  C1517   1.388   .     A
C1512  H1569   1.085   .     S
C1512  C1520   1.390   .     A
C1513  C1518   1.418   .     A
C1513  C1524   1.520   .     S
C1514  C1526   1.526   .     S
C1514  C1519   1.422   .     A
C1515  C1529   1.521   .     S
C1515  C1519   1.419   .     A
C1516  O1586   1.280   .     A
C1516  O1584   1.281   .     A
C1516  C1522   1.425   .     S
C1517  C1518   1.418   .     A
C1517  C1531   1.519   .     S
C1518  C1527   1.435   .     S
C1519  C1533   1.437   .     S
C1521  C674    1.434   1_556 S
C1523  C1538   1.424   .     A
C1524  H1543   1.112   .     S
C1524  H1542   1.107   .     S
C1524  C1525   1.524   .     S
C1525  H1570   1.105   .     S
C1525  H1540   1.111   .     S
C1525  H1541   1.111   .     S
C1526  H1548   1.111   .     S
C1526  H1547   1.106   .     S
C1526  C1528   1.532   .     S
C1527  O1591   1.285   .     A
C1527  O1588   1.280   .     A
C1528  H1546   1.110   .     S
C1528  H1545   1.111   .     S
C1528  H1544   1.109   .     S
C1529  H1554   1.112   .     S
C1529  H1553   1.108   .     S
C1529  C1530   1.525   .     S
C1530  H1549   1.111   .     S
C1530  H1551   1.110   .     S
C1530  H1552   1.105   .     S
C1531  H1558   1.112   .     S
C1531  H1559   1.108   .     S
C1531  C1532   1.526   .     S
C1532  H1555   1.111   .     S
C1532  H1557   1.111   .     S
C1532  H1556   1.109   .     S
C1533  O1589   1.280   .     A
C1533  O1590   1.285   .     A
C1534  H1539   1.081   .     S
C1534  N1572   1.365   .     A
C1535  H1550   1.080   .     S
C1535  N1571   1.365   .     A
C1535  C972    1.411   1_565 S
C1536  N1572   1.365   .     A
C1536  H1561   1.080   .     S
C1537  N1571   1.366   .     A
C1537  H1565   1.081   .     S
C1537  C970    1.412   1_565 S
C1538  S1593   1.793   .     S
H1560  O1575   0.990   .     S
H1562  O1578   0.990   .     S
H1563  O1581   0.990   .     S
H1564  O1585   0.991   .     S
N1571  Zn1597  2.002   .     S
N1572  Zn1598  2.002   .     S
O1573  Zn1597  2.014   .     S
O1574  S1593   1.502   .     D
O1575  S1593   1.681   .     S
O1576  S1594   1.503   .     D
O1577  S1594   1.503   .     D
O1578  S1594   1.681   .     S
O1579  S1595   1.503   .     D
O1580  S1595   1.503   .     D
O1581  S1595   1.680   .     S
O1582  S1596   1.503   .     D
O1583  S1596   1.503   .     D
O1584  Zn1598  2.014   .     S
O1585  S1596   1.682   .     S
O1586  Zn1597  2.014   .     S
O1587  Zn1598  2.014   .     S
O1588  Zn1597  1.999   .     S
O1589  Zn1598  1.999   .     S
O1590  Zn1597  1.991   .     S
O1591  Zn1598  1.991   .     S
O1592  S1593   1.503   .     D
C1599  C1617   1.438   .     S
C1599  O1667   1.285   .     A
C1599  O1681   1.283   .     A
C1600  C1616   1.411   .     A
C1600  S1688   1.790   .     S
C1600  C1414   1.380   1_655 S
C1601  C1616   1.410   .     A
C1601  S1689   1.790   .     S
C1601  C1444   1.381   1_655 S
C1602  C1617   1.422   .     A
C1602  S1690   1.792   .     S
C1603  C1614   1.390   .     A
C1603  C1607   1.386   .     A
C1603  H1660   1.085   .     S
C1604  H1661   1.084   .     S
C1604  C1615   1.389   .     A
C1604  C1608   1.390   .     A
C1605  C1609   1.385   .     A
C1605  C1615   1.389   .     A
C1605  H1662   1.085   .     S
C1606  C1611   1.388   .     A
C1606  H1663   1.085   .     S
C1606  C1614   1.390   .     A
C1607  C1612   1.418   .     A
C1607  C1618   1.520   .     S
C1608  C1620   1.526   .     S
C1608  C1613   1.422   .     A
C1609  C1623   1.521   .     S
C1609  C1613   1.419   .     A
C1610  O1680   1.280   .     A
C1610  O1678   1.281   .     A
C1610  C1616   1.425   .     S
C1611  C1612   1.418   .     A
C1611  C1625   1.519   .     S
C1612  C1621   1.435   .     S
C1613  C1627   1.437   .     S
C1615  C768    1.434   1_556 S
C1617  C1632   1.424   .     A
C1618  H1637   1.112   .     S
C1618  H1636   1.107   .     S
C1618  C1619   1.524   .     S
C1619  H1664   1.105   .     S
C1619  H1634   1.111   .     S
C1619  H1635   1.111   .     S
C1620  H1642   1.111   .     S
C1620  H1641   1.106   .     S
C1620  C1622   1.532   .     S
C1621  O1685   1.285   .     A
C1621  O1682   1.280   .     A
C1622  H1640   1.110   .     S
C1622  H1639   1.111   .     S
C1622  H1638   1.109   .     S
C1623  H1648   1.112   .     S
C1623  H1647   1.108   .     S
C1623  C1624   1.525   .     S
C1624  H1643   1.111   .     S
C1624  H1645   1.110   .     S
C1624  H1646   1.105   .     S
C1625  H1652   1.112   .     S
C1625  H1653   1.108   .     S
C1625  C1626   1.526   .     S
C1626  H1649   1.111   .     S
C1626  H1651   1.111   .     S
C1626  H1650   1.109   .     S
C1627  O1683   1.280   .     A
C1627  O1684   1.285   .     A
C1628  H1633   1.081   .     S
C1628  N1666   1.365   .     A
C1629  H1644   1.080   .     S
C1629  N1665   1.365   .     A
C1629  C1066   1.411   1_565 S
C1630  N1666   1.365   .     A
C1630  H1655   1.080   .     S
C1631  N1665   1.366   .     A
C1631  H1659   1.081   .     S
C1631  C1064   1.412   1_565 S
C1632  S1687   1.793   .     S
H1654  O1669   0.990   .     S
H1656  O1672   0.990   .     S
H1657  O1675   0.990   .     S
H1658  O1679   0.991   .     S
N1665  Zn1691  2.002   .     S
N1666  Zn1692  2.002   .     S
O1667  Zn1691  2.014   .     S
O1668  S1687   1.502   .     D
O1669  S1687   1.681   .     S
O1670  S1688   1.503   .     D
O1671  S1688   1.503   .     D
O1672  S1688   1.681   .     S
O1673  S1689   1.503   .     D
O1674  S1689   1.503   .     D
O1675  S1689   1.680   .     S
O1676  S1690   1.503   .     D
O1677  S1690   1.503   .     D
O1678  Zn1692  2.014   .     S
O1679  S1690   1.682   .     S
O1680  Zn1691  2.014   .     S
O1681  Zn1692  2.014   .     S
O1682  Zn1691  1.999   .     S
O1683  Zn1692  1.999   .     S
O1684  Zn1691  1.991   .     S
O1685  Zn1692  1.991   .     S
O1686  S1687   1.503   .     D
