data_str_m3_o2_o10_pcu_sym.127
_audit_creation_date              2020-01-03
_audit_creation_method            'Materials Studio'
_symmetry_space_group_name_H-M    'P1'
_symmetry_Int_Tables_number       1
_symmetry_cell_setting            triclinic
loop_
_symmetry_equiv_pos_as_xyz
  x,y,z
_cell_length_a                    25.8684
_cell_length_b                    29.7795
_cell_length_c                    28.5134
_cell_angle_alpha                 89.8733
_cell_angle_beta                  98.2757
_cell_angle_gamma                 91.1466
loop_
_atom_site_label
_atom_site_type_symbol
_atom_site_fract_x
_atom_site_fract_y
_atom_site_fract_z
_atom_site_U_iso_or_equiv
_atom_site_adp_type
_atom_site_occupancy
C1     C     0.17176   0.16389   0.25078   0.00000  Uiso   1.00
C2     C     0.16158   0.33611   0.24922   0.00000  Uiso   1.00
C3     C     0.14052   0.21465   0.05016   0.00000  Uiso   1.00
C4     C     0.19281   0.28535   0.44984   0.00000  Uiso   1.00
C5     C     0.13629   0.21931   0.09885   0.00000  Uiso   1.00
C6     C     0.19705   0.28069   0.40115   0.00000  Uiso   1.00
C7     C     0.20240   0.27566   0.10702   0.00000  Uiso   1.00
C8     C     0.13093   0.22434   0.39298   0.00000  Uiso   1.00
C9     C     0.20623   0.27289   0.05848   0.00000  Uiso   1.00
C10    C     0.12711   0.22711   0.44152   0.00000  Uiso   1.00
C11    C     0.16916   0.24745   0.02724   0.00000  Uiso   1.00
C12    C     0.16417   0.25255   0.47276   0.00000  Uiso   1.00
C13    C     0.06724   0.24976   0.23777   0.00000  Uiso   1.00
C14    C     0.26609   0.25024   0.26223   0.00000  Uiso   1.00
C15    C     0.01258   0.24674   0.23137   0.00000  Uiso   1.00
C16    C     0.32075   0.25326   0.26863   0.00000  Uiso   1.00
C17    C     0.19198   0.04530   0.29592   0.00000  Uiso   1.00
C18    C     0.14135   0.45470   0.20408   0.00000  Uiso   1.00
C19    C     0.19137   0.09228   0.29662   0.00000  Uiso   1.00
C20    C     0.14196   0.40772   0.20338   0.00000  Uiso   1.00
C21    C     0.18399   0.11582   0.25282   0.00000  Uiso   1.00
C22    C     0.14934   0.38418   0.24718   0.00000  Uiso   1.00
C23    C     0.19281   0.09241   0.21160   0.00000  Uiso   1.00
C24    C     0.14053   0.40759   0.28840   0.00000  Uiso   1.00
C25    C     0.19222   0.04581   0.21223   0.00000  Uiso   1.00
C26    C     0.14111   0.45419   0.28777   0.00000  Uiso   1.00
C27    C     0.17885   0.02302   0.25207   0.00000  Uiso   1.00
C28    C     0.15449   0.47698   0.24794   0.00000  Uiso   1.00
N29    N     0.16667   0.24999   0.12624   0.00000  Uiso   1.00
N30    N     0.16667   0.25001   0.37377   0.00000  Uiso   1.00
O31    O     0.16667   0.18453   0.28974   0.00000  Uiso   1.00
O32    O     0.16666   0.31546   0.21026   0.00000  Uiso   1.00
O33    O     0.16667   0.18453   0.21026   0.00000  Uiso   1.00
O34    O     0.16666   0.31547   0.28974   0.00000  Uiso   1.00
O35    O     0.09058   0.25000   0.28045   0.00000  Uiso   1.00
O36    O     0.24275   0.25000   0.21956   0.00000  Uiso   1.00
O37    O     0.09058   0.24999   0.20097   0.00000  Uiso   1.00
O38    O     0.24275   0.25000   0.29904   0.00000  Uiso   1.00
Zn39   Zn    0.16667   0.25000   0.30307   0.00000  Uiso   1.00
Zn40   Zn    0.16667   0.24999   0.19693   0.00000  Uiso   1.00
F41    F     0.32159   0.23487   0.18734   0.00000  Uiso   1.00
F42    F     0.01174   0.26513   0.31266   0.00000  Uiso   1.00
C43    C     0.21472   0.02123   0.33801   0.00000  Uiso   1.00
N44    N     0.23306   0.00216   0.37155   0.00000  Uiso   1.00
C45    C     0.11861   0.47877   0.16199   0.00000  Uiso   1.00
N46    N     0.10027   0.49784   0.12845   0.00000  Uiso   1.00
C47    C     0.20108   0.11517   0.34206   0.00000  Uiso   1.00
N48    N     0.20900   0.13322   0.37838   0.00000  Uiso   1.00
C49    C     0.13225   0.38483   0.15794   0.00000  Uiso   1.00
N50    N     0.12433   0.36678   0.12162   0.00000  Uiso   1.00
C51    C     0.20482   0.11460   0.16915   0.00000  Uiso   1.00
N52    N     0.21468   0.13215   0.13519   0.00000  Uiso   1.00
C53    C     0.12851   0.38540   0.33085   0.00000  Uiso   1.00
N54    N     0.11865   0.36785   0.36481   0.00000  Uiso   1.00
F55    F     0.20799   0.02321   0.17557   0.00000  Uiso   1.00
F56    F     0.12534   0.47679   0.32443   0.00000  Uiso   1.00
C57    C     0.12760   0.17086   0.02910   0.00000  Uiso   1.00
N58    N     0.11756   0.13566   0.01271   0.00000  Uiso   1.00
C59    C     0.20573   0.32914   0.47090   0.00000  Uiso   1.00
N60    N     0.21578   0.36433   0.48729   0.00000  Uiso   1.00
C61    C     0.10129   0.19001   0.12045   0.00000  Uiso   1.00
N62    N     0.07306   0.16641   0.13738   0.00000  Uiso   1.00
C63    C     0.23204   0.30999   0.37955   0.00000  Uiso   1.00
N64    N     0.26027   0.33359   0.36262   0.00000  Uiso   1.00
C65    C     0.23769   0.30531   0.13656   0.00000  Uiso   1.00
N66    N     0.26609   0.32937   0.16001   0.00000  Uiso   1.00
C67    C     0.09564   0.19469   0.36344   0.00000  Uiso   1.00
N68    N     0.06724   0.17063   0.33999   0.00000  Uiso   1.00
F69    F     0.25092   0.28903   0.04438   0.00000  Uiso   1.00
F70    F     0.08241   0.21097   0.45562   0.00000  Uiso   1.00
C71    C     0.50509   0.16389   0.25078   0.00000  Uiso   1.00
C72    C     0.49491   0.33611   0.24922   0.00000  Uiso   1.00
C73    C     0.47386   0.21465   0.05016   0.00000  Uiso   1.00
C74    C     0.52614   0.28535   0.44984   0.00000  Uiso   1.00
C75    C     0.46962   0.21931   0.09885   0.00000  Uiso   1.00
C76    C     0.53038   0.28069   0.40115   0.00000  Uiso   1.00
C77    C     0.53573   0.27566   0.10702   0.00000  Uiso   1.00
C78    C     0.46427   0.22434   0.39298   0.00000  Uiso   1.00
C79    C     0.53956   0.27289   0.05848   0.00000  Uiso   1.00
C80    C     0.46044   0.22711   0.44152   0.00000  Uiso   1.00
C81    C     0.50250   0.24745   0.02724   0.00000  Uiso   1.00
C82    C     0.49751   0.25255   0.47276   0.00000  Uiso   1.00
C83    C     0.40057   0.24976   0.23777   0.00000  Uiso   1.00
C84    C     0.59943   0.25024   0.26223   0.00000  Uiso   1.00
C85    C     0.34591   0.24674   0.23137   0.00000  Uiso   1.00
C86    C     0.65409   0.25326   0.26863   0.00000  Uiso   1.00
C87    C     0.52532   0.04530   0.29592   0.00000  Uiso   1.00
C88    C     0.47468   0.45470   0.20408   0.00000  Uiso   1.00
C89    C     0.52470   0.09228   0.29662   0.00000  Uiso   1.00
C90    C     0.47530   0.40772   0.20338   0.00000  Uiso   1.00
C91    C     0.51732   0.11582   0.25282   0.00000  Uiso   1.00
C92    C     0.48267   0.38418   0.24718   0.00000  Uiso   1.00
C93    C     0.52614   0.09241   0.21160   0.00000  Uiso   1.00
C94    C     0.47386   0.40759   0.28840   0.00000  Uiso   1.00
C95    C     0.52556   0.04581   0.21223   0.00000  Uiso   1.00
C96    C     0.47444   0.45419   0.28777   0.00000  Uiso   1.00
C97    C     0.51218   0.02302   0.25207   0.00000  Uiso   1.00
C98    C     0.48782   0.47698   0.24794   0.00000  Uiso   1.00
N99    N     0.50000   0.24999   0.12624   0.00000  Uiso   1.00
N100   N     0.50000   0.25001   0.37377   0.00000  Uiso   1.00
O101   O     0.50000   0.18453   0.28974   0.00000  Uiso   1.00
O102   O     0.50000   0.31546   0.21026   0.00000  Uiso   1.00
O103   O     0.50000   0.18453   0.21026   0.00000  Uiso   1.00
O104   O     0.50000   0.31547   0.28974   0.00000  Uiso   1.00
O105   O     0.42392   0.25000   0.28045   0.00000  Uiso   1.00
O106   O     0.57608   0.25000   0.21956   0.00000  Uiso   1.00
O107   O     0.42392   0.24999   0.20097   0.00000  Uiso   1.00
O108   O     0.57608   0.25000   0.29904   0.00000  Uiso   1.00
Zn109  Zn    0.50000   0.25000   0.30307   0.00000  Uiso   1.00
Zn110  Zn    0.50000   0.24999   0.19693   0.00000  Uiso   1.00
F111   F     0.65493   0.23487   0.18734   0.00000  Uiso   1.00
F112   F     0.34507   0.26513   0.31266   0.00000  Uiso   1.00
C113   C     0.54805   0.02123   0.33801   0.00000  Uiso   1.00
N114   N     0.56640   0.00216   0.37155   0.00000  Uiso   1.00
C115   C     0.45194   0.47877   0.16199   0.00000  Uiso   1.00
N116   N     0.43360   0.49784   0.12845   0.00000  Uiso   1.00
C117   C     0.53442   0.11517   0.34206   0.00000  Uiso   1.00
N118   N     0.54233   0.13322   0.37838   0.00000  Uiso   1.00
C119   C     0.46558   0.38483   0.15794   0.00000  Uiso   1.00
N120   N     0.45767   0.36678   0.12162   0.00000  Uiso   1.00
C121   C     0.53815   0.11460   0.16915   0.00000  Uiso   1.00
N122   N     0.54801   0.13215   0.13519   0.00000  Uiso   1.00
C123   C     0.46185   0.38540   0.33085   0.00000  Uiso   1.00
N124   N     0.45199   0.36785   0.36481   0.00000  Uiso   1.00
F125   F     0.54132   0.02321   0.17557   0.00000  Uiso   1.00
F126   F     0.45868   0.47679   0.32443   0.00000  Uiso   1.00
C127   C     0.46093   0.17086   0.02910   0.00000  Uiso   1.00
N128   N     0.45089   0.13566   0.01271   0.00000  Uiso   1.00
C129   C     0.53907   0.32914   0.47090   0.00000  Uiso   1.00
N130   N     0.54911   0.36433   0.48729   0.00000  Uiso   1.00
C131   C     0.43463   0.19001   0.12045   0.00000  Uiso   1.00
N132   N     0.40640   0.16641   0.13738   0.00000  Uiso   1.00
C133   C     0.56537   0.30999   0.37955   0.00000  Uiso   1.00
N134   N     0.59360   0.33359   0.36262   0.00000  Uiso   1.00
C135   C     0.57102   0.30531   0.13656   0.00000  Uiso   1.00
N136   N     0.59943   0.32937   0.16001   0.00000  Uiso   1.00
C137   C     0.42898   0.19469   0.36344   0.00000  Uiso   1.00
N138   N     0.40057   0.17063   0.33999   0.00000  Uiso   1.00
F139   F     0.58426   0.28903   0.04438   0.00000  Uiso   1.00
F140   F     0.41574   0.21097   0.45562   0.00000  Uiso   1.00
C141   C     0.83842   0.16389   0.25078   0.00000  Uiso   1.00
C142   C     0.82824   0.33611   0.24922   0.00000  Uiso   1.00
C143   C     0.80719   0.21465   0.05016   0.00000  Uiso   1.00
C144   C     0.85948   0.28535   0.44984   0.00000  Uiso   1.00
C145   C     0.80295   0.21931   0.09885   0.00000  Uiso   1.00
C146   C     0.86371   0.28069   0.40115   0.00000  Uiso   1.00
C147   C     0.86907   0.27566   0.10702   0.00000  Uiso   1.00
C148   C     0.79760   0.22434   0.39298   0.00000  Uiso   1.00
C149   C     0.87289   0.27289   0.05848   0.00000  Uiso   1.00
C150   C     0.79377   0.22711   0.44152   0.00000  Uiso   1.00
C151   C     0.83583   0.24745   0.02724   0.00000  Uiso   1.00
C152   C     0.83084   0.25255   0.47276   0.00000  Uiso   1.00
C153   C     0.73391   0.24976   0.23777   0.00000  Uiso   1.00
C154   C     0.93276   0.25024   0.26223   0.00000  Uiso   1.00
C155   C     0.67925   0.24674   0.23137   0.00000  Uiso   1.00
C156   C     0.98742   0.25326   0.26863   0.00000  Uiso   1.00
C157   C     0.85865   0.04530   0.29592   0.00000  Uiso   1.00
C158   C     0.80802   0.45470   0.20408   0.00000  Uiso   1.00
C159   C     0.85803   0.09228   0.29662   0.00000  Uiso   1.00
C160   C     0.80863   0.40772   0.20338   0.00000  Uiso   1.00
C161   C     0.85066   0.11582   0.25282   0.00000  Uiso   1.00
C162   C     0.81601   0.38418   0.24718   0.00000  Uiso   1.00
C163   C     0.85947   0.09241   0.21160   0.00000  Uiso   1.00
C164   C     0.80719   0.40759   0.28840   0.00000  Uiso   1.00
C165   C     0.85889   0.04581   0.21223   0.00000  Uiso   1.00
C166   C     0.80777   0.45419   0.28777   0.00000  Uiso   1.00
C167   C     0.84551   0.02302   0.25207   0.00000  Uiso   1.00
C168   C     0.82115   0.47698   0.24794   0.00000  Uiso   1.00
N169   N     0.83333   0.24999   0.12624   0.00000  Uiso   1.00
N170   N     0.83333   0.25001   0.37377   0.00000  Uiso   1.00
O171   O     0.83334   0.18453   0.28974   0.00000  Uiso   1.00
O172   O     0.83333   0.31546   0.21026   0.00000  Uiso   1.00
O173   O     0.83334   0.18453   0.21026   0.00000  Uiso   1.00
O174   O     0.83333   0.31547   0.28974   0.00000  Uiso   1.00
O175   O     0.75725   0.25000   0.28045   0.00000  Uiso   1.00
O176   O     0.90942   0.25000   0.21956   0.00000  Uiso   1.00
O177   O     0.75725   0.24999   0.20097   0.00000  Uiso   1.00
O178   O     0.90942   0.25000   0.29904   0.00000  Uiso   1.00
Zn179  Zn    0.83333   0.25000   0.30307   0.00000  Uiso   1.00
Zn180  Zn    0.83333   0.24999   0.19693   0.00000  Uiso   1.00
F181   F     0.98826   0.23487   0.18734   0.00000  Uiso   1.00
F182   F     0.67841   0.26513   0.31266   0.00000  Uiso   1.00
C183   C     0.88139   0.02123   0.33801   0.00000  Uiso   1.00
N184   N     0.89973   0.00216   0.37155   0.00000  Uiso   1.00
C185   C     0.78528   0.47877   0.16199   0.00000  Uiso   1.00
N186   N     0.76694   0.49784   0.12845   0.00000  Uiso   1.00
C187   C     0.86775   0.11517   0.34206   0.00000  Uiso   1.00
N188   N     0.87567   0.13322   0.37838   0.00000  Uiso   1.00
C189   C     0.79892   0.38483   0.15794   0.00000  Uiso   1.00
N190   N     0.79100   0.36678   0.12162   0.00000  Uiso   1.00
C191   C     0.87149   0.11460   0.16915   0.00000  Uiso   1.00
N192   N     0.88135   0.13215   0.13519   0.00000  Uiso   1.00
C193   C     0.79518   0.38540   0.33085   0.00000  Uiso   1.00
N194   N     0.78532   0.36785   0.36481   0.00000  Uiso   1.00
F195   F     0.87466   0.02321   0.17557   0.00000  Uiso   1.00
F196   F     0.79201   0.47679   0.32443   0.00000  Uiso   1.00
C197   C     0.79427   0.17086   0.02910   0.00000  Uiso   1.00
N198   N     0.78422   0.13566   0.01271   0.00000  Uiso   1.00
C199   C     0.87240   0.32914   0.47090   0.00000  Uiso   1.00
N200   N     0.88244   0.36433   0.48729   0.00000  Uiso   1.00
C201   C     0.76796   0.19001   0.12045   0.00000  Uiso   1.00
N202   N     0.73973   0.16641   0.13738   0.00000  Uiso   1.00
C203   C     0.89871   0.30999   0.37955   0.00000  Uiso   1.00
N204   N     0.92694   0.33359   0.36262   0.00000  Uiso   1.00
C205   C     0.90436   0.30531   0.13656   0.00000  Uiso   1.00
N206   N     0.93276   0.32937   0.16001   0.00000  Uiso   1.00
C207   C     0.76231   0.19469   0.36344   0.00000  Uiso   1.00
N208   N     0.73391   0.17063   0.33999   0.00000  Uiso   1.00
F209   F     0.91759   0.28903   0.04438   0.00000  Uiso   1.00
F210   F     0.74908   0.21097   0.45562   0.00000  Uiso   1.00
C211   C     0.17176   0.66389   0.25078   0.00000  Uiso   1.00
C212   C     0.16158   0.83611   0.24922   0.00000  Uiso   1.00
C213   C     0.14052   0.71465   0.05016   0.00000  Uiso   1.00
C214   C     0.19281   0.78535   0.44984   0.00000  Uiso   1.00
C215   C     0.13629   0.71931   0.09885   0.00000  Uiso   1.00
C216   C     0.19705   0.78069   0.40115   0.00000  Uiso   1.00
C217   C     0.20240   0.77566   0.10702   0.00000  Uiso   1.00
C218   C     0.13093   0.72434   0.39298   0.00000  Uiso   1.00
C219   C     0.20623   0.77289   0.05848   0.00000  Uiso   1.00
C220   C     0.12711   0.72711   0.44152   0.00000  Uiso   1.00
C221   C     0.16916   0.74745   0.02724   0.00000  Uiso   1.00
C222   C     0.16417   0.75255   0.47276   0.00000  Uiso   1.00
C223   C     0.06724   0.74976   0.23777   0.00000  Uiso   1.00
C224   C     0.26609   0.75024   0.26223   0.00000  Uiso   1.00
C225   C     0.01258   0.74674   0.23137   0.00000  Uiso   1.00
C226   C     0.32075   0.75326   0.26863   0.00000  Uiso   1.00
C227   C     0.19198   0.54530   0.29592   0.00000  Uiso   1.00
C228   C     0.14135   0.95470   0.20408   0.00000  Uiso   1.00
C229   C     0.19137   0.59228   0.29662   0.00000  Uiso   1.00
C230   C     0.14196   0.90772   0.20338   0.00000  Uiso   1.00
C231   C     0.18399   0.61582   0.25282   0.00000  Uiso   1.00
C232   C     0.14934   0.88418   0.24718   0.00000  Uiso   1.00
C233   C     0.19281   0.59241   0.21160   0.00000  Uiso   1.00
C234   C     0.14053   0.90759   0.28840   0.00000  Uiso   1.00
C235   C     0.19222   0.54581   0.21223   0.00000  Uiso   1.00
C236   C     0.14111   0.95419   0.28777   0.00000  Uiso   1.00
C237   C     0.17885   0.52302   0.25207   0.00000  Uiso   1.00
C238   C     0.15449   0.97698   0.24794   0.00000  Uiso   1.00
N239   N     0.16667   0.74999   0.12624   0.00000  Uiso   1.00
N240   N     0.16667   0.75001   0.37377   0.00000  Uiso   1.00
O241   O     0.16667   0.68453   0.28974   0.00000  Uiso   1.00
O242   O     0.16666   0.81546   0.21026   0.00000  Uiso   1.00
O243   O     0.16667   0.68453   0.21026   0.00000  Uiso   1.00
O244   O     0.16666   0.81547   0.28974   0.00000  Uiso   1.00
O245   O     0.09058   0.75000   0.28045   0.00000  Uiso   1.00
O246   O     0.24275   0.75000   0.21956   0.00000  Uiso   1.00
O247   O     0.09058   0.74999   0.20097   0.00000  Uiso   1.00
O248   O     0.24275   0.75000   0.29904   0.00000  Uiso   1.00
Zn249  Zn    0.16667   0.75000   0.30307   0.00000  Uiso   1.00
Zn250  Zn    0.16667   0.74999   0.19693   0.00000  Uiso   1.00
F251   F     0.32159   0.73487   0.18734   0.00000  Uiso   1.00
F252   F     0.01174   0.76513   0.31266   0.00000  Uiso   1.00
C253   C     0.21472   0.52123   0.33801   0.00000  Uiso   1.00
N254   N     0.23306   0.50216   0.37155   0.00000  Uiso   1.00
C255   C     0.11861   0.97877   0.16199   0.00000  Uiso   1.00
N256   N     0.10027   0.99784   0.12845   0.00000  Uiso   1.00
C257   C     0.20108   0.61517   0.34206   0.00000  Uiso   1.00
N258   N     0.20900   0.63322   0.37838   0.00000  Uiso   1.00
C259   C     0.13225   0.88483   0.15794   0.00000  Uiso   1.00
N260   N     0.12433   0.86678   0.12162   0.00000  Uiso   1.00
C261   C     0.20482   0.61460   0.16915   0.00000  Uiso   1.00
N262   N     0.21468   0.63215   0.13519   0.00000  Uiso   1.00
C263   C     0.12851   0.88540   0.33085   0.00000  Uiso   1.00
N264   N     0.11865   0.86785   0.36481   0.00000  Uiso   1.00
F265   F     0.20799   0.52321   0.17557   0.00000  Uiso   1.00
F266   F     0.12534   0.97679   0.32443   0.00000  Uiso   1.00
C267   C     0.12760   0.67086   0.02910   0.00000  Uiso   1.00
N268   N     0.11756   0.63566   0.01271   0.00000  Uiso   1.00
C269   C     0.20573   0.82914   0.47090   0.00000  Uiso   1.00
N270   N     0.21578   0.86433   0.48729   0.00000  Uiso   1.00
C271   C     0.10129   0.69001   0.12045   0.00000  Uiso   1.00
N272   N     0.07306   0.66641   0.13738   0.00000  Uiso   1.00
C273   C     0.23204   0.80999   0.37955   0.00000  Uiso   1.00
N274   N     0.26027   0.83359   0.36262   0.00000  Uiso   1.00
C275   C     0.23769   0.80531   0.13656   0.00000  Uiso   1.00
N276   N     0.26609   0.82937   0.16001   0.00000  Uiso   1.00
C277   C     0.09564   0.69469   0.36344   0.00000  Uiso   1.00
N278   N     0.06724   0.67063   0.33999   0.00000  Uiso   1.00
F279   F     0.25092   0.78903   0.04438   0.00000  Uiso   1.00
F280   F     0.08241   0.71097   0.45562   0.00000  Uiso   1.00
C281   C     0.50509   0.66389   0.25078   0.00000  Uiso   1.00
C282   C     0.49491   0.83611   0.24922   0.00000  Uiso   1.00
C283   C     0.47386   0.71465   0.05016   0.00000  Uiso   1.00
C284   C     0.52614   0.78535   0.44984   0.00000  Uiso   1.00
C285   C     0.46962   0.71931   0.09885   0.00000  Uiso   1.00
C286   C     0.53038   0.78069   0.40115   0.00000  Uiso   1.00
C287   C     0.53573   0.77566   0.10702   0.00000  Uiso   1.00
C288   C     0.46427   0.72434   0.39298   0.00000  Uiso   1.00
C289   C     0.53956   0.77289   0.05848   0.00000  Uiso   1.00
C290   C     0.46044   0.72711   0.44152   0.00000  Uiso   1.00
C291   C     0.50250   0.74745   0.02724   0.00000  Uiso   1.00
C292   C     0.49751   0.75255   0.47276   0.00000  Uiso   1.00
C293   C     0.40057   0.74976   0.23777   0.00000  Uiso   1.00
C294   C     0.59943   0.75024   0.26223   0.00000  Uiso   1.00
C295   C     0.34591   0.74674   0.23137   0.00000  Uiso   1.00
C296   C     0.65409   0.75326   0.26863   0.00000  Uiso   1.00
C297   C     0.52532   0.54530   0.29592   0.00000  Uiso   1.00
C298   C     0.47468   0.95470   0.20408   0.00000  Uiso   1.00
C299   C     0.52470   0.59228   0.29662   0.00000  Uiso   1.00
C300   C     0.47530   0.90772   0.20338   0.00000  Uiso   1.00
C301   C     0.51732   0.61582   0.25282   0.00000  Uiso   1.00
C302   C     0.48267   0.88418   0.24718   0.00000  Uiso   1.00
C303   C     0.52614   0.59241   0.21160   0.00000  Uiso   1.00
C304   C     0.47386   0.90759   0.28840   0.00000  Uiso   1.00
C305   C     0.52556   0.54581   0.21223   0.00000  Uiso   1.00
C306   C     0.47444   0.95419   0.28777   0.00000  Uiso   1.00
C307   C     0.51218   0.52302   0.25207   0.00000  Uiso   1.00
C308   C     0.48782   0.97698   0.24794   0.00000  Uiso   1.00
N309   N     0.50000   0.74999   0.12624   0.00000  Uiso   1.00
N310   N     0.50000   0.75001   0.37377   0.00000  Uiso   1.00
O311   O     0.50000   0.68453   0.28974   0.00000  Uiso   1.00
O312   O     0.50000   0.81546   0.21026   0.00000  Uiso   1.00
O313   O     0.50000   0.68453   0.21026   0.00000  Uiso   1.00
O314   O     0.50000   0.81547   0.28974   0.00000  Uiso   1.00
O315   O     0.42392   0.75000   0.28045   0.00000  Uiso   1.00
O316   O     0.57608   0.75000   0.21956   0.00000  Uiso   1.00
O317   O     0.42392   0.74999   0.20097   0.00000  Uiso   1.00
O318   O     0.57608   0.75000   0.29904   0.00000  Uiso   1.00
Zn319  Zn    0.50000   0.75000   0.30307   0.00000  Uiso   1.00
Zn320  Zn    0.50000   0.74999   0.19693   0.00000  Uiso   1.00
F321   F     0.65493   0.73487   0.18734   0.00000  Uiso   1.00
F322   F     0.34507   0.76513   0.31266   0.00000  Uiso   1.00
C323   C     0.54805   0.52123   0.33801   0.00000  Uiso   1.00
N324   N     0.56640   0.50216   0.37155   0.00000  Uiso   1.00
C325   C     0.45194   0.97877   0.16199   0.00000  Uiso   1.00
N326   N     0.43360   0.99784   0.12845   0.00000  Uiso   1.00
C327   C     0.53442   0.61517   0.34206   0.00000  Uiso   1.00
N328   N     0.54233   0.63322   0.37838   0.00000  Uiso   1.00
C329   C     0.46558   0.88483   0.15794   0.00000  Uiso   1.00
N330   N     0.45767   0.86678   0.12162   0.00000  Uiso   1.00
C331   C     0.53815   0.61460   0.16915   0.00000  Uiso   1.00
N332   N     0.54801   0.63215   0.13519   0.00000  Uiso   1.00
C333   C     0.46185   0.88540   0.33085   0.00000  Uiso   1.00
N334   N     0.45199   0.86785   0.36481   0.00000  Uiso   1.00
F335   F     0.54132   0.52321   0.17557   0.00000  Uiso   1.00
F336   F     0.45868   0.97679   0.32443   0.00000  Uiso   1.00
C337   C     0.46093   0.67086   0.02910   0.00000  Uiso   1.00
N338   N     0.45089   0.63566   0.01271   0.00000  Uiso   1.00
C339   C     0.53907   0.82914   0.47090   0.00000  Uiso   1.00
N340   N     0.54911   0.86433   0.48729   0.00000  Uiso   1.00
C341   C     0.43463   0.69001   0.12045   0.00000  Uiso   1.00
N342   N     0.40640   0.66641   0.13738   0.00000  Uiso   1.00
C343   C     0.56537   0.80999   0.37955   0.00000  Uiso   1.00
N344   N     0.59360   0.83359   0.36262   0.00000  Uiso   1.00
C345   C     0.57102   0.80531   0.13656   0.00000  Uiso   1.00
N346   N     0.59943   0.82937   0.16001   0.00000  Uiso   1.00
C347   C     0.42898   0.69469   0.36344   0.00000  Uiso   1.00
N348   N     0.40057   0.67063   0.33999   0.00000  Uiso   1.00
F349   F     0.58426   0.78903   0.04438   0.00000  Uiso   1.00
F350   F     0.41574   0.71097   0.45562   0.00000  Uiso   1.00
C351   C     0.83842   0.66389   0.25078   0.00000  Uiso   1.00
C352   C     0.82824   0.83611   0.24922   0.00000  Uiso   1.00
C353   C     0.80719   0.71465   0.05016   0.00000  Uiso   1.00
C354   C     0.85948   0.78535   0.44984   0.00000  Uiso   1.00
C355   C     0.80295   0.71931   0.09885   0.00000  Uiso   1.00
C356   C     0.86371   0.78069   0.40115   0.00000  Uiso   1.00
C357   C     0.86907   0.77566   0.10702   0.00000  Uiso   1.00
C358   C     0.79760   0.72434   0.39298   0.00000  Uiso   1.00
C359   C     0.87289   0.77289   0.05848   0.00000  Uiso   1.00
C360   C     0.79377   0.72711   0.44152   0.00000  Uiso   1.00
C361   C     0.83583   0.74745   0.02724   0.00000  Uiso   1.00
C362   C     0.83084   0.75255   0.47276   0.00000  Uiso   1.00
C363   C     0.73391   0.74976   0.23777   0.00000  Uiso   1.00
C364   C     0.93276   0.75024   0.26223   0.00000  Uiso   1.00
C365   C     0.67925   0.74674   0.23137   0.00000  Uiso   1.00
C366   C     0.98742   0.75326   0.26863   0.00000  Uiso   1.00
C367   C     0.85865   0.54530   0.29592   0.00000  Uiso   1.00
C368   C     0.80802   0.95470   0.20408   0.00000  Uiso   1.00
C369   C     0.85803   0.59228   0.29662   0.00000  Uiso   1.00
C370   C     0.80863   0.90772   0.20338   0.00000  Uiso   1.00
C371   C     0.85066   0.61582   0.25282   0.00000  Uiso   1.00
C372   C     0.81601   0.88418   0.24718   0.00000  Uiso   1.00
C373   C     0.85947   0.59241   0.21160   0.00000  Uiso   1.00
C374   C     0.80719   0.90759   0.28840   0.00000  Uiso   1.00
C375   C     0.85889   0.54581   0.21223   0.00000  Uiso   1.00
C376   C     0.80777   0.95419   0.28777   0.00000  Uiso   1.00
C377   C     0.84551   0.52302   0.25207   0.00000  Uiso   1.00
C378   C     0.82115   0.97698   0.24794   0.00000  Uiso   1.00
N379   N     0.83333   0.74999   0.12624   0.00000  Uiso   1.00
N380   N     0.83333   0.75001   0.37377   0.00000  Uiso   1.00
O381   O     0.83334   0.68453   0.28974   0.00000  Uiso   1.00
O382   O     0.83333   0.81546   0.21026   0.00000  Uiso   1.00
O383   O     0.83334   0.68453   0.21026   0.00000  Uiso   1.00
O384   O     0.83333   0.81547   0.28974   0.00000  Uiso   1.00
O385   O     0.75725   0.75000   0.28045   0.00000  Uiso   1.00
O386   O     0.90942   0.75000   0.21956   0.00000  Uiso   1.00
O387   O     0.75725   0.74999   0.20097   0.00000  Uiso   1.00
O388   O     0.90942   0.75000   0.29904   0.00000  Uiso   1.00
Zn389  Zn    0.83333   0.75000   0.30307   0.00000  Uiso   1.00
Zn390  Zn    0.83333   0.74999   0.19693   0.00000  Uiso   1.00
F391   F     0.98826   0.73487   0.18734   0.00000  Uiso   1.00
F392   F     0.67841   0.76513   0.31266   0.00000  Uiso   1.00
C393   C     0.88139   0.52123   0.33801   0.00000  Uiso   1.00
N394   N     0.89973   0.50216   0.37155   0.00000  Uiso   1.00
C395   C     0.78528   0.97877   0.16199   0.00000  Uiso   1.00
N396   N     0.76694   0.99784   0.12845   0.00000  Uiso   1.00
C397   C     0.86775   0.61517   0.34206   0.00000  Uiso   1.00
N398   N     0.87567   0.63322   0.37838   0.00000  Uiso   1.00
C399   C     0.79892   0.88483   0.15794   0.00000  Uiso   1.00
N400   N     0.79100   0.86678   0.12162   0.00000  Uiso   1.00
C401   C     0.87149   0.61460   0.16915   0.00000  Uiso   1.00
N402   N     0.88135   0.63215   0.13519   0.00000  Uiso   1.00
C403   C     0.79518   0.88540   0.33085   0.00000  Uiso   1.00
N404   N     0.78532   0.86785   0.36481   0.00000  Uiso   1.00
F405   F     0.87466   0.52321   0.17557   0.00000  Uiso   1.00
F406   F     0.79201   0.97679   0.32443   0.00000  Uiso   1.00
C407   C     0.79427   0.67086   0.02910   0.00000  Uiso   1.00
N408   N     0.78422   0.63566   0.01271   0.00000  Uiso   1.00
C409   C     0.87240   0.82914   0.47090   0.00000  Uiso   1.00
N410   N     0.88244   0.86433   0.48729   0.00000  Uiso   1.00
C411   C     0.76796   0.69001   0.12045   0.00000  Uiso   1.00
N412   N     0.73973   0.66641   0.13738   0.00000  Uiso   1.00
C413   C     0.89871   0.80999   0.37955   0.00000  Uiso   1.00
N414   N     0.92694   0.83359   0.36262   0.00000  Uiso   1.00
C415   C     0.90436   0.80531   0.13656   0.00000  Uiso   1.00
N416   N     0.93276   0.82937   0.16001   0.00000  Uiso   1.00
C417   C     0.76231   0.69469   0.36344   0.00000  Uiso   1.00
N418   N     0.73391   0.67063   0.33999   0.00000  Uiso   1.00
F419   F     0.91759   0.78903   0.04438   0.00000  Uiso   1.00
F420   F     0.74908   0.71097   0.45562   0.00000  Uiso   1.00
C421   C     0.17176   0.16389   0.75078   0.00000  Uiso   1.00
C422   C     0.16158   0.33611   0.74922   0.00000  Uiso   1.00
C423   C     0.14052   0.21465   0.55016   0.00000  Uiso   1.00
C424   C     0.19281   0.28535   0.94984   0.00000  Uiso   1.00
C425   C     0.13629   0.21931   0.59885   0.00000  Uiso   1.00
C426   C     0.19705   0.28069   0.90115   0.00000  Uiso   1.00
C427   C     0.20240   0.27566   0.60702   0.00000  Uiso   1.00
C428   C     0.13093   0.22434   0.89298   0.00000  Uiso   1.00
C429   C     0.20623   0.27289   0.55848   0.00000  Uiso   1.00
C430   C     0.12711   0.22711   0.94152   0.00000  Uiso   1.00
C431   C     0.16916   0.24745   0.52724   0.00000  Uiso   1.00
C432   C     0.16417   0.25255   0.97276   0.00000  Uiso   1.00
C433   C     0.06724   0.24976   0.73777   0.00000  Uiso   1.00
C434   C     0.26609   0.25024   0.76223   0.00000  Uiso   1.00
C435   C     0.01258   0.24674   0.73137   0.00000  Uiso   1.00
C436   C     0.32075   0.25326   0.76863   0.00000  Uiso   1.00
C437   C     0.19198   0.04530   0.79592   0.00000  Uiso   1.00
C438   C     0.14135   0.45470   0.70408   0.00000  Uiso   1.00
C439   C     0.19137   0.09228   0.79662   0.00000  Uiso   1.00
C440   C     0.14196   0.40772   0.70338   0.00000  Uiso   1.00
C441   C     0.18399   0.11582   0.75282   0.00000  Uiso   1.00
C442   C     0.14934   0.38418   0.74718   0.00000  Uiso   1.00
C443   C     0.19281   0.09241   0.71160   0.00000  Uiso   1.00
C444   C     0.14053   0.40759   0.78840   0.00000  Uiso   1.00
C445   C     0.19222   0.04581   0.71223   0.00000  Uiso   1.00
C446   C     0.14111   0.45419   0.78777   0.00000  Uiso   1.00
C447   C     0.17885   0.02302   0.75207   0.00000  Uiso   1.00
C448   C     0.15449   0.47698   0.74794   0.00000  Uiso   1.00
N449   N     0.16667   0.24999   0.62624   0.00000  Uiso   1.00
N450   N     0.16667   0.25001   0.87377   0.00000  Uiso   1.00
O451   O     0.16667   0.18453   0.78974   0.00000  Uiso   1.00
O452   O     0.16666   0.31546   0.71026   0.00000  Uiso   1.00
O453   O     0.16667   0.18453   0.71026   0.00000  Uiso   1.00
O454   O     0.16666   0.31547   0.78974   0.00000  Uiso   1.00
O455   O     0.09058   0.25000   0.78045   0.00000  Uiso   1.00
O456   O     0.24275   0.25000   0.71956   0.00000  Uiso   1.00
O457   O     0.09058   0.24999   0.70097   0.00000  Uiso   1.00
O458   O     0.24275   0.25000   0.79904   0.00000  Uiso   1.00
Zn459  Zn    0.16667   0.25000   0.80307   0.00000  Uiso   1.00
Zn460  Zn    0.16667   0.24999   0.69693   0.00000  Uiso   1.00
F461   F     0.32159   0.23487   0.68734   0.00000  Uiso   1.00
F462   F     0.01174   0.26513   0.81266   0.00000  Uiso   1.00
C463   C     0.21472   0.02123   0.83801   0.00000  Uiso   1.00
N464   N     0.23306   0.00216   0.87155   0.00000  Uiso   1.00
C465   C     0.11861   0.47877   0.66199   0.00000  Uiso   1.00
N466   N     0.10027   0.49784   0.62845   0.00000  Uiso   1.00
C467   C     0.20108   0.11517   0.84206   0.00000  Uiso   1.00
N468   N     0.20900   0.13322   0.87838   0.00000  Uiso   1.00
C469   C     0.13225   0.38483   0.65794   0.00000  Uiso   1.00
N470   N     0.12433   0.36678   0.62162   0.00000  Uiso   1.00
C471   C     0.20482   0.11460   0.66915   0.00000  Uiso   1.00
N472   N     0.21468   0.13215   0.63519   0.00000  Uiso   1.00
C473   C     0.12851   0.38540   0.83085   0.00000  Uiso   1.00
N474   N     0.11865   0.36785   0.86481   0.00000  Uiso   1.00
F475   F     0.20799   0.02321   0.67557   0.00000  Uiso   1.00
F476   F     0.12534   0.47679   0.82443   0.00000  Uiso   1.00
C477   C     0.12760   0.17086   0.52910   0.00000  Uiso   1.00
N478   N     0.11756   0.13566   0.51271   0.00000  Uiso   1.00
C479   C     0.20573   0.32914   0.97090   0.00000  Uiso   1.00
N480   N     0.21578   0.36433   0.98729   0.00000  Uiso   1.00
C481   C     0.10129   0.19001   0.62045   0.00000  Uiso   1.00
N482   N     0.07306   0.16641   0.63738   0.00000  Uiso   1.00
C483   C     0.23204   0.30999   0.87955   0.00000  Uiso   1.00
N484   N     0.26027   0.33359   0.86262   0.00000  Uiso   1.00
C485   C     0.23769   0.30531   0.63656   0.00000  Uiso   1.00
N486   N     0.26609   0.32937   0.66001   0.00000  Uiso   1.00
C487   C     0.09564   0.19469   0.86344   0.00000  Uiso   1.00
N488   N     0.06724   0.17063   0.83999   0.00000  Uiso   1.00
F489   F     0.25092   0.28903   0.54438   0.00000  Uiso   1.00
F490   F     0.08241   0.21097   0.95562   0.00000  Uiso   1.00
C491   C     0.50509   0.16389   0.75078   0.00000  Uiso   1.00
C492   C     0.49491   0.33611   0.74922   0.00000  Uiso   1.00
C493   C     0.47386   0.21465   0.55016   0.00000  Uiso   1.00
C494   C     0.52614   0.28535   0.94984   0.00000  Uiso   1.00
C495   C     0.46962   0.21931   0.59885   0.00000  Uiso   1.00
C496   C     0.53038   0.28069   0.90115   0.00000  Uiso   1.00
C497   C     0.53573   0.27566   0.60702   0.00000  Uiso   1.00
C498   C     0.46427   0.22434   0.89298   0.00000  Uiso   1.00
C499   C     0.53956   0.27289   0.55848   0.00000  Uiso   1.00
C500   C     0.46044   0.22711   0.94152   0.00000  Uiso   1.00
C501   C     0.50250   0.24745   0.52724   0.00000  Uiso   1.00
C502   C     0.49751   0.25255   0.97276   0.00000  Uiso   1.00
C503   C     0.40057   0.24976   0.73777   0.00000  Uiso   1.00
C504   C     0.59943   0.25024   0.76223   0.00000  Uiso   1.00
C505   C     0.34591   0.24674   0.73137   0.00000  Uiso   1.00
C506   C     0.65409   0.25326   0.76863   0.00000  Uiso   1.00
C507   C     0.52532   0.04530   0.79592   0.00000  Uiso   1.00
C508   C     0.47468   0.45470   0.70408   0.00000  Uiso   1.00
C509   C     0.52470   0.09228   0.79662   0.00000  Uiso   1.00
C510   C     0.47530   0.40772   0.70338   0.00000  Uiso   1.00
C511   C     0.51732   0.11582   0.75282   0.00000  Uiso   1.00
C512   C     0.48267   0.38418   0.74718   0.00000  Uiso   1.00
C513   C     0.52614   0.09241   0.71160   0.00000  Uiso   1.00
C514   C     0.47386   0.40759   0.78840   0.00000  Uiso   1.00
C515   C     0.52556   0.04581   0.71223   0.00000  Uiso   1.00
C516   C     0.47444   0.45419   0.78777   0.00000  Uiso   1.00
C517   C     0.51218   0.02302   0.75207   0.00000  Uiso   1.00
C518   C     0.48782   0.47698   0.74794   0.00000  Uiso   1.00
N519   N     0.50000   0.24999   0.62624   0.00000  Uiso   1.00
N520   N     0.50000   0.25001   0.87377   0.00000  Uiso   1.00
O521   O     0.50000   0.18453   0.78974   0.00000  Uiso   1.00
O522   O     0.50000   0.31546   0.71026   0.00000  Uiso   1.00
O523   O     0.50000   0.18453   0.71026   0.00000  Uiso   1.00
O524   O     0.50000   0.31547   0.78974   0.00000  Uiso   1.00
O525   O     0.42392   0.25000   0.78045   0.00000  Uiso   1.00
O526   O     0.57608   0.25000   0.71956   0.00000  Uiso   1.00
O527   O     0.42392   0.24999   0.70097   0.00000  Uiso   1.00
O528   O     0.57608   0.25000   0.79904   0.00000  Uiso   1.00
Zn529  Zn    0.50000   0.25000   0.80307   0.00000  Uiso   1.00
Zn530  Zn    0.50000   0.24999   0.69693   0.00000  Uiso   1.00
F531   F     0.65493   0.23487   0.68734   0.00000  Uiso   1.00
F532   F     0.34507   0.26513   0.81266   0.00000  Uiso   1.00
C533   C     0.54805   0.02123   0.83801   0.00000  Uiso   1.00
N534   N     0.56640   0.00216   0.87155   0.00000  Uiso   1.00
C535   C     0.45194   0.47877   0.66199   0.00000  Uiso   1.00
N536   N     0.43360   0.49784   0.62845   0.00000  Uiso   1.00
C537   C     0.53442   0.11517   0.84206   0.00000  Uiso   1.00
N538   N     0.54233   0.13322   0.87838   0.00000  Uiso   1.00
C539   C     0.46558   0.38483   0.65794   0.00000  Uiso   1.00
N540   N     0.45767   0.36678   0.62162   0.00000  Uiso   1.00
C541   C     0.53815   0.11460   0.66915   0.00000  Uiso   1.00
N542   N     0.54801   0.13215   0.63519   0.00000  Uiso   1.00
C543   C     0.46185   0.38540   0.83085   0.00000  Uiso   1.00
N544   N     0.45199   0.36785   0.86481   0.00000  Uiso   1.00
F545   F     0.54132   0.02321   0.67557   0.00000  Uiso   1.00
F546   F     0.45868   0.47679   0.82443   0.00000  Uiso   1.00
C547   C     0.46093   0.17086   0.52910   0.00000  Uiso   1.00
N548   N     0.45089   0.13566   0.51271   0.00000  Uiso   1.00
C549   C     0.53907   0.32914   0.97090   0.00000  Uiso   1.00
N550   N     0.54911   0.36433   0.98729   0.00000  Uiso   1.00
C551   C     0.43463   0.19001   0.62045   0.00000  Uiso   1.00
N552   N     0.40640   0.16641   0.63738   0.00000  Uiso   1.00
C553   C     0.56537   0.30999   0.87955   0.00000  Uiso   1.00
N554   N     0.59360   0.33359   0.86262   0.00000  Uiso   1.00
C555   C     0.57102   0.30531   0.63656   0.00000  Uiso   1.00
N556   N     0.59943   0.32937   0.66001   0.00000  Uiso   1.00
C557   C     0.42898   0.19469   0.86344   0.00000  Uiso   1.00
N558   N     0.40057   0.17063   0.83999   0.00000  Uiso   1.00
F559   F     0.58426   0.28903   0.54438   0.00000  Uiso   1.00
F560   F     0.41574   0.21097   0.95562   0.00000  Uiso   1.00
C561   C     0.83842   0.16389   0.75078   0.00000  Uiso   1.00
C562   C     0.82824   0.33611   0.74922   0.00000  Uiso   1.00
C563   C     0.80719   0.21465   0.55016   0.00000  Uiso   1.00
C564   C     0.85948   0.28535   0.94984   0.00000  Uiso   1.00
C565   C     0.80295   0.21931   0.59885   0.00000  Uiso   1.00
C566   C     0.86371   0.28069   0.90115   0.00000  Uiso   1.00
C567   C     0.86907   0.27566   0.60702   0.00000  Uiso   1.00
C568   C     0.79760   0.22434   0.89298   0.00000  Uiso   1.00
C569   C     0.87289   0.27289   0.55848   0.00000  Uiso   1.00
C570   C     0.79377   0.22711   0.94152   0.00000  Uiso   1.00
C571   C     0.83583   0.24745   0.52724   0.00000  Uiso   1.00
C572   C     0.83084   0.25255   0.97276   0.00000  Uiso   1.00
C573   C     0.73391   0.24976   0.73777   0.00000  Uiso   1.00
C574   C     0.93276   0.25024   0.76223   0.00000  Uiso   1.00
C575   C     0.67925   0.24674   0.73137   0.00000  Uiso   1.00
C576   C     0.98742   0.25326   0.76863   0.00000  Uiso   1.00
C577   C     0.85865   0.04530   0.79592   0.00000  Uiso   1.00
C578   C     0.80802   0.45470   0.70408   0.00000  Uiso   1.00
C579   C     0.85803   0.09228   0.79662   0.00000  Uiso   1.00
C580   C     0.80863   0.40772   0.70338   0.00000  Uiso   1.00
C581   C     0.85066   0.11582   0.75282   0.00000  Uiso   1.00
C582   C     0.81601   0.38418   0.74718   0.00000  Uiso   1.00
C583   C     0.85947   0.09241   0.71160   0.00000  Uiso   1.00
C584   C     0.80719   0.40759   0.78840   0.00000  Uiso   1.00
C585   C     0.85889   0.04581   0.71223   0.00000  Uiso   1.00
C586   C     0.80777   0.45419   0.78777   0.00000  Uiso   1.00
C587   C     0.84551   0.02302   0.75207   0.00000  Uiso   1.00
C588   C     0.82115   0.47698   0.74794   0.00000  Uiso   1.00
N589   N     0.83333   0.24999   0.62624   0.00000  Uiso   1.00
N590   N     0.83333   0.25001   0.87377   0.00000  Uiso   1.00
O591   O     0.83334   0.18453   0.78974   0.00000  Uiso   1.00
O592   O     0.83333   0.31546   0.71026   0.00000  Uiso   1.00
O593   O     0.83334   0.18453   0.71026   0.00000  Uiso   1.00
O594   O     0.83333   0.31547   0.78974   0.00000  Uiso   1.00
O595   O     0.75725   0.25000   0.78045   0.00000  Uiso   1.00
O596   O     0.90942   0.25000   0.71956   0.00000  Uiso   1.00
O597   O     0.75725   0.24999   0.70097   0.00000  Uiso   1.00
O598   O     0.90942   0.25000   0.79904   0.00000  Uiso   1.00
Zn599  Zn    0.83333   0.25000   0.80307   0.00000  Uiso   1.00
Zn600  Zn    0.83333   0.24999   0.69693   0.00000  Uiso   1.00
F601   F     0.98826   0.23487   0.68734   0.00000  Uiso   1.00
F602   F     0.67841   0.26513   0.81266   0.00000  Uiso   1.00
C603   C     0.88139   0.02123   0.83801   0.00000  Uiso   1.00
N604   N     0.89973   0.00216   0.87155   0.00000  Uiso   1.00
C605   C     0.78528   0.47877   0.66199   0.00000  Uiso   1.00
N606   N     0.76694   0.49784   0.62845   0.00000  Uiso   1.00
C607   C     0.86775   0.11517   0.84206   0.00000  Uiso   1.00
N608   N     0.87567   0.13322   0.87838   0.00000  Uiso   1.00
C609   C     0.79892   0.38483   0.65794   0.00000  Uiso   1.00
N610   N     0.79100   0.36678   0.62162   0.00000  Uiso   1.00
C611   C     0.87149   0.11460   0.66915   0.00000  Uiso   1.00
N612   N     0.88135   0.13215   0.63519   0.00000  Uiso   1.00
C613   C     0.79518   0.38540   0.83085   0.00000  Uiso   1.00
N614   N     0.78532   0.36785   0.86481   0.00000  Uiso   1.00
F615   F     0.87466   0.02321   0.67557   0.00000  Uiso   1.00
F616   F     0.79201   0.47679   0.82443   0.00000  Uiso   1.00
C617   C     0.79427   0.17086   0.52910   0.00000  Uiso   1.00
N618   N     0.78422   0.13566   0.51271   0.00000  Uiso   1.00
C619   C     0.87240   0.32914   0.97090   0.00000  Uiso   1.00
N620   N     0.88244   0.36433   0.98729   0.00000  Uiso   1.00
C621   C     0.76796   0.19001   0.62045   0.00000  Uiso   1.00
N622   N     0.73973   0.16641   0.63738   0.00000  Uiso   1.00
C623   C     0.89871   0.30999   0.87955   0.00000  Uiso   1.00
N624   N     0.92694   0.33359   0.86262   0.00000  Uiso   1.00
C625   C     0.90436   0.30531   0.63656   0.00000  Uiso   1.00
N626   N     0.93276   0.32937   0.66001   0.00000  Uiso   1.00
C627   C     0.76231   0.19469   0.86344   0.00000  Uiso   1.00
N628   N     0.73391   0.17063   0.83999   0.00000  Uiso   1.00
F629   F     0.91759   0.28903   0.54438   0.00000  Uiso   1.00
F630   F     0.74908   0.21097   0.95562   0.00000  Uiso   1.00
C631   C     0.17176   0.66389   0.75078   0.00000  Uiso   1.00
C632   C     0.16158   0.83611   0.74922   0.00000  Uiso   1.00
C633   C     0.14052   0.71465   0.55016   0.00000  Uiso   1.00
C634   C     0.19281   0.78535   0.94984   0.00000  Uiso   1.00
C635   C     0.13629   0.71931   0.59885   0.00000  Uiso   1.00
C636   C     0.19705   0.78069   0.90115   0.00000  Uiso   1.00
C637   C     0.20240   0.77566   0.60702   0.00000  Uiso   1.00
C638   C     0.13093   0.72434   0.89298   0.00000  Uiso   1.00
C639   C     0.20623   0.77289   0.55848   0.00000  Uiso   1.00
C640   C     0.12711   0.72711   0.94152   0.00000  Uiso   1.00
C641   C     0.16916   0.74745   0.52724   0.00000  Uiso   1.00
C642   C     0.16417   0.75255   0.97276   0.00000  Uiso   1.00
C643   C     0.06724   0.74976   0.73777   0.00000  Uiso   1.00
C644   C     0.26609   0.75024   0.76223   0.00000  Uiso   1.00
C645   C     0.01258   0.74674   0.73137   0.00000  Uiso   1.00
C646   C     0.32075   0.75326   0.76863   0.00000  Uiso   1.00
C647   C     0.19198   0.54530   0.79592   0.00000  Uiso   1.00
C648   C     0.14135   0.95470   0.70408   0.00000  Uiso   1.00
C649   C     0.19137   0.59228   0.79662   0.00000  Uiso   1.00
C650   C     0.14196   0.90772   0.70338   0.00000  Uiso   1.00
C651   C     0.18399   0.61582   0.75282   0.00000  Uiso   1.00
C652   C     0.14934   0.88418   0.74718   0.00000  Uiso   1.00
C653   C     0.19281   0.59241   0.71160   0.00000  Uiso   1.00
C654   C     0.14053   0.90759   0.78840   0.00000  Uiso   1.00
C655   C     0.19222   0.54581   0.71223   0.00000  Uiso   1.00
C656   C     0.14111   0.95419   0.78777   0.00000  Uiso   1.00
C657   C     0.17885   0.52302   0.75207   0.00000  Uiso   1.00
C658   C     0.15449   0.97698   0.74794   0.00000  Uiso   1.00
N659   N     0.16667   0.74999   0.62624   0.00000  Uiso   1.00
N660   N     0.16667   0.75001   0.87377   0.00000  Uiso   1.00
O661   O     0.16667   0.68453   0.78974   0.00000  Uiso   1.00
O662   O     0.16666   0.81546   0.71026   0.00000  Uiso   1.00
O663   O     0.16667   0.68453   0.71026   0.00000  Uiso   1.00
O664   O     0.16666   0.81547   0.78974   0.00000  Uiso   1.00
O665   O     0.09058   0.75000   0.78045   0.00000  Uiso   1.00
O666   O     0.24275   0.75000   0.71956   0.00000  Uiso   1.00
O667   O     0.09058   0.74999   0.70097   0.00000  Uiso   1.00
O668   O     0.24275   0.75000   0.79904   0.00000  Uiso   1.00
Zn669  Zn    0.16667   0.75000   0.80307   0.00000  Uiso   1.00
Zn670  Zn    0.16667   0.74999   0.69693   0.00000  Uiso   1.00
F671   F     0.32159   0.73487   0.68734   0.00000  Uiso   1.00
F672   F     0.01174   0.76513   0.81266   0.00000  Uiso   1.00
C673   C     0.21472   0.52123   0.83801   0.00000  Uiso   1.00
N674   N     0.23306   0.50216   0.87155   0.00000  Uiso   1.00
C675   C     0.11861   0.97877   0.66199   0.00000  Uiso   1.00
N676   N     0.10027   0.99784   0.62845   0.00000  Uiso   1.00
C677   C     0.20108   0.61517   0.84206   0.00000  Uiso   1.00
N678   N     0.20900   0.63322   0.87838   0.00000  Uiso   1.00
C679   C     0.13225   0.88483   0.65794   0.00000  Uiso   1.00
N680   N     0.12433   0.86678   0.62162   0.00000  Uiso   1.00
C681   C     0.20482   0.61460   0.66915   0.00000  Uiso   1.00
N682   N     0.21468   0.63215   0.63519   0.00000  Uiso   1.00
C683   C     0.12851   0.88540   0.83085   0.00000  Uiso   1.00
N684   N     0.11865   0.86785   0.86481   0.00000  Uiso   1.00
F685   F     0.20799   0.52321   0.67557   0.00000  Uiso   1.00
F686   F     0.12534   0.97679   0.82443   0.00000  Uiso   1.00
C687   C     0.12760   0.67086   0.52910   0.00000  Uiso   1.00
N688   N     0.11756   0.63566   0.51271   0.00000  Uiso   1.00
C689   C     0.20573   0.82914   0.97090   0.00000  Uiso   1.00
N690   N     0.21578   0.86433   0.98729   0.00000  Uiso   1.00
C691   C     0.10129   0.69001   0.62045   0.00000  Uiso   1.00
N692   N     0.07306   0.66641   0.63738   0.00000  Uiso   1.00
C693   C     0.23204   0.80999   0.87955   0.00000  Uiso   1.00
N694   N     0.26027   0.83359   0.86262   0.00000  Uiso   1.00
C695   C     0.23769   0.80531   0.63656   0.00000  Uiso   1.00
N696   N     0.26609   0.82937   0.66001   0.00000  Uiso   1.00
C697   C     0.09564   0.69469   0.86344   0.00000  Uiso   1.00
N698   N     0.06724   0.67063   0.83999   0.00000  Uiso   1.00
F699   F     0.25092   0.78903   0.54438   0.00000  Uiso   1.00
F700   F     0.08241   0.71097   0.95562   0.00000  Uiso   1.00
C701   C     0.50509   0.66389   0.75078   0.00000  Uiso   1.00
C702   C     0.49491   0.83611   0.74922   0.00000  Uiso   1.00
C703   C     0.47386   0.71465   0.55016   0.00000  Uiso   1.00
C704   C     0.52614   0.78535   0.94984   0.00000  Uiso   1.00
C705   C     0.46962   0.71931   0.59885   0.00000  Uiso   1.00
C706   C     0.53038   0.78069   0.90115   0.00000  Uiso   1.00
C707   C     0.53573   0.77566   0.60702   0.00000  Uiso   1.00
C708   C     0.46427   0.72434   0.89298   0.00000  Uiso   1.00
C709   C     0.53956   0.77289   0.55848   0.00000  Uiso   1.00
C710   C     0.46044   0.72711   0.94152   0.00000  Uiso   1.00
C711   C     0.50250   0.74745   0.52724   0.00000  Uiso   1.00
C712   C     0.49751   0.75255   0.97276   0.00000  Uiso   1.00
C713   C     0.40057   0.74976   0.73777   0.00000  Uiso   1.00
C714   C     0.59943   0.75024   0.76223   0.00000  Uiso   1.00
C715   C     0.34591   0.74674   0.73137   0.00000  Uiso   1.00
C716   C     0.65409   0.75326   0.76863   0.00000  Uiso   1.00
C717   C     0.52532   0.54530   0.79592   0.00000  Uiso   1.00
C718   C     0.47468   0.95470   0.70408   0.00000  Uiso   1.00
C719   C     0.52470   0.59228   0.79662   0.00000  Uiso   1.00
C720   C     0.47530   0.90772   0.70338   0.00000  Uiso   1.00
C721   C     0.51732   0.61582   0.75282   0.00000  Uiso   1.00
C722   C     0.48267   0.88418   0.74718   0.00000  Uiso   1.00
C723   C     0.52614   0.59241   0.71160   0.00000  Uiso   1.00
C724   C     0.47386   0.90759   0.78840   0.00000  Uiso   1.00
C725   C     0.52556   0.54581   0.71223   0.00000  Uiso   1.00
C726   C     0.47444   0.95419   0.78777   0.00000  Uiso   1.00
C727   C     0.51218   0.52302   0.75207   0.00000  Uiso   1.00
C728   C     0.48782   0.97698   0.74794   0.00000  Uiso   1.00
N729   N     0.50000   0.74999   0.62624   0.00000  Uiso   1.00
N730   N     0.50000   0.75001   0.87377   0.00000  Uiso   1.00
O731   O     0.50000   0.68453   0.78974   0.00000  Uiso   1.00
O732   O     0.50000   0.81546   0.71026   0.00000  Uiso   1.00
O733   O     0.50000   0.68453   0.71026   0.00000  Uiso   1.00
O734   O     0.50000   0.81547   0.78974   0.00000  Uiso   1.00
O735   O     0.42392   0.75000   0.78045   0.00000  Uiso   1.00
O736   O     0.57608   0.75000   0.71956   0.00000  Uiso   1.00
O737   O     0.42392   0.74999   0.70097   0.00000  Uiso   1.00
O738   O     0.57608   0.75000   0.79904   0.00000  Uiso   1.00
Zn739  Zn    0.50000   0.75000   0.80307   0.00000  Uiso   1.00
Zn740  Zn    0.50000   0.74999   0.69693   0.00000  Uiso   1.00
F741   F     0.65493   0.73487   0.68734   0.00000  Uiso   1.00
F742   F     0.34507   0.76513   0.81266   0.00000  Uiso   1.00
C743   C     0.54805   0.52123   0.83801   0.00000  Uiso   1.00
N744   N     0.56640   0.50216   0.87155   0.00000  Uiso   1.00
C745   C     0.45194   0.97877   0.66199   0.00000  Uiso   1.00
N746   N     0.43360   0.99784   0.62845   0.00000  Uiso   1.00
C747   C     0.53442   0.61517   0.84206   0.00000  Uiso   1.00
N748   N     0.54233   0.63322   0.87838   0.00000  Uiso   1.00
C749   C     0.46558   0.88483   0.65794   0.00000  Uiso   1.00
N750   N     0.45767   0.86678   0.62162   0.00000  Uiso   1.00
C751   C     0.53815   0.61460   0.66915   0.00000  Uiso   1.00
N752   N     0.54801   0.63215   0.63519   0.00000  Uiso   1.00
C753   C     0.46185   0.88540   0.83085   0.00000  Uiso   1.00
N754   N     0.45199   0.86785   0.86481   0.00000  Uiso   1.00
F755   F     0.54132   0.52321   0.67557   0.00000  Uiso   1.00
F756   F     0.45868   0.97679   0.82443   0.00000  Uiso   1.00
C757   C     0.46093   0.67086   0.52910   0.00000  Uiso   1.00
N758   N     0.45089   0.63566   0.51271   0.00000  Uiso   1.00
C759   C     0.53907   0.82914   0.97090   0.00000  Uiso   1.00
N760   N     0.54911   0.86433   0.98729   0.00000  Uiso   1.00
C761   C     0.43463   0.69001   0.62045   0.00000  Uiso   1.00
N762   N     0.40640   0.66641   0.63738   0.00000  Uiso   1.00
C763   C     0.56537   0.80999   0.87955   0.00000  Uiso   1.00
N764   N     0.59360   0.83359   0.86262   0.00000  Uiso   1.00
C765   C     0.57102   0.80531   0.63656   0.00000  Uiso   1.00
N766   N     0.59943   0.82937   0.66001   0.00000  Uiso   1.00
C767   C     0.42898   0.69469   0.86344   0.00000  Uiso   1.00
N768   N     0.40057   0.67063   0.83999   0.00000  Uiso   1.00
F769   F     0.58426   0.78903   0.54438   0.00000  Uiso   1.00
F770   F     0.41574   0.71097   0.95562   0.00000  Uiso   1.00
C771   C     0.83842   0.66389   0.75078   0.00000  Uiso   1.00
C772   C     0.82824   0.83611   0.74922   0.00000  Uiso   1.00
C773   C     0.80719   0.71465   0.55016   0.00000  Uiso   1.00
C774   C     0.85948   0.78535   0.94984   0.00000  Uiso   1.00
C775   C     0.80295   0.71931   0.59885   0.00000  Uiso   1.00
C776   C     0.86371   0.78069   0.90115   0.00000  Uiso   1.00
C777   C     0.86907   0.77566   0.60702   0.00000  Uiso   1.00
C778   C     0.79760   0.72434   0.89298   0.00000  Uiso   1.00
C779   C     0.87289   0.77289   0.55848   0.00000  Uiso   1.00
C780   C     0.79377   0.72711   0.94152   0.00000  Uiso   1.00
C781   C     0.83583   0.74745   0.52724   0.00000  Uiso   1.00
C782   C     0.83084   0.75255   0.97276   0.00000  Uiso   1.00
C783   C     0.73391   0.74976   0.73777   0.00000  Uiso   1.00
C784   C     0.93276   0.75024   0.76223   0.00000  Uiso   1.00
C785   C     0.67925   0.74674   0.73137   0.00000  Uiso   1.00
C786   C     0.98742   0.75326   0.76863   0.00000  Uiso   1.00
C787   C     0.85865   0.54530   0.79592   0.00000  Uiso   1.00
C788   C     0.80802   0.95470   0.70408   0.00000  Uiso   1.00
C789   C     0.85803   0.59228   0.79662   0.00000  Uiso   1.00
C790   C     0.80863   0.90772   0.70338   0.00000  Uiso   1.00
C791   C     0.85066   0.61582   0.75282   0.00000  Uiso   1.00
C792   C     0.81601   0.88418   0.74718   0.00000  Uiso   1.00
C793   C     0.85947   0.59241   0.71160   0.00000  Uiso   1.00
C794   C     0.80719   0.90759   0.78840   0.00000  Uiso   1.00
C795   C     0.85889   0.54581   0.71223   0.00000  Uiso   1.00
C796   C     0.80777   0.95419   0.78777   0.00000  Uiso   1.00
C797   C     0.84551   0.52302   0.75207   0.00000  Uiso   1.00
C798   C     0.82115   0.97698   0.74794   0.00000  Uiso   1.00
N799   N     0.83333   0.74999   0.62624   0.00000  Uiso   1.00
N800   N     0.83333   0.75001   0.87377   0.00000  Uiso   1.00
O801   O     0.83334   0.68453   0.78974   0.00000  Uiso   1.00
O802   O     0.83333   0.81546   0.71026   0.00000  Uiso   1.00
O803   O     0.83334   0.68453   0.71026   0.00000  Uiso   1.00
O804   O     0.83333   0.81547   0.78974   0.00000  Uiso   1.00
O805   O     0.75725   0.75000   0.78045   0.00000  Uiso   1.00
O806   O     0.90942   0.75000   0.71956   0.00000  Uiso   1.00
O807   O     0.75725   0.74999   0.70097   0.00000  Uiso   1.00
O808   O     0.90942   0.75000   0.79904   0.00000  Uiso   1.00
Zn809  Zn    0.83333   0.75000   0.80307   0.00000  Uiso   1.00
Zn810  Zn    0.83333   0.74999   0.69693   0.00000  Uiso   1.00
F811   F     0.98826   0.73487   0.68734   0.00000  Uiso   1.00
F812   F     0.67841   0.76513   0.81266   0.00000  Uiso   1.00
C813   C     0.88139   0.52123   0.83801   0.00000  Uiso   1.00
N814   N     0.89973   0.50216   0.87155   0.00000  Uiso   1.00
C815   C     0.78528   0.97877   0.66199   0.00000  Uiso   1.00
N816   N     0.76694   0.99784   0.62845   0.00000  Uiso   1.00
C817   C     0.86775   0.61517   0.84206   0.00000  Uiso   1.00
N818   N     0.87567   0.63322   0.87838   0.00000  Uiso   1.00
C819   C     0.79892   0.88483   0.65794   0.00000  Uiso   1.00
N820   N     0.79100   0.86678   0.62162   0.00000  Uiso   1.00
C821   C     0.87149   0.61460   0.66915   0.00000  Uiso   1.00
N822   N     0.88135   0.63215   0.63519   0.00000  Uiso   1.00
C823   C     0.79518   0.88540   0.83085   0.00000  Uiso   1.00
N824   N     0.78532   0.86785   0.86481   0.00000  Uiso   1.00
F825   F     0.87466   0.52321   0.67557   0.00000  Uiso   1.00
F826   F     0.79201   0.97679   0.82443   0.00000  Uiso   1.00
C827   C     0.79427   0.67086   0.52910   0.00000  Uiso   1.00
N828   N     0.78422   0.63566   0.51271   0.00000  Uiso   1.00
C829   C     0.87240   0.82914   0.97090   0.00000  Uiso   1.00
N830   N     0.88244   0.86433   0.98729   0.00000  Uiso   1.00
C831   C     0.76796   0.69001   0.62045   0.00000  Uiso   1.00
N832   N     0.73973   0.66641   0.63738   0.00000  Uiso   1.00
C833   C     0.89871   0.80999   0.87955   0.00000  Uiso   1.00
N834   N     0.92694   0.83359   0.86262   0.00000  Uiso   1.00
C835   C     0.90436   0.80531   0.63656   0.00000  Uiso   1.00
N836   N     0.93276   0.82937   0.66001   0.00000  Uiso   1.00
C837   C     0.76231   0.69469   0.86344   0.00000  Uiso   1.00
N838   N     0.73391   0.67063   0.83999   0.00000  Uiso   1.00
F839   F     0.91759   0.78903   0.54438   0.00000  Uiso   1.00
F840   F     0.74908   0.71097   0.95562   0.00000  Uiso   1.00
loop_
_geom_bond_atom_site_label_1
_geom_bond_atom_site_label_2
_geom_bond_distance
_geom_bond_site_symmetry_2
_ccdc_geom_bond_type
C1     C21     1.472   .     S
C1     O31     1.295   .     A
C1     O33     1.299   .     A
C2     C22     1.472   .     S
C2     O34     1.299   .     A
C2     O32     1.295   .     A
C3     C5      1.416   .     A
C3     C11     1.427   .     A
C3     C57     1.450   .     S
C4     C59     1.450   .     S
C4     C6      1.416   .     A
C4     C12     1.427   .     A
C5     C61     1.444   .     S
C5     N29     1.364   .     A
C6     C63     1.444   .     S
C6     N30     1.364   .     A
C7     N29     1.362   .     A
C7     C65     1.440   .     S
C7     C9      1.404   .     A
C8     N30     1.362   .     A
C8     C67     1.440   .     S
C8     C10     1.404   .     A
C9     C11     1.419   .     A
C9     F69     1.357   .     S
C10    C12     1.419   .     A
C10    F70     1.357   .     S
C11    C432    1.548   1_554 S
C12    C431    1.548   .     S
C13    C15     1.401   .     S
C13    O35     1.278   .     A
C13    O37     1.284   .     A
C14    C16     1.401   .     S
C14    O38     1.284   .     A
C14    O36     1.278   .     A
C15    C156    1.340   1_455 S
C15    F181    1.365   1_455 S
C16    C85     1.340   .     S
C16    F112    1.365   .     S
C17    C43     1.452   .     S
C17    C27     1.411   .     A
C17    C19     1.400   .     A
C18    C28     1.411   .     A
C18    C45     1.452   .     S
C18    C20     1.400   .     A
C19    C21     1.422   .     A
C19    C47     1.453   .     S
C20    C49     1.453   .     S
C20    C22     1.422   .     A
C21    C23     1.417   .     A
C22    C24     1.417   .     A
C23    C51     1.447   .     S
C23    C25     1.387   .     A
C24    C26     1.387   .     A
C24    C53     1.447   .     S
C25    F55     1.360   .     S
C25    C27     1.404   .     A
C26    C28     1.404   .     A
C26    F56     1.360   .     S
C27    C238    1.495   1_545 S
C28    C237    1.495   .     S
N29    Zn40    2.016   .     S
N30    Zn39    2.016   .     S
O31    Zn39    1.987   .     S
O32    Zn40    1.987   .     S
O33    Zn40    1.985   .     S
O34    Zn39    1.985   .     S
O35    Zn39    1.981   .     S
O36    Zn40    1.981   .     S
O37    Zn40    1.988   .     S
O38    Zn39    1.988   .     S
F41    C85     1.365   .     S
F42    C156    1.365   1_455 S
C43    N44     1.158   .     T
C45    N46     1.158   .     T
C47    N48     1.158   .     T
C49    N50     1.158   .     T
C51    N52     1.157   .     T
C53    N54     1.157   .     T
C57    N58     1.158   .     T
C59    N60     1.158   .     T
C61    N62     1.158   .     T
C63    N64     1.158   .     T
C65    N66     1.158   .     T
C67    N68     1.158   .     T
C71    C91     1.472   .     S
C71    O101    1.295   .     A
C71    O103    1.299   .     A
C72    C92     1.472   .     S
C72    O104    1.299   .     A
C72    O102    1.295   .     A
C73    C75     1.416   .     A
C73    C81     1.427   .     A
C73    C127    1.450   .     S
C74    C129    1.450   .     S
C74    C76     1.416   .     A
C74    C82     1.427   .     A
C75    C131    1.444   .     S
C75    N99     1.364   .     A
C76    C133    1.444   .     S
C76    N100    1.364   .     A
C77    N99     1.362   .     A
C77    C135    1.440   .     S
C77    C79     1.404   .     A
C78    N100    1.362   .     A
C78    C137    1.440   .     S
C78    C80     1.404   .     A
C79    C81     1.419   .     A
C79    F139    1.357   .     S
C80    C82     1.419   .     A
C80    F140    1.357   .     S
C81    C502    1.548   1_554 S
C82    C501    1.548   .     S
C83    C85     1.401   .     S
C83    O105    1.278   .     A
C83    O107    1.284   .     A
C84    C86     1.401   .     S
C84    O108    1.284   .     A
C84    O106    1.278   .     A
C86    C155    1.340   .     S
C86    F182    1.365   .     S
C87    C113    1.452   .     S
C87    C97     1.411   .     A
C87    C89     1.400   .     A
C88    C98     1.411   .     A
C88    C115    1.452   .     S
C88    C90     1.400   .     A
C89    C91     1.422   .     A
C89    C117    1.453   .     S
C90    C119    1.453   .     S
C90    C92     1.422   .     A
C91    C93     1.417   .     A
C92    C94     1.417   .     A
C93    C121    1.447   .     S
C93    C95     1.387   .     A
C94    C96     1.387   .     A
C94    C123    1.447   .     S
C95    F125    1.360   .     S
C95    C97     1.404   .     A
C96    C98     1.404   .     A
C96    F126    1.360   .     S
C97    C308    1.495   1_545 S
C98    C307    1.495   .     S
N99    Zn110   2.016   .     S
N100   Zn109   2.016   .     S
O101   Zn109   1.987   .     S
O102   Zn110   1.987   .     S
O103   Zn110   1.985   .     S
O104   Zn109   1.985   .     S
O105   Zn109   1.981   .     S
O106   Zn110   1.981   .     S
O107   Zn110   1.988   .     S
O108   Zn109   1.988   .     S
F111   C155    1.365   .     S
C113   N114    1.158   .     T
C115   N116    1.158   .     T
C117   N118    1.158   .     T
C119   N120    1.158   .     T
C121   N122    1.157   .     T
C123   N124    1.157   .     T
C127   N128    1.158   .     T
C129   N130    1.158   .     T
C131   N132    1.158   .     T
C133   N134    1.158   .     T
C135   N136    1.158   .     T
C137   N138    1.158   .     T
C141   C161    1.472   .     S
C141   O171    1.295   .     A
C141   O173    1.299   .     A
C142   C162    1.472   .     S
C142   O174    1.299   .     A
C142   O172    1.295   .     A
C143   C145    1.416   .     A
C143   C151    1.427   .     A
C143   C197    1.450   .     S
C144   C199    1.450   .     S
C144   C146    1.416   .     A
C144   C152    1.427   .     A
C145   C201    1.444   .     S
C145   N169    1.364   .     A
C146   C203    1.444   .     S
C146   N170    1.364   .     A
C147   N169    1.362   .     A
C147   C205    1.440   .     S
C147   C149    1.404   .     A
C148   N170    1.362   .     A
C148   C207    1.440   .     S
C148   C150    1.404   .     A
C149   C151    1.419   .     A
C149   F209    1.357   .     S
C150   C152    1.419   .     A
C150   F210    1.357   .     S
C151   C572    1.548   1_554 S
C152   C571    1.548   .     S
C153   C155    1.401   .     S
C153   O175    1.278   .     A
C153   O177    1.284   .     A
C154   C156    1.401   .     S
C154   O178    1.284   .     A
C154   O176    1.278   .     A
C156   C15     1.340   1_655 S
C156   F42     1.365   1_655 S
C157   C183    1.452   .     S
C157   C167    1.411   .     A
C157   C159    1.400   .     A
C158   C168    1.411   .     A
C158   C185    1.452   .     S
C158   C160    1.400   .     A
C159   C161    1.422   .     A
C159   C187    1.453   .     S
C160   C189    1.453   .     S
C160   C162    1.422   .     A
C161   C163    1.417   .     A
C162   C164    1.417   .     A
C163   C191    1.447   .     S
C163   C165    1.387   .     A
C164   C166    1.387   .     A
C164   C193    1.447   .     S
C165   F195    1.360   .     S
C165   C167    1.404   .     A
C166   C168    1.404   .     A
C166   F196    1.360   .     S
C167   C378    1.495   1_545 S
C168   C377    1.495   .     S
N169   Zn180   2.016   .     S
N170   Zn179   2.016   .     S
O171   Zn179   1.987   .     S
O172   Zn180   1.987   .     S
O173   Zn180   1.985   .     S
O174   Zn179   1.985   .     S
O175   Zn179   1.981   .     S
O176   Zn180   1.981   .     S
O177   Zn180   1.988   .     S
O178   Zn179   1.988   .     S
F181   C15     1.365   1_655 S
C183   N184    1.158   .     T
C185   N186    1.158   .     T
C187   N188    1.158   .     T
C189   N190    1.158   .     T
C191   N192    1.157   .     T
C193   N194    1.157   .     T
C197   N198    1.158   .     T
C199   N200    1.158   .     T
C201   N202    1.158   .     T
C203   N204    1.158   .     T
C205   N206    1.158   .     T
C207   N208    1.158   .     T
C211   C231    1.472   .     S
C211   O241    1.295   .     A
C211   O243    1.299   .     A
C212   C232    1.472   .     S
C212   O244    1.299   .     A
C212   O242    1.295   .     A
C213   C215    1.416   .     A
C213   C221    1.427   .     A
C213   C267    1.450   .     S
C214   C269    1.450   .     S
C214   C216    1.416   .     A
C214   C222    1.427   .     A
C215   C271    1.444   .     S
C215   N239    1.364   .     A
C216   C273    1.444   .     S
C216   N240    1.364   .     A
C217   N239    1.362   .     A
C217   C275    1.440   .     S
C217   C219    1.404   .     A
C218   N240    1.362   .     A
C218   C277    1.440   .     S
C218   C220    1.404   .     A
C219   C221    1.419   .     A
C219   F279    1.357   .     S
C220   C222    1.419   .     A
C220   F280    1.357   .     S
C221   C642    1.548   1_554 S
C222   C641    1.548   .     S
C223   C225    1.401   .     S
C223   O245    1.278   .     A
C223   O247    1.284   .     A
C224   C226    1.401   .     S
C224   O248    1.284   .     A
C224   O246    1.278   .     A
C225   C366    1.340   1_455 S
C225   F391    1.365   1_455 S
C226   C295    1.340   .     S
C226   F322    1.365   .     S
C227   C253    1.452   .     S
C227   C237    1.411   .     A
C227   C229    1.400   .     A
C228   C238    1.411   .     A
C228   C255    1.452   .     S
C228   C230    1.400   .     A
C229   C231    1.422   .     A
C229   C257    1.453   .     S
C230   C259    1.453   .     S
C230   C232    1.422   .     A
C231   C233    1.417   .     A
C232   C234    1.417   .     A
C233   C261    1.447   .     S
C233   C235    1.387   .     A
C234   C236    1.387   .     A
C234   C263    1.447   .     S
C235   F265    1.360   .     S
C235   C237    1.404   .     A
C236   C238    1.404   .     A
C236   F266    1.360   .     S
C238   C27     1.495   1_565 S
N239   Zn250   2.016   .     S
N240   Zn249   2.016   .     S
O241   Zn249   1.987   .     S
O242   Zn250   1.987   .     S
O243   Zn250   1.985   .     S
O244   Zn249   1.985   .     S
O245   Zn249   1.981   .     S
O246   Zn250   1.981   .     S
O247   Zn250   1.988   .     S
O248   Zn249   1.988   .     S
F251   C295    1.365   .     S
F252   C366    1.365   1_455 S
C253   N254    1.158   .     T
C255   N256    1.158   .     T
C257   N258    1.158   .     T
C259   N260    1.158   .     T
C261   N262    1.157   .     T
C263   N264    1.157   .     T
C267   N268    1.158   .     T
C269   N270    1.158   .     T
C271   N272    1.158   .     T
C273   N274    1.158   .     T
C275   N276    1.158   .     T
C277   N278    1.158   .     T
C281   C301    1.472   .     S
C281   O311    1.295   .     A
C281   O313    1.299   .     A
C282   C302    1.472   .     S
C282   O314    1.299   .     A
C282   O312    1.295   .     A
C283   C285    1.416   .     A
C283   C291    1.427   .     A
C283   C337    1.450   .     S
C284   C339    1.450   .     S
C284   C286    1.416   .     A
C284   C292    1.427   .     A
C285   C341    1.444   .     S
C285   N309    1.364   .     A
C286   C343    1.444   .     S
C286   N310    1.364   .     A
C287   N309    1.362   .     A
C287   C345    1.440   .     S
C287   C289    1.404   .     A
C288   N310    1.362   .     A
C288   C347    1.440   .     S
C288   C290    1.404   .     A
C289   C291    1.419   .     A
C289   F349    1.357   .     S
C290   C292    1.419   .     A
C290   F350    1.357   .     S
C291   C712    1.548   1_554 S
C292   C711    1.548   .     S
C293   C295    1.401   .     S
C293   O315    1.278   .     A
C293   O317    1.284   .     A
C294   C296    1.401   .     S
C294   O318    1.284   .     A
C294   O316    1.278   .     A
C296   C365    1.340   .     S
C296   F392    1.365   .     S
C297   C323    1.452   .     S
C297   C307    1.411   .     A
C297   C299    1.400   .     A
C298   C308    1.411   .     A
C298   C325    1.452   .     S
C298   C300    1.400   .     A
C299   C301    1.422   .     A
C299   C327    1.453   .     S
C300   C329    1.453   .     S
C300   C302    1.422   .     A
C301   C303    1.417   .     A
C302   C304    1.417   .     A
C303   C331    1.447   .     S
C303   C305    1.387   .     A
C304   C306    1.387   .     A
C304   C333    1.447   .     S
C305   F335    1.360   .     S
C305   C307    1.404   .     A
C306   C308    1.404   .     A
C306   F336    1.360   .     S
C308   C97     1.495   1_565 S
N309   Zn320   2.016   .     S
N310   Zn319   2.016   .     S
O311   Zn319   1.987   .     S
O312   Zn320   1.987   .     S
O313   Zn320   1.985   .     S
O314   Zn319   1.985   .     S
O315   Zn319   1.981   .     S
O316   Zn320   1.981   .     S
O317   Zn320   1.988   .     S
O318   Zn319   1.988   .     S
F321   C365    1.365   .     S
C323   N324    1.158   .     T
C325   N326    1.158   .     T
C327   N328    1.158   .     T
C329   N330    1.158   .     T
C331   N332    1.157   .     T
C333   N334    1.157   .     T
C337   N338    1.158   .     T
C339   N340    1.158   .     T
C341   N342    1.158   .     T
C343   N344    1.158   .     T
C345   N346    1.158   .     T
C347   N348    1.158   .     T
C351   C371    1.472   .     S
C351   O381    1.295   .     A
C351   O383    1.299   .     A
C352   C372    1.472   .     S
C352   O384    1.299   .     A
C352   O382    1.295   .     A
C353   C355    1.416   .     A
C353   C361    1.427   .     A
C353   C407    1.450   .     S
C354   C409    1.450   .     S
C354   C356    1.416   .     A
C354   C362    1.427   .     A
C355   C411    1.444   .     S
C355   N379    1.364   .     A
C356   C413    1.444   .     S
C356   N380    1.364   .     A
C357   N379    1.362   .     A
C357   C415    1.440   .     S
C357   C359    1.404   .     A
C358   N380    1.362   .     A
C358   C417    1.440   .     S
C358   C360    1.404   .     A
C359   C361    1.419   .     A
C359   F419    1.357   .     S
C360   C362    1.419   .     A
C360   F420    1.357   .     S
C361   C782    1.548   1_554 S
C362   C781    1.548   .     S
C363   C365    1.401   .     S
C363   O385    1.278   .     A
C363   O387    1.284   .     A
C364   C366    1.401   .     S
C364   O388    1.284   .     A
C364   O386    1.278   .     A
C366   C225    1.340   1_655 S
C366   F252    1.365   1_655 S
C367   C393    1.452   .     S
C367   C377    1.411   .     A
C367   C369    1.400   .     A
C368   C378    1.411   .     A
C368   C395    1.452   .     S
C368   C370    1.400   .     A
C369   C371    1.422   .     A
C369   C397    1.453   .     S
C370   C399    1.453   .     S
C370   C372    1.422   .     A
C371   C373    1.417   .     A
C372   C374    1.417   .     A
C373   C401    1.447   .     S
C373   C375    1.387   .     A
C374   C376    1.387   .     A
C374   C403    1.447   .     S
C375   F405    1.360   .     S
C375   C377    1.404   .     A
C376   C378    1.404   .     A
C376   F406    1.360   .     S
C378   C167    1.495   1_565 S
N379   Zn390   2.016   .     S
N380   Zn389   2.016   .     S
O381   Zn389   1.987   .     S
O382   Zn390   1.987   .     S
O383   Zn390   1.985   .     S
O384   Zn389   1.985   .     S
O385   Zn389   1.981   .     S
O386   Zn390   1.981   .     S
O387   Zn390   1.988   .     S
O388   Zn389   1.988   .     S
F391   C225    1.365   1_655 S
C393   N394    1.158   .     T
C395   N396    1.158   .     T
C397   N398    1.158   .     T
C399   N400    1.158   .     T
C401   N402    1.157   .     T
C403   N404    1.157   .     T
C407   N408    1.158   .     T
C409   N410    1.158   .     T
C411   N412    1.158   .     T
C413   N414    1.158   .     T
C415   N416    1.158   .     T
C417   N418    1.158   .     T
C421   C441    1.472   .     S
C421   O451    1.295   .     A
C421   O453    1.299   .     A
C422   C442    1.472   .     S
C422   O454    1.299   .     A
C422   O452    1.295   .     A
C423   C425    1.416   .     A
C423   C431    1.427   .     A
C423   C477    1.450   .     S
C424   C479    1.450   .     S
C424   C426    1.416   .     A
C424   C432    1.427   .     A
C425   C481    1.444   .     S
C425   N449    1.364   .     A
C426   C483    1.444   .     S
C426   N450    1.364   .     A
C427   N449    1.362   .     A
C427   C485    1.440   .     S
C427   C429    1.404   .     A
C428   N450    1.362   .     A
C428   C487    1.440   .     S
C428   C430    1.404   .     A
C429   C431    1.419   .     A
C429   F489    1.357   .     S
C430   C432    1.419   .     A
C430   F490    1.357   .     S
C432   C11     1.548   1_556 S
C433   C435    1.401   .     S
C433   O455    1.278   .     A
C433   O457    1.284   .     A
C434   C436    1.401   .     S
C434   O458    1.284   .     A
C434   O456    1.278   .     A
C435   C576    1.340   1_455 S
C435   F601    1.365   1_455 S
C436   C505    1.340   .     S
C436   F532    1.365   .     S
C437   C463    1.452   .     S
C437   C447    1.411   .     A
C437   C439    1.400   .     A
C438   C448    1.411   .     A
C438   C465    1.452   .     S
C438   C440    1.400   .     A
C439   C441    1.422   .     A
C439   C467    1.453   .     S
C440   C469    1.453   .     S
C440   C442    1.422   .     A
C441   C443    1.417   .     A
C442   C444    1.417   .     A
C443   C471    1.447   .     S
C443   C445    1.387   .     A
C444   C446    1.387   .     A
C444   C473    1.447   .     S
C445   F475    1.360   .     S
C445   C447    1.404   .     A
C446   C448    1.404   .     A
C446   F476    1.360   .     S
C447   C658    1.495   1_545 S
C448   C657    1.495   .     S
N449   Zn460   2.016   .     S
N450   Zn459   2.016   .     S
O451   Zn459   1.987   .     S
O452   Zn460   1.987   .     S
O453   Zn460   1.985   .     S
O454   Zn459   1.985   .     S
O455   Zn459   1.981   .     S
O456   Zn460   1.981   .     S
O457   Zn460   1.988   .     S
O458   Zn459   1.988   .     S
F461   C505    1.365   .     S
F462   C576    1.365   1_455 S
C463   N464    1.158   .     T
C465   N466    1.158   .     T
C467   N468    1.158   .     T
C469   N470    1.158   .     T
C471   N472    1.157   .     T
C473   N474    1.157   .     T
C477   N478    1.158   .     T
C479   N480    1.158   .     T
C481   N482    1.158   .     T
C483   N484    1.158   .     T
C485   N486    1.158   .     T
C487   N488    1.158   .     T
C491   C511    1.472   .     S
C491   O521    1.295   .     A
C491   O523    1.299   .     A
C492   C512    1.472   .     S
C492   O524    1.299   .     A
C492   O522    1.295   .     A
C493   C495    1.416   .     A
C493   C501    1.427   .     A
C493   C547    1.450   .     S
C494   C549    1.450   .     S
C494   C496    1.416   .     A
C494   C502    1.427   .     A
C495   C551    1.444   .     S
C495   N519    1.364   .     A
C496   C553    1.444   .     S
C496   N520    1.364   .     A
C497   N519    1.362   .     A
C497   C555    1.440   .     S
C497   C499    1.404   .     A
C498   N520    1.362   .     A
C498   C557    1.440   .     S
C498   C500    1.404   .     A
C499   C501    1.419   .     A
C499   F559    1.357   .     S
C500   C502    1.419   .     A
C500   F560    1.357   .     S
C502   C81     1.548   1_556 S
C503   C505    1.401   .     S
C503   O525    1.278   .     A
C503   O527    1.284   .     A
C504   C506    1.401   .     S
C504   O528    1.284   .     A
C504   O526    1.278   .     A
C506   C575    1.340   .     S
C506   F602    1.365   .     S
C507   C533    1.452   .     S
C507   C517    1.411   .     A
C507   C509    1.400   .     A
C508   C518    1.411   .     A
C508   C535    1.452   .     S
C508   C510    1.400   .     A
C509   C511    1.422   .     A
C509   C537    1.453   .     S
C510   C539    1.453   .     S
C510   C512    1.422   .     A
C511   C513    1.417   .     A
C512   C514    1.417   .     A
C513   C541    1.447   .     S
C513   C515    1.387   .     A
C514   C516    1.387   .     A
C514   C543    1.447   .     S
C515   F545    1.360   .     S
C515   C517    1.404   .     A
C516   C518    1.404   .     A
C516   F546    1.360   .     S
C517   C728    1.495   1_545 S
C518   C727    1.495   .     S
N519   Zn530   2.016   .     S
N520   Zn529   2.016   .     S
O521   Zn529   1.987   .     S
O522   Zn530   1.987   .     S
O523   Zn530   1.985   .     S
O524   Zn529   1.985   .     S
O525   Zn529   1.981   .     S
O526   Zn530   1.981   .     S
O527   Zn530   1.988   .     S
O528   Zn529   1.988   .     S
F531   C575    1.365   .     S
C533   N534    1.158   .     T
C535   N536    1.158   .     T
C537   N538    1.158   .     T
C539   N540    1.158   .     T
C541   N542    1.157   .     T
C543   N544    1.157   .     T
C547   N548    1.158   .     T
C549   N550    1.158   .     T
C551   N552    1.158   .     T
C553   N554    1.158   .     T
C555   N556    1.158   .     T
C557   N558    1.158   .     T
C561   C581    1.472   .     S
C561   O591    1.295   .     A
C561   O593    1.299   .     A
C562   C582    1.472   .     S
C562   O594    1.299   .     A
C562   O592    1.295   .     A
C563   C565    1.416   .     A
C563   C571    1.427   .     A
C563   C617    1.450   .     S
C564   C619    1.450   .     S
C564   C566    1.416   .     A
C564   C572    1.427   .     A
C565   C621    1.444   .     S
C565   N589    1.364   .     A
C566   C623    1.444   .     S
C566   N590    1.364   .     A
C567   N589    1.362   .     A
C567   C625    1.440   .     S
C567   C569    1.404   .     A
C568   N590    1.362   .     A
C568   C627    1.440   .     S
C568   C570    1.404   .     A
C569   C571    1.419   .     A
C569   F629    1.357   .     S
C570   C572    1.419   .     A
C570   F630    1.357   .     S
C572   C151    1.548   1_556 S
C573   C575    1.401   .     S
C573   O595    1.278   .     A
C573   O597    1.284   .     A
C574   C576    1.401   .     S
C574   O598    1.284   .     A
C574   O596    1.278   .     A
C576   C435    1.340   1_655 S
C576   F462    1.365   1_655 S
C577   C603    1.452   .     S
C577   C587    1.411   .     A
C577   C579    1.400   .     A
C578   C588    1.411   .     A
C578   C605    1.452   .     S
C578   C580    1.400   .     A
C579   C581    1.422   .     A
C579   C607    1.453   .     S
C580   C609    1.453   .     S
C580   C582    1.422   .     A
C581   C583    1.417   .     A
C582   C584    1.417   .     A
C583   C611    1.447   .     S
C583   C585    1.387   .     A
C584   C586    1.387   .     A
C584   C613    1.447   .     S
C585   F615    1.360   .     S
C585   C587    1.404   .     A
C586   C588    1.404   .     A
C586   F616    1.360   .     S
C587   C798    1.495   1_545 S
C588   C797    1.495   .     S
N589   Zn600   2.016   .     S
N590   Zn599   2.016   .     S
O591   Zn599   1.987   .     S
O592   Zn600   1.987   .     S
O593   Zn600   1.985   .     S
O594   Zn599   1.985   .     S
O595   Zn599   1.981   .     S
O596   Zn600   1.981   .     S
O597   Zn600   1.988   .     S
O598   Zn599   1.988   .     S
F601   C435    1.365   1_655 S
C603   N604    1.158   .     T
C605   N606    1.158   .     T
C607   N608    1.158   .     T
C609   N610    1.158   .     T
C611   N612    1.157   .     T
C613   N614    1.157   .     T
C617   N618    1.158   .     T
C619   N620    1.158   .     T
C621   N622    1.158   .     T
C623   N624    1.158   .     T
C625   N626    1.158   .     T
C627   N628    1.158   .     T
C631   C651    1.472   .     S
C631   O661    1.295   .     A
C631   O663    1.299   .     A
C632   C652    1.472   .     S
C632   O664    1.299   .     A
C632   O662    1.295   .     A
C633   C635    1.416   .     A
C633   C641    1.427   .     A
C633   C687    1.450   .     S
C634   C689    1.450   .     S
C634   C636    1.416   .     A
C634   C642    1.427   .     A
C635   C691    1.444   .     S
C635   N659    1.364   .     A
C636   C693    1.444   .     S
C636   N660    1.364   .     A
C637   N659    1.362   .     A
C637   C695    1.440   .     S
C637   C639    1.404   .     A
C638   N660    1.362   .     A
C638   C697    1.440   .     S
C638   C640    1.404   .     A
C639   C641    1.419   .     A
C639   F699    1.357   .     S
C640   C642    1.419   .     A
C640   F700    1.357   .     S
C642   C221    1.548   1_556 S
C643   C645    1.401   .     S
C643   O665    1.278   .     A
C643   O667    1.284   .     A
C644   C646    1.401   .     S
C644   O668    1.284   .     A
C644   O666    1.278   .     A
C645   C786    1.340   1_455 S
C645   F811    1.365   1_455 S
C646   C715    1.340   .     S
C646   F742    1.365   .     S
C647   C673    1.452   .     S
C647   C657    1.411   .     A
C647   C649    1.400   .     A
C648   C658    1.411   .     A
C648   C675    1.452   .     S
C648   C650    1.400   .     A
C649   C651    1.422   .     A
C649   C677    1.453   .     S
C650   C679    1.453   .     S
C650   C652    1.422   .     A
C651   C653    1.417   .     A
C652   C654    1.417   .     A
C653   C681    1.447   .     S
C653   C655    1.387   .     A
C654   C656    1.387   .     A
C654   C683    1.447   .     S
C655   F685    1.360   .     S
C655   C657    1.404   .     A
C656   C658    1.404   .     A
C656   F686    1.360   .     S
C658   C447    1.495   1_565 S
N659   Zn670   2.016   .     S
N660   Zn669   2.016   .     S
O661   Zn669   1.987   .     S
O662   Zn670   1.987   .     S
O663   Zn670   1.985   .     S
O664   Zn669   1.985   .     S
O665   Zn669   1.981   .     S
O666   Zn670   1.981   .     S
O667   Zn670   1.988   .     S
O668   Zn669   1.988   .     S
F671   C715    1.365   .     S
F672   C786    1.365   1_455 S
C673   N674    1.158   .     T
C675   N676    1.158   .     T
C677   N678    1.158   .     T
C679   N680    1.158   .     T
C681   N682    1.157   .     T
C683   N684    1.157   .     T
C687   N688    1.158   .     T
C689   N690    1.158   .     T
C691   N692    1.158   .     T
C693   N694    1.158   .     T
C695   N696    1.158   .     T
C697   N698    1.158   .     T
C701   C721    1.472   .     S
C701   O731    1.295   .     A
C701   O733    1.299   .     A
C702   C722    1.472   .     S
C702   O734    1.299   .     A
C702   O732    1.295   .     A
C703   C705    1.416   .     A
C703   C711    1.427   .     A
C703   C757    1.450   .     S
C704   C759    1.450   .     S
C704   C706    1.416   .     A
C704   C712    1.427   .     A
C705   C761    1.444   .     S
C705   N729    1.364   .     A
C706   C763    1.444   .     S
C706   N730    1.364   .     A
C707   N729    1.362   .     A
C707   C765    1.440   .     S
C707   C709    1.404   .     A
C708   N730    1.362   .     A
C708   C767    1.440   .     S
C708   C710    1.404   .     A
C709   C711    1.419   .     A
C709   F769    1.357   .     S
C710   C712    1.419   .     A
C710   F770    1.357   .     S
C712   C291    1.548   1_556 S
C713   C715    1.401   .     S
C713   O735    1.278   .     A
C713   O737    1.284   .     A
C714   C716    1.401   .     S
C714   O738    1.284   .     A
C714   O736    1.278   .     A
C716   C785    1.340   .     S
C716   F812    1.365   .     S
C717   C743    1.452   .     S
C717   C727    1.411   .     A
C717   C719    1.400   .     A
C718   C728    1.411   .     A
C718   C745    1.452   .     S
C718   C720    1.400   .     A
C719   C721    1.422   .     A
C719   C747    1.453   .     S
C720   C749    1.453   .     S
C720   C722    1.422   .     A
C721   C723    1.417   .     A
C722   C724    1.417   .     A
C723   C751    1.447   .     S
C723   C725    1.387   .     A
C724   C726    1.387   .     A
C724   C753    1.447   .     S
C725   F755    1.360   .     S
C725   C727    1.404   .     A
C726   C728    1.404   .     A
C726   F756    1.360   .     S
C728   C517    1.495   1_565 S
N729   Zn740   2.016   .     S
N730   Zn739   2.016   .     S
O731   Zn739   1.987   .     S
O732   Zn740   1.987   .     S
O733   Zn740   1.985   .     S
O734   Zn739   1.985   .     S
O735   Zn739   1.981   .     S
O736   Zn740   1.981   .     S
O737   Zn740   1.988   .     S
O738   Zn739   1.988   .     S
F741   C785    1.365   .     S
C743   N744    1.158   .     T
C745   N746    1.158   .     T
C747   N748    1.158   .     T
C749   N750    1.158   .     T
C751   N752    1.157   .     T
C753   N754    1.157   .     T
C757   N758    1.158   .     T
C759   N760    1.158   .     T
C761   N762    1.158   .     T
C763   N764    1.158   .     T
C765   N766    1.158   .     T
C767   N768    1.158   .     T
C771   C791    1.472   .     S
C771   O801    1.295   .     A
C771   O803    1.299   .     A
C772   C792    1.472   .     S
C772   O804    1.299   .     A
C772   O802    1.295   .     A
C773   C775    1.416   .     A
C773   C781    1.427   .     A
C773   C827    1.450   .     S
C774   C829    1.450   .     S
C774   C776    1.416   .     A
C774   C782    1.427   .     A
C775   C831    1.444   .     S
C775   N799    1.364   .     A
C776   C833    1.444   .     S
C776   N800    1.364   .     A
C777   N799    1.362   .     A
C777   C835    1.440   .     S
C777   C779    1.404   .     A
C778   N800    1.362   .     A
C778   C837    1.440   .     S
C778   C780    1.404   .     A
C779   C781    1.419   .     A
C779   F839    1.357   .     S
C780   C782    1.419   .     A
C780   F840    1.357   .     S
C782   C361    1.548   1_556 S
C783   C785    1.401   .     S
C783   O805    1.278   .     A
C783   O807    1.284   .     A
C784   C786    1.401   .     S
C784   O808    1.284   .     A
C784   O806    1.278   .     A
C786   C645    1.340   1_655 S
C786   F672    1.365   1_655 S
C787   C813    1.452   .     S
C787   C797    1.411   .     A
C787   C789    1.400   .     A
C788   C798    1.411   .     A
C788   C815    1.452   .     S
C788   C790    1.400   .     A
C789   C791    1.422   .     A
C789   C817    1.453   .     S
C790   C819    1.453   .     S
C790   C792    1.422   .     A
C791   C793    1.417   .     A
C792   C794    1.417   .     A
C793   C821    1.447   .     S
C793   C795    1.387   .     A
C794   C796    1.387   .     A
C794   C823    1.447   .     S
C795   F825    1.360   .     S
C795   C797    1.404   .     A
C796   C798    1.404   .     A
C796   F826    1.360   .     S
C798   C587    1.495   1_565 S
N799   Zn810   2.016   .     S
N800   Zn809   2.016   .     S
O801   Zn809   1.987   .     S
O802   Zn810   1.987   .     S
O803   Zn810   1.985   .     S
O804   Zn809   1.985   .     S
O805   Zn809   1.981   .     S
O806   Zn810   1.981   .     S
O807   Zn810   1.988   .     S
O808   Zn809   1.988   .     S
F811   C645    1.365   1_655 S
C813   N814    1.158   .     T
C815   N816    1.158   .     T
C817   N818    1.158   .     T
C819   N820    1.158   .     T
C821   N822    1.157   .     T
C823   N824    1.157   .     T
C827   N828    1.158   .     T
C829   N830    1.158   .     T
C831   N832    1.158   .     T
C833   N834    1.158   .     T
C835   N836    1.158   .     T
C837   N838    1.158   .     T
