data_str_m3_o10_o17_pcu_sym.24
_audit_creation_date              2020-01-03
_audit_creation_method            'Materials Studio'
_symmetry_space_group_name_H-M    'P1'
_symmetry_Int_Tables_number       1
_symmetry_cell_setting            triclinic
loop_
_symmetry_equiv_pos_as_xyz
  x,y,z
_cell_length_a                    23.3208
_cell_length_b                    25.6594
_cell_length_c                    29.7419
_cell_angle_alpha                 91.0255
_cell_angle_beta                  85.9747
_cell_angle_gamma                 93.6318
loop_
_atom_site_label
_atom_site_type_symbol
_atom_site_fract_x
_atom_site_fract_y
_atom_site_fract_z
_atom_site_U_iso_or_equiv
_atom_site_adp_type
_atom_site_occupancy
O1     O     0.12975   0.24619   0.25299   0.00000  Uiso   1.00
O2     O     0.20358   0.08714   0.24702   0.00000  Uiso   1.00
O3     O     0.22613   0.23721   0.24519   0.00000  Uiso   1.00
O4     O     0.10720   0.09613   0.25482   0.00000  Uiso   1.00
C5     C     0.18191   0.26489   0.24883   0.00000  Uiso   1.00
C6     C     0.15142   0.06844   0.25117   0.00000  Uiso   1.00
O7     O     0.11847   0.17117   0.31998   0.00000  Uiso   1.00
O8     O     0.21486   0.16216   0.18003   0.00000  Uiso   1.00
O9     O     0.21485   0.16219   0.31218   0.00000  Uiso   1.00
O10    O     0.11848   0.17115   0.18783   0.00000  Uiso   1.00
C11    C     0.16743   0.16656   0.33635   0.00000  Uiso   1.00
C12    C     0.16590   0.16677   0.16365   0.00000  Uiso   1.00
Zn13   Zn    0.10231   0.17266   0.25521   0.00000  Uiso   1.00
Zn14   Zn    0.23102   0.16067   0.24479   0.00000  Uiso   1.00
C15    C     0.13984   0.12433   0.09438   0.00000  Uiso   1.00
C16    C     0.19350   0.20900   0.40562   0.00000  Uiso   1.00
C17    C     0.16432   0.16743   0.11614   0.00000  Uiso   1.00
C18    C     0.16902   0.16590   0.38386   0.00000  Uiso   1.00
C19    C     0.18912   0.21047   0.09308   0.00000  Uiso   1.00
C20    C     0.14422   0.12286   0.40692   0.00000  Uiso   1.00
C21    C     0.18994   0.21130   0.04635   0.00000  Uiso   1.00
C22    C     0.14339   0.12203   0.45365   0.00000  Uiso   1.00
C23    C     0.16598   0.16691   0.02343   0.00000  Uiso   1.00
C24    C     0.16736   0.16643   0.47657   0.00000  Uiso   1.00
C25    C     0.14076   0.12295   0.04761   0.00000  Uiso   1.00
C26    C     0.19257   0.21039   0.45239   0.00000  Uiso   1.00
C27    C     0.21438   0.25514   0.02234   0.00000  Uiso   1.00
C28    C     0.11895   0.07819   0.47766   0.00000  Uiso   1.00
C29    C     0.21572   0.25467   0.47523   0.00000  Uiso   1.00
C30    C     0.11761   0.07866   0.02477   0.00000  Uiso   1.00
H31    H     0.12146   0.09196   0.11458   0.00000  Uiso   1.00
H32    H     0.21187   0.24138   0.38542   0.00000  Uiso   1.00
H33    H     0.20746   0.24281   0.11233   0.00000  Uiso   1.00
H34    H     0.12587   0.09052   0.38767   0.00000  Uiso   1.00
C35    C     0.18995   0.31940   0.24814   0.00000  Uiso   1.00
C36    C     0.14338   0.01393   0.25186   0.00000  Uiso   1.00
H37    H     0.23394   0.00308   0.24458   0.00000  Uiso   1.00
H38    H     0.09940   0.33026   0.25542   0.00000  Uiso   1.00
N39    N     0.31678   0.15265   0.23783   0.00000  Uiso   1.00
N40    N     0.01656   0.18068   0.26217   0.00000  Uiso   1.00
H41    H     0.00455   0.12752   0.21601   0.00000  Uiso   1.00
H42    H     0.32879   0.20581   0.28399   0.00000  Uiso   1.00
Br43   Br    0.24597   0.31637   0.05327   0.00000  Uiso   1.00
Br44   Br    0.08736   0.01696   0.44673   0.00000  Uiso   1.00
Br45   Br    0.24917   0.31524   0.44271   0.00000  Uiso   1.00
Br46   Br    0.08416   0.01809   0.05729   0.00000  Uiso   1.00
O47    O     0.46308   0.24619   0.25299   0.00000  Uiso   1.00
O48    O     0.53692   0.08714   0.24702   0.00000  Uiso   1.00
O49    O     0.55946   0.23721   0.24519   0.00000  Uiso   1.00
O50    O     0.44054   0.09613   0.25482   0.00000  Uiso   1.00
C51    C     0.51525   0.26489   0.24883   0.00000  Uiso   1.00
C52    C     0.48475   0.06844   0.25117   0.00000  Uiso   1.00
O53    O     0.45181   0.17117   0.31998   0.00000  Uiso   1.00
O54    O     0.54819   0.16216   0.18003   0.00000  Uiso   1.00
O55    O     0.54819   0.16219   0.31218   0.00000  Uiso   1.00
O56    O     0.45181   0.17115   0.18783   0.00000  Uiso   1.00
C57    C     0.50077   0.16656   0.33635   0.00000  Uiso   1.00
C58    C     0.49923   0.16677   0.16365   0.00000  Uiso   1.00
Zn59   Zn    0.43565   0.17266   0.25521   0.00000  Uiso   1.00
Zn60   Zn    0.56435   0.16067   0.24479   0.00000  Uiso   1.00
C61    C     0.47317   0.12433   0.09438   0.00000  Uiso   1.00
C62    C     0.52683   0.20900   0.40562   0.00000  Uiso   1.00
C63    C     0.49765   0.16743   0.11614   0.00000  Uiso   1.00
C64    C     0.50235   0.16590   0.38386   0.00000  Uiso   1.00
C65    C     0.52245   0.21047   0.09308   0.00000  Uiso   1.00
C66    C     0.47755   0.12286   0.40692   0.00000  Uiso   1.00
C67    C     0.52327   0.21130   0.04635   0.00000  Uiso   1.00
C68    C     0.47673   0.12203   0.45365   0.00000  Uiso   1.00
C69    C     0.49931   0.16691   0.02343   0.00000  Uiso   1.00
C70    C     0.50069   0.16643   0.47657   0.00000  Uiso   1.00
C71    C     0.47410   0.12295   0.04761   0.00000  Uiso   1.00
C72    C     0.52590   0.21039   0.45239   0.00000  Uiso   1.00
C73    C     0.54771   0.25514   0.02234   0.00000  Uiso   1.00
C74    C     0.45229   0.07819   0.47766   0.00000  Uiso   1.00
C75    C     0.54905   0.25467   0.47523   0.00000  Uiso   1.00
C76    C     0.45095   0.07866   0.02477   0.00000  Uiso   1.00
H77    H     0.45480   0.09196   0.11458   0.00000  Uiso   1.00
H78    H     0.54520   0.24138   0.38542   0.00000  Uiso   1.00
H79    H     0.54080   0.24281   0.11233   0.00000  Uiso   1.00
H80    H     0.45920   0.09052   0.38767   0.00000  Uiso   1.00
C81    C     0.52328   0.31940   0.24814   0.00000  Uiso   1.00
C82    C     0.47672   0.01393   0.25186   0.00000  Uiso   1.00
H83    H     0.56727   0.00308   0.24458   0.00000  Uiso   1.00
H84    H     0.43273   0.33026   0.25542   0.00000  Uiso   1.00
N85    N     0.65011   0.15265   0.23783   0.00000  Uiso   1.00
N86    N     0.34989   0.18068   0.26217   0.00000  Uiso   1.00
H87    H     0.33788   0.12752   0.21601   0.00000  Uiso   1.00
H88    H     0.66212   0.20581   0.28399   0.00000  Uiso   1.00
Br89   Br    0.57930   0.31637   0.05327   0.00000  Uiso   1.00
Br90   Br    0.42070   0.01696   0.44673   0.00000  Uiso   1.00
Br91   Br    0.58251   0.31524   0.44271   0.00000  Uiso   1.00
Br92   Br    0.41749   0.01809   0.05729   0.00000  Uiso   1.00
O93    O     0.79642   0.24619   0.25299   0.00000  Uiso   1.00
O94    O     0.87025   0.08714   0.24702   0.00000  Uiso   1.00
O95    O     0.89280   0.23721   0.24519   0.00000  Uiso   1.00
O96    O     0.77387   0.09613   0.25482   0.00000  Uiso   1.00
C97    C     0.84858   0.26489   0.24883   0.00000  Uiso   1.00
C98    C     0.81809   0.06844   0.25117   0.00000  Uiso   1.00
O99    O     0.78514   0.17117   0.31998   0.00000  Uiso   1.00
O100   O     0.88153   0.16216   0.18003   0.00000  Uiso   1.00
O101   O     0.88152   0.16219   0.31218   0.00000  Uiso   1.00
O102   O     0.78515   0.17115   0.18783   0.00000  Uiso   1.00
C103   C     0.83410   0.16656   0.33635   0.00000  Uiso   1.00
C104   C     0.83256   0.16677   0.16365   0.00000  Uiso   1.00
Zn105  Zn    0.76898   0.17266   0.25521   0.00000  Uiso   1.00
Zn106  Zn    0.89769   0.16067   0.24479   0.00000  Uiso   1.00
C107   C     0.80650   0.12433   0.09438   0.00000  Uiso   1.00
C108   C     0.86016   0.20900   0.40562   0.00000  Uiso   1.00
C109   C     0.83098   0.16743   0.11614   0.00000  Uiso   1.00
C110   C     0.83568   0.16590   0.38386   0.00000  Uiso   1.00
C111   C     0.85578   0.21047   0.09308   0.00000  Uiso   1.00
C112   C     0.81088   0.12286   0.40692   0.00000  Uiso   1.00
C113   C     0.85661   0.21130   0.04635   0.00000  Uiso   1.00
C114   C     0.81006   0.12203   0.45365   0.00000  Uiso   1.00
C115   C     0.83264   0.16691   0.02343   0.00000  Uiso   1.00
C116   C     0.83402   0.16643   0.47657   0.00000  Uiso   1.00
C117   C     0.80743   0.12295   0.04761   0.00000  Uiso   1.00
C118   C     0.85924   0.21039   0.45239   0.00000  Uiso   1.00
C119   C     0.88105   0.25514   0.02234   0.00000  Uiso   1.00
C120   C     0.78562   0.07819   0.47766   0.00000  Uiso   1.00
C121   C     0.88239   0.25467   0.47523   0.00000  Uiso   1.00
C122   C     0.78428   0.07866   0.02477   0.00000  Uiso   1.00
H123   H     0.78813   0.09196   0.11458   0.00000  Uiso   1.00
H124   H     0.87854   0.24138   0.38542   0.00000  Uiso   1.00
H125   H     0.87413   0.24281   0.11233   0.00000  Uiso   1.00
H126   H     0.79254   0.09052   0.38767   0.00000  Uiso   1.00
C127   C     0.85662   0.31940   0.24814   0.00000  Uiso   1.00
C128   C     0.81005   0.01393   0.25186   0.00000  Uiso   1.00
H129   H     0.90060   0.00308   0.24458   0.00000  Uiso   1.00
H130   H     0.76606   0.33026   0.25542   0.00000  Uiso   1.00
N131   N     0.98344   0.15265   0.23783   0.00000  Uiso   1.00
N132   N     0.68322   0.18068   0.26217   0.00000  Uiso   1.00
H133   H     0.67121   0.12752   0.21601   0.00000  Uiso   1.00
H134   H     0.99545   0.20581   0.28399   0.00000  Uiso   1.00
Br135  Br    0.91264   0.31637   0.05327   0.00000  Uiso   1.00
Br136  Br    0.75403   0.01696   0.44673   0.00000  Uiso   1.00
Br137  Br    0.91584   0.31524   0.44271   0.00000  Uiso   1.00
Br138  Br    0.75083   0.01809   0.05729   0.00000  Uiso   1.00
O139   O     0.12975   0.57952   0.25299   0.00000  Uiso   1.00
O140   O     0.20358   0.42048   0.24702   0.00000  Uiso   1.00
O141   O     0.22613   0.57054   0.24519   0.00000  Uiso   1.00
O142   O     0.10720   0.42946   0.25482   0.00000  Uiso   1.00
C143   C     0.18191   0.59823   0.24883   0.00000  Uiso   1.00
C144   C     0.15142   0.40177   0.25117   0.00000  Uiso   1.00
O145   O     0.11847   0.50450   0.31998   0.00000  Uiso   1.00
O146   O     0.21486   0.49550   0.18003   0.00000  Uiso   1.00
O147   O     0.21485   0.49552   0.31218   0.00000  Uiso   1.00
O148   O     0.11848   0.50448   0.18783   0.00000  Uiso   1.00
C149   C     0.16743   0.49990   0.33635   0.00000  Uiso   1.00
C150   C     0.16590   0.50010   0.16365   0.00000  Uiso   1.00
Zn151  Zn    0.10231   0.50600   0.25521   0.00000  Uiso   1.00
Zn152  Zn    0.23102   0.49400   0.24479   0.00000  Uiso   1.00
C153   C     0.13984   0.45767   0.09438   0.00000  Uiso   1.00
C154   C     0.19350   0.54233   0.40562   0.00000  Uiso   1.00
C155   C     0.16432   0.50077   0.11614   0.00000  Uiso   1.00
C156   C     0.16902   0.49923   0.38386   0.00000  Uiso   1.00
C157   C     0.18912   0.54380   0.09308   0.00000  Uiso   1.00
C158   C     0.14422   0.45620   0.40692   0.00000  Uiso   1.00
C159   C     0.18994   0.54463   0.04635   0.00000  Uiso   1.00
C160   C     0.14339   0.45537   0.45365   0.00000  Uiso   1.00
C161   C     0.16598   0.50024   0.02343   0.00000  Uiso   1.00
C162   C     0.16736   0.49976   0.47657   0.00000  Uiso   1.00
C163   C     0.14076   0.45628   0.04761   0.00000  Uiso   1.00
C164   C     0.19257   0.54372   0.45239   0.00000  Uiso   1.00
C165   C     0.21438   0.58847   0.02234   0.00000  Uiso   1.00
C166   C     0.11895   0.41153   0.47766   0.00000  Uiso   1.00
C167   C     0.21572   0.58801   0.47523   0.00000  Uiso   1.00
C168   C     0.11761   0.41199   0.02477   0.00000  Uiso   1.00
H169   H     0.12146   0.42529   0.11458   0.00000  Uiso   1.00
H170   H     0.21187   0.57471   0.38542   0.00000  Uiso   1.00
H171   H     0.20746   0.57614   0.11233   0.00000  Uiso   1.00
H172   H     0.12587   0.42386   0.38767   0.00000  Uiso   1.00
C173   C     0.18995   0.65273   0.24814   0.00000  Uiso   1.00
C174   C     0.14338   0.34727   0.25186   0.00000  Uiso   1.00
H175   H     0.23394   0.33641   0.24458   0.00000  Uiso   1.00
H176   H     0.09940   0.66359   0.25542   0.00000  Uiso   1.00
N177   N     0.31678   0.48598   0.23783   0.00000  Uiso   1.00
N178   N     0.01656   0.51402   0.26217   0.00000  Uiso   1.00
H179   H     0.00455   0.46085   0.21601   0.00000  Uiso   1.00
H180   H     0.32879   0.53915   0.28399   0.00000  Uiso   1.00
Br181  Br    0.24597   0.64970   0.05327   0.00000  Uiso   1.00
Br182  Br    0.08736   0.35029   0.44673   0.00000  Uiso   1.00
Br183  Br    0.24917   0.64858   0.44271   0.00000  Uiso   1.00
Br184  Br    0.08416   0.35142   0.05729   0.00000  Uiso   1.00
O185   O     0.46308   0.57952   0.25299   0.00000  Uiso   1.00
O186   O     0.53692   0.42048   0.24702   0.00000  Uiso   1.00
O187   O     0.55946   0.57054   0.24519   0.00000  Uiso   1.00
O188   O     0.44054   0.42946   0.25482   0.00000  Uiso   1.00
C189   C     0.51525   0.59823   0.24883   0.00000  Uiso   1.00
C190   C     0.48475   0.40177   0.25117   0.00000  Uiso   1.00
O191   O     0.45181   0.50450   0.31998   0.00000  Uiso   1.00
O192   O     0.54819   0.49550   0.18003   0.00000  Uiso   1.00
O193   O     0.54819   0.49552   0.31218   0.00000  Uiso   1.00
O194   O     0.45181   0.50448   0.18783   0.00000  Uiso   1.00
C195   C     0.50077   0.49990   0.33635   0.00000  Uiso   1.00
C196   C     0.49923   0.50010   0.16365   0.00000  Uiso   1.00
Zn197  Zn    0.43565   0.50600   0.25521   0.00000  Uiso   1.00
Zn198  Zn    0.56435   0.49400   0.24479   0.00000  Uiso   1.00
C199   C     0.47317   0.45767   0.09438   0.00000  Uiso   1.00
C200   C     0.52683   0.54233   0.40562   0.00000  Uiso   1.00
C201   C     0.49765   0.50077   0.11614   0.00000  Uiso   1.00
C202   C     0.50235   0.49923   0.38386   0.00000  Uiso   1.00
C203   C     0.52245   0.54380   0.09308   0.00000  Uiso   1.00
C204   C     0.47755   0.45620   0.40692   0.00000  Uiso   1.00
C205   C     0.52327   0.54463   0.04635   0.00000  Uiso   1.00
C206   C     0.47673   0.45537   0.45365   0.00000  Uiso   1.00
C207   C     0.49931   0.50024   0.02343   0.00000  Uiso   1.00
C208   C     0.50069   0.49976   0.47657   0.00000  Uiso   1.00
C209   C     0.47410   0.45628   0.04761   0.00000  Uiso   1.00
C210   C     0.52590   0.54372   0.45239   0.00000  Uiso   1.00
C211   C     0.54771   0.58847   0.02234   0.00000  Uiso   1.00
C212   C     0.45229   0.41153   0.47766   0.00000  Uiso   1.00
C213   C     0.54905   0.58801   0.47523   0.00000  Uiso   1.00
C214   C     0.45095   0.41199   0.02477   0.00000  Uiso   1.00
H215   H     0.45480   0.42529   0.11458   0.00000  Uiso   1.00
H216   H     0.54520   0.57471   0.38542   0.00000  Uiso   1.00
H217   H     0.54080   0.57614   0.11233   0.00000  Uiso   1.00
H218   H     0.45920   0.42386   0.38767   0.00000  Uiso   1.00
C219   C     0.52328   0.65273   0.24814   0.00000  Uiso   1.00
C220   C     0.47672   0.34727   0.25186   0.00000  Uiso   1.00
H221   H     0.56727   0.33641   0.24458   0.00000  Uiso   1.00
H222   H     0.43273   0.66359   0.25542   0.00000  Uiso   1.00
N223   N     0.65011   0.48598   0.23783   0.00000  Uiso   1.00
N224   N     0.34989   0.51402   0.26217   0.00000  Uiso   1.00
H225   H     0.33788   0.46085   0.21601   0.00000  Uiso   1.00
H226   H     0.66212   0.53915   0.28399   0.00000  Uiso   1.00
Br227  Br    0.57930   0.64970   0.05327   0.00000  Uiso   1.00
Br228  Br    0.42070   0.35029   0.44673   0.00000  Uiso   1.00
Br229  Br    0.58251   0.64858   0.44271   0.00000  Uiso   1.00
Br230  Br    0.41749   0.35142   0.05729   0.00000  Uiso   1.00
O231   O     0.79642   0.57952   0.25299   0.00000  Uiso   1.00
O232   O     0.87025   0.42048   0.24702   0.00000  Uiso   1.00
O233   O     0.89280   0.57054   0.24519   0.00000  Uiso   1.00
O234   O     0.77387   0.42946   0.25482   0.00000  Uiso   1.00
C235   C     0.84858   0.59823   0.24883   0.00000  Uiso   1.00
C236   C     0.81809   0.40177   0.25117   0.00000  Uiso   1.00
O237   O     0.78514   0.50450   0.31998   0.00000  Uiso   1.00
O238   O     0.88153   0.49550   0.18003   0.00000  Uiso   1.00
O239   O     0.88152   0.49552   0.31218   0.00000  Uiso   1.00
O240   O     0.78515   0.50448   0.18783   0.00000  Uiso   1.00
C241   C     0.83410   0.49990   0.33635   0.00000  Uiso   1.00
C242   C     0.83256   0.50010   0.16365   0.00000  Uiso   1.00
Zn243  Zn    0.76898   0.50600   0.25521   0.00000  Uiso   1.00
Zn244  Zn    0.89769   0.49400   0.24479   0.00000  Uiso   1.00
C245   C     0.80650   0.45767   0.09438   0.00000  Uiso   1.00
C246   C     0.86016   0.54233   0.40562   0.00000  Uiso   1.00
C247   C     0.83098   0.50077   0.11614   0.00000  Uiso   1.00
C248   C     0.83568   0.49923   0.38386   0.00000  Uiso   1.00
C249   C     0.85578   0.54380   0.09308   0.00000  Uiso   1.00
C250   C     0.81088   0.45620   0.40692   0.00000  Uiso   1.00
C251   C     0.85661   0.54463   0.04635   0.00000  Uiso   1.00
C252   C     0.81006   0.45537   0.45365   0.00000  Uiso   1.00
C253   C     0.83264   0.50024   0.02343   0.00000  Uiso   1.00
C254   C     0.83402   0.49976   0.47657   0.00000  Uiso   1.00
C255   C     0.80743   0.45628   0.04761   0.00000  Uiso   1.00
C256   C     0.85924   0.54372   0.45239   0.00000  Uiso   1.00
C257   C     0.88105   0.58847   0.02234   0.00000  Uiso   1.00
C258   C     0.78562   0.41153   0.47766   0.00000  Uiso   1.00
C259   C     0.88239   0.58801   0.47523   0.00000  Uiso   1.00
C260   C     0.78428   0.41199   0.02477   0.00000  Uiso   1.00
H261   H     0.78813   0.42529   0.11458   0.00000  Uiso   1.00
H262   H     0.87854   0.57471   0.38542   0.00000  Uiso   1.00
H263   H     0.87413   0.57614   0.11233   0.00000  Uiso   1.00
H264   H     0.79254   0.42386   0.38767   0.00000  Uiso   1.00
C265   C     0.85662   0.65273   0.24814   0.00000  Uiso   1.00
C266   C     0.81005   0.34727   0.25186   0.00000  Uiso   1.00
H267   H     0.90060   0.33641   0.24458   0.00000  Uiso   1.00
H268   H     0.76606   0.66359   0.25542   0.00000  Uiso   1.00
N269   N     0.98344   0.48598   0.23783   0.00000  Uiso   1.00
N270   N     0.68322   0.51402   0.26217   0.00000  Uiso   1.00
H271   H     0.67121   0.46085   0.21601   0.00000  Uiso   1.00
H272   H     0.99545   0.53915   0.28399   0.00000  Uiso   1.00
Br273  Br    0.91264   0.64970   0.05327   0.00000  Uiso   1.00
Br274  Br    0.75403   0.35029   0.44673   0.00000  Uiso   1.00
Br275  Br    0.91584   0.64858   0.44271   0.00000  Uiso   1.00
Br276  Br    0.75083   0.35142   0.05729   0.00000  Uiso   1.00
O277   O     0.12975   0.91286   0.25299   0.00000  Uiso   1.00
O278   O     0.20358   0.75381   0.24702   0.00000  Uiso   1.00
O279   O     0.22613   0.90387   0.24519   0.00000  Uiso   1.00
O280   O     0.10720   0.76279   0.25482   0.00000  Uiso   1.00
C281   C     0.18191   0.93156   0.24883   0.00000  Uiso   1.00
C282   C     0.15142   0.73511   0.25117   0.00000  Uiso   1.00
O283   O     0.11847   0.83784   0.31998   0.00000  Uiso   1.00
O284   O     0.21486   0.82883   0.18003   0.00000  Uiso   1.00
O285   O     0.21485   0.82885   0.31218   0.00000  Uiso   1.00
O286   O     0.11848   0.83781   0.18783   0.00000  Uiso   1.00
C287   C     0.16743   0.83323   0.33635   0.00000  Uiso   1.00
C288   C     0.16590   0.83344   0.16365   0.00000  Uiso   1.00
Zn289  Zn    0.10231   0.83933   0.25521   0.00000  Uiso   1.00
Zn290  Zn    0.23102   0.82734   0.24479   0.00000  Uiso   1.00
C291   C     0.13984   0.79100   0.09438   0.00000  Uiso   1.00
C292   C     0.19350   0.87567   0.40562   0.00000  Uiso   1.00
C293   C     0.16432   0.83410   0.11614   0.00000  Uiso   1.00
C294   C     0.16902   0.83257   0.38386   0.00000  Uiso   1.00
C295   C     0.18912   0.87714   0.09308   0.00000  Uiso   1.00
C296   C     0.14422   0.78953   0.40692   0.00000  Uiso   1.00
C297   C     0.18994   0.87797   0.04635   0.00000  Uiso   1.00
C298   C     0.14339   0.78870   0.45365   0.00000  Uiso   1.00
C299   C     0.16598   0.83357   0.02343   0.00000  Uiso   1.00
C300   C     0.16736   0.83309   0.47657   0.00000  Uiso   1.00
C301   C     0.14076   0.78961   0.04761   0.00000  Uiso   1.00
C302   C     0.19257   0.87705   0.45239   0.00000  Uiso   1.00
C303   C     0.21438   0.92181   0.02234   0.00000  Uiso   1.00
C304   C     0.11895   0.74486   0.47766   0.00000  Uiso   1.00
C305   C     0.21572   0.92134   0.47523   0.00000  Uiso   1.00
C306   C     0.11761   0.74533   0.02477   0.00000  Uiso   1.00
H307   H     0.12146   0.75862   0.11458   0.00000  Uiso   1.00
H308   H     0.21187   0.90804   0.38542   0.00000  Uiso   1.00
H309   H     0.20746   0.90947   0.11233   0.00000  Uiso   1.00
H310   H     0.12587   0.75719   0.38767   0.00000  Uiso   1.00
C311   C     0.18995   0.98607   0.24814   0.00000  Uiso   1.00
C312   C     0.14338   0.68060   0.25186   0.00000  Uiso   1.00
H313   H     0.23394   0.66974   0.24458   0.00000  Uiso   1.00
H314   H     0.09940   0.99692   0.25542   0.00000  Uiso   1.00
N315   N     0.31678   0.81932   0.23783   0.00000  Uiso   1.00
N316   N     0.01656   0.84735   0.26217   0.00000  Uiso   1.00
H317   H     0.00455   0.79419   0.21601   0.00000  Uiso   1.00
H318   H     0.32879   0.87248   0.28399   0.00000  Uiso   1.00
Br319  Br    0.24597   0.98304   0.05327   0.00000  Uiso   1.00
Br320  Br    0.08736   0.68363   0.44673   0.00000  Uiso   1.00
Br321  Br    0.24917   0.98191   0.44271   0.00000  Uiso   1.00
Br322  Br    0.08416   0.68476   0.05729   0.00000  Uiso   1.00
O323   O     0.46308   0.91286   0.25299   0.00000  Uiso   1.00
O324   O     0.53692   0.75381   0.24702   0.00000  Uiso   1.00
O325   O     0.55946   0.90387   0.24519   0.00000  Uiso   1.00
O326   O     0.44054   0.76279   0.25482   0.00000  Uiso   1.00
C327   C     0.51525   0.93156   0.24883   0.00000  Uiso   1.00
C328   C     0.48475   0.73511   0.25117   0.00000  Uiso   1.00
O329   O     0.45181   0.83784   0.31998   0.00000  Uiso   1.00
O330   O     0.54819   0.82883   0.18003   0.00000  Uiso   1.00
O331   O     0.54819   0.82885   0.31218   0.00000  Uiso   1.00
O332   O     0.45181   0.83781   0.18783   0.00000  Uiso   1.00
C333   C     0.50077   0.83323   0.33635   0.00000  Uiso   1.00
C334   C     0.49923   0.83344   0.16365   0.00000  Uiso   1.00
Zn335  Zn    0.43565   0.83933   0.25521   0.00000  Uiso   1.00
Zn336  Zn    0.56435   0.82734   0.24479   0.00000  Uiso   1.00
C337   C     0.47317   0.79100   0.09438   0.00000  Uiso   1.00
C338   C     0.52683   0.87567   0.40562   0.00000  Uiso   1.00
C339   C     0.49765   0.83410   0.11614   0.00000  Uiso   1.00
C340   C     0.50235   0.83257   0.38386   0.00000  Uiso   1.00
C341   C     0.52245   0.87714   0.09308   0.00000  Uiso   1.00
C342   C     0.47755   0.78953   0.40692   0.00000  Uiso   1.00
C343   C     0.52327   0.87797   0.04635   0.00000  Uiso   1.00
C344   C     0.47673   0.78870   0.45365   0.00000  Uiso   1.00
C345   C     0.49931   0.83357   0.02343   0.00000  Uiso   1.00
C346   C     0.50069   0.83309   0.47657   0.00000  Uiso   1.00
C347   C     0.47410   0.78961   0.04761   0.00000  Uiso   1.00
C348   C     0.52590   0.87705   0.45239   0.00000  Uiso   1.00
C349   C     0.54771   0.92181   0.02234   0.00000  Uiso   1.00
C350   C     0.45229   0.74486   0.47766   0.00000  Uiso   1.00
C351   C     0.54905   0.92134   0.47523   0.00000  Uiso   1.00
C352   C     0.45095   0.74533   0.02477   0.00000  Uiso   1.00
H353   H     0.45480   0.75862   0.11458   0.00000  Uiso   1.00
H354   H     0.54520   0.90804   0.38542   0.00000  Uiso   1.00
H355   H     0.54080   0.90947   0.11233   0.00000  Uiso   1.00
H356   H     0.45920   0.75719   0.38767   0.00000  Uiso   1.00
C357   C     0.52328   0.98607   0.24814   0.00000  Uiso   1.00
C358   C     0.47672   0.68060   0.25186   0.00000  Uiso   1.00
H359   H     0.56727   0.66974   0.24458   0.00000  Uiso   1.00
H360   H     0.43273   0.99692   0.25542   0.00000  Uiso   1.00
N361   N     0.65011   0.81932   0.23783   0.00000  Uiso   1.00
N362   N     0.34989   0.84735   0.26217   0.00000  Uiso   1.00
H363   H     0.33788   0.79419   0.21601   0.00000  Uiso   1.00
H364   H     0.66212   0.87248   0.28399   0.00000  Uiso   1.00
Br365  Br    0.57930   0.98304   0.05327   0.00000  Uiso   1.00
Br366  Br    0.42070   0.68363   0.44673   0.00000  Uiso   1.00
Br367  Br    0.58251   0.98191   0.44271   0.00000  Uiso   1.00
Br368  Br    0.41749   0.68476   0.05729   0.00000  Uiso   1.00
O369   O     0.79642   0.91286   0.25299   0.00000  Uiso   1.00
O370   O     0.87025   0.75381   0.24702   0.00000  Uiso   1.00
O371   O     0.89280   0.90387   0.24519   0.00000  Uiso   1.00
O372   O     0.77387   0.76279   0.25482   0.00000  Uiso   1.00
C373   C     0.84858   0.93156   0.24883   0.00000  Uiso   1.00
C374   C     0.81809   0.73511   0.25117   0.00000  Uiso   1.00
O375   O     0.78514   0.83784   0.31998   0.00000  Uiso   1.00
O376   O     0.88153   0.82883   0.18003   0.00000  Uiso   1.00
O377   O     0.88152   0.82885   0.31218   0.00000  Uiso   1.00
O378   O     0.78515   0.83781   0.18783   0.00000  Uiso   1.00
C379   C     0.83410   0.83323   0.33635   0.00000  Uiso   1.00
C380   C     0.83256   0.83344   0.16365   0.00000  Uiso   1.00
Zn381  Zn    0.76898   0.83933   0.25521   0.00000  Uiso   1.00
Zn382  Zn    0.89769   0.82734   0.24479   0.00000  Uiso   1.00
C383   C     0.80650   0.79100   0.09438   0.00000  Uiso   1.00
C384   C     0.86016   0.87567   0.40562   0.00000  Uiso   1.00
C385   C     0.83098   0.83410   0.11614   0.00000  Uiso   1.00
C386   C     0.83568   0.83257   0.38386   0.00000  Uiso   1.00
C387   C     0.85578   0.87714   0.09308   0.00000  Uiso   1.00
C388   C     0.81088   0.78953   0.40692   0.00000  Uiso   1.00
C389   C     0.85661   0.87797   0.04635   0.00000  Uiso   1.00
C390   C     0.81006   0.78870   0.45365   0.00000  Uiso   1.00
C391   C     0.83264   0.83357   0.02343   0.00000  Uiso   1.00
C392   C     0.83402   0.83309   0.47657   0.00000  Uiso   1.00
C393   C     0.80743   0.78961   0.04761   0.00000  Uiso   1.00
C394   C     0.85924   0.87705   0.45239   0.00000  Uiso   1.00
C395   C     0.88105   0.92181   0.02234   0.00000  Uiso   1.00
C396   C     0.78562   0.74486   0.47766   0.00000  Uiso   1.00
C397   C     0.88239   0.92134   0.47523   0.00000  Uiso   1.00
C398   C     0.78428   0.74533   0.02477   0.00000  Uiso   1.00
H399   H     0.78813   0.75862   0.11458   0.00000  Uiso   1.00
H400   H     0.87854   0.90804   0.38542   0.00000  Uiso   1.00
H401   H     0.87413   0.90947   0.11233   0.00000  Uiso   1.00
H402   H     0.79254   0.75719   0.38767   0.00000  Uiso   1.00
C403   C     0.85662   0.98607   0.24814   0.00000  Uiso   1.00
C404   C     0.81005   0.68060   0.25186   0.00000  Uiso   1.00
H405   H     0.90060   0.66974   0.24458   0.00000  Uiso   1.00
H406   H     0.76606   0.99692   0.25542   0.00000  Uiso   1.00
N407   N     0.98344   0.81932   0.23783   0.00000  Uiso   1.00
N408   N     0.68322   0.84735   0.26217   0.00000  Uiso   1.00
H409   H     0.67121   0.79419   0.21601   0.00000  Uiso   1.00
H410   H     0.99545   0.87248   0.28399   0.00000  Uiso   1.00
Br411  Br    0.91264   0.98304   0.05327   0.00000  Uiso   1.00
Br412  Br    0.75403   0.68363   0.44673   0.00000  Uiso   1.00
Br413  Br    0.91584   0.98191   0.44271   0.00000  Uiso   1.00
Br414  Br    0.75083   0.68476   0.05729   0.00000  Uiso   1.00
O415   O     0.12975   0.24619   0.75299   0.00000  Uiso   1.00
O416   O     0.20358   0.08714   0.74702   0.00000  Uiso   1.00
O417   O     0.22613   0.23721   0.74519   0.00000  Uiso   1.00
O418   O     0.10720   0.09613   0.75482   0.00000  Uiso   1.00
C419   C     0.18191   0.26489   0.74883   0.00000  Uiso   1.00
C420   C     0.15142   0.06844   0.75117   0.00000  Uiso   1.00
O421   O     0.11847   0.17117   0.81998   0.00000  Uiso   1.00
O422   O     0.21486   0.16216   0.68003   0.00000  Uiso   1.00
O423   O     0.21485   0.16219   0.81218   0.00000  Uiso   1.00
O424   O     0.11848   0.17115   0.68783   0.00000  Uiso   1.00
C425   C     0.16743   0.16656   0.83635   0.00000  Uiso   1.00
C426   C     0.16590   0.16677   0.66365   0.00000  Uiso   1.00
Zn427  Zn    0.10231   0.17266   0.75521   0.00000  Uiso   1.00
Zn428  Zn    0.23102   0.16067   0.74479   0.00000  Uiso   1.00
C429   C     0.13984   0.12433   0.59438   0.00000  Uiso   1.00
C430   C     0.19350   0.20900   0.90562   0.00000  Uiso   1.00
C431   C     0.16432   0.16743   0.61614   0.00000  Uiso   1.00
C432   C     0.16902   0.16590   0.88386   0.00000  Uiso   1.00
C433   C     0.18912   0.21047   0.59308   0.00000  Uiso   1.00
C434   C     0.14422   0.12286   0.90692   0.00000  Uiso   1.00
C435   C     0.18994   0.21130   0.54635   0.00000  Uiso   1.00
C436   C     0.14339   0.12203   0.95365   0.00000  Uiso   1.00
C437   C     0.16598   0.16691   0.52343   0.00000  Uiso   1.00
C438   C     0.16736   0.16643   0.97657   0.00000  Uiso   1.00
C439   C     0.14076   0.12295   0.54761   0.00000  Uiso   1.00
C440   C     0.19257   0.21039   0.95239   0.00000  Uiso   1.00
C441   C     0.21438   0.25514   0.52234   0.00000  Uiso   1.00
C442   C     0.11895   0.07819   0.97766   0.00000  Uiso   1.00
C443   C     0.21572   0.25467   0.97523   0.00000  Uiso   1.00
C444   C     0.11761   0.07866   0.52477   0.00000  Uiso   1.00
H445   H     0.12146   0.09196   0.61458   0.00000  Uiso   1.00
H446   H     0.21187   0.24138   0.88542   0.00000  Uiso   1.00
H447   H     0.20746   0.24281   0.61233   0.00000  Uiso   1.00
H448   H     0.12587   0.09052   0.88767   0.00000  Uiso   1.00
C449   C     0.18995   0.31940   0.74814   0.00000  Uiso   1.00
C450   C     0.14338   0.01393   0.75186   0.00000  Uiso   1.00
H451   H     0.23394   0.00308   0.74458   0.00000  Uiso   1.00
H452   H     0.09940   0.33026   0.75542   0.00000  Uiso   1.00
N453   N     0.31678   0.15265   0.73783   0.00000  Uiso   1.00
N454   N     0.01656   0.18068   0.76217   0.00000  Uiso   1.00
H455   H     0.00455   0.12752   0.71601   0.00000  Uiso   1.00
H456   H     0.32879   0.20581   0.78399   0.00000  Uiso   1.00
Br457  Br    0.24597   0.31637   0.55327   0.00000  Uiso   1.00
Br458  Br    0.08736   0.01696   0.94673   0.00000  Uiso   1.00
Br459  Br    0.24917   0.31524   0.94271   0.00000  Uiso   1.00
Br460  Br    0.08416   0.01809   0.55729   0.00000  Uiso   1.00
O461   O     0.46308   0.24619   0.75299   0.00000  Uiso   1.00
O462   O     0.53692   0.08714   0.74702   0.00000  Uiso   1.00
O463   O     0.55946   0.23721   0.74519   0.00000  Uiso   1.00
O464   O     0.44054   0.09613   0.75482   0.00000  Uiso   1.00
C465   C     0.51525   0.26489   0.74883   0.00000  Uiso   1.00
C466   C     0.48475   0.06844   0.75117   0.00000  Uiso   1.00
O467   O     0.45181   0.17117   0.81998   0.00000  Uiso   1.00
O468   O     0.54819   0.16216   0.68003   0.00000  Uiso   1.00
O469   O     0.54819   0.16219   0.81218   0.00000  Uiso   1.00
O470   O     0.45181   0.17115   0.68783   0.00000  Uiso   1.00
C471   C     0.50077   0.16656   0.83635   0.00000  Uiso   1.00
C472   C     0.49923   0.16677   0.66365   0.00000  Uiso   1.00
Zn473  Zn    0.43565   0.17266   0.75521   0.00000  Uiso   1.00
Zn474  Zn    0.56435   0.16067   0.74479   0.00000  Uiso   1.00
C475   C     0.47317   0.12433   0.59438   0.00000  Uiso   1.00
C476   C     0.52683   0.20900   0.90562   0.00000  Uiso   1.00
C477   C     0.49765   0.16743   0.61614   0.00000  Uiso   1.00
C478   C     0.50235   0.16590   0.88386   0.00000  Uiso   1.00
C479   C     0.52245   0.21047   0.59308   0.00000  Uiso   1.00
C480   C     0.47755   0.12286   0.90692   0.00000  Uiso   1.00
C481   C     0.52327   0.21130   0.54635   0.00000  Uiso   1.00
C482   C     0.47673   0.12203   0.95365   0.00000  Uiso   1.00
C483   C     0.49931   0.16691   0.52343   0.00000  Uiso   1.00
C484   C     0.50069   0.16643   0.97657   0.00000  Uiso   1.00
C485   C     0.47410   0.12295   0.54761   0.00000  Uiso   1.00
C486   C     0.52590   0.21039   0.95239   0.00000  Uiso   1.00
C487   C     0.54771   0.25514   0.52234   0.00000  Uiso   1.00
C488   C     0.45229   0.07819   0.97766   0.00000  Uiso   1.00
C489   C     0.54905   0.25467   0.97523   0.00000  Uiso   1.00
C490   C     0.45095   0.07866   0.52477   0.00000  Uiso   1.00
H491   H     0.45480   0.09196   0.61458   0.00000  Uiso   1.00
H492   H     0.54520   0.24138   0.88542   0.00000  Uiso   1.00
H493   H     0.54080   0.24281   0.61233   0.00000  Uiso   1.00
H494   H     0.45920   0.09052   0.88767   0.00000  Uiso   1.00
C495   C     0.52328   0.31940   0.74814   0.00000  Uiso   1.00
C496   C     0.47672   0.01393   0.75186   0.00000  Uiso   1.00
H497   H     0.56727   0.00308   0.74458   0.00000  Uiso   1.00
H498   H     0.43273   0.33026   0.75542   0.00000  Uiso   1.00
N499   N     0.65011   0.15265   0.73783   0.00000  Uiso   1.00
N500   N     0.34989   0.18068   0.76217   0.00000  Uiso   1.00
H501   H     0.33788   0.12752   0.71601   0.00000  Uiso   1.00
H502   H     0.66212   0.20581   0.78399   0.00000  Uiso   1.00
Br503  Br    0.57930   0.31637   0.55327   0.00000  Uiso   1.00
Br504  Br    0.42070   0.01696   0.94673   0.00000  Uiso   1.00
Br505  Br    0.58251   0.31524   0.94271   0.00000  Uiso   1.00
Br506  Br    0.41749   0.01809   0.55729   0.00000  Uiso   1.00
O507   O     0.79642   0.24619   0.75299   0.00000  Uiso   1.00
O508   O     0.87025   0.08714   0.74702   0.00000  Uiso   1.00
O509   O     0.89280   0.23721   0.74519   0.00000  Uiso   1.00
O510   O     0.77387   0.09613   0.75482   0.00000  Uiso   1.00
C511   C     0.84858   0.26489   0.74883   0.00000  Uiso   1.00
C512   C     0.81809   0.06844   0.75117   0.00000  Uiso   1.00
O513   O     0.78514   0.17117   0.81998   0.00000  Uiso   1.00
O514   O     0.88153   0.16216   0.68003   0.00000  Uiso   1.00
O515   O     0.88152   0.16219   0.81218   0.00000  Uiso   1.00
O516   O     0.78515   0.17115   0.68783   0.00000  Uiso   1.00
C517   C     0.83410   0.16656   0.83635   0.00000  Uiso   1.00
C518   C     0.83256   0.16677   0.66365   0.00000  Uiso   1.00
Zn519  Zn    0.76898   0.17266   0.75521   0.00000  Uiso   1.00
Zn520  Zn    0.89769   0.16067   0.74479   0.00000  Uiso   1.00
C521   C     0.80650   0.12433   0.59438   0.00000  Uiso   1.00
C522   C     0.86016   0.20900   0.90562   0.00000  Uiso   1.00
C523   C     0.83098   0.16743   0.61614   0.00000  Uiso   1.00
C524   C     0.83568   0.16590   0.88386   0.00000  Uiso   1.00
C525   C     0.85578   0.21047   0.59308   0.00000  Uiso   1.00
C526   C     0.81088   0.12286   0.90692   0.00000  Uiso   1.00
C527   C     0.85661   0.21130   0.54635   0.00000  Uiso   1.00
C528   C     0.81006   0.12203   0.95365   0.00000  Uiso   1.00
C529   C     0.83264   0.16691   0.52343   0.00000  Uiso   1.00
C530   C     0.83402   0.16643   0.97657   0.00000  Uiso   1.00
C531   C     0.80743   0.12295   0.54761   0.00000  Uiso   1.00
C532   C     0.85924   0.21039   0.95239   0.00000  Uiso   1.00
C533   C     0.88105   0.25514   0.52234   0.00000  Uiso   1.00
C534   C     0.78562   0.07819   0.97766   0.00000  Uiso   1.00
C535   C     0.88239   0.25467   0.97523   0.00000  Uiso   1.00
C536   C     0.78428   0.07866   0.52477   0.00000  Uiso   1.00
H537   H     0.78813   0.09196   0.61458   0.00000  Uiso   1.00
H538   H     0.87854   0.24138   0.88542   0.00000  Uiso   1.00
H539   H     0.87413   0.24281   0.61233   0.00000  Uiso   1.00
H540   H     0.79254   0.09052   0.88767   0.00000  Uiso   1.00
C541   C     0.85662   0.31940   0.74814   0.00000  Uiso   1.00
C542   C     0.81005   0.01393   0.75186   0.00000  Uiso   1.00
H543   H     0.90060   0.00308   0.74458   0.00000  Uiso   1.00
H544   H     0.76606   0.33026   0.75542   0.00000  Uiso   1.00
N545   N     0.98344   0.15265   0.73783   0.00000  Uiso   1.00
N546   N     0.68322   0.18068   0.76217   0.00000  Uiso   1.00
H547   H     0.67121   0.12752   0.71601   0.00000  Uiso   1.00
H548   H     0.99545   0.20581   0.78399   0.00000  Uiso   1.00
Br549  Br    0.91264   0.31637   0.55327   0.00000  Uiso   1.00
Br550  Br    0.75403   0.01696   0.94673   0.00000  Uiso   1.00
Br551  Br    0.91584   0.31524   0.94271   0.00000  Uiso   1.00
Br552  Br    0.75083   0.01809   0.55729   0.00000  Uiso   1.00
O553   O     0.12975   0.57952   0.75299   0.00000  Uiso   1.00
O554   O     0.20358   0.42048   0.74702   0.00000  Uiso   1.00
O555   O     0.22613   0.57054   0.74519   0.00000  Uiso   1.00
O556   O     0.10720   0.42946   0.75482   0.00000  Uiso   1.00
C557   C     0.18191   0.59823   0.74883   0.00000  Uiso   1.00
C558   C     0.15142   0.40177   0.75117   0.00000  Uiso   1.00
O559   O     0.11847   0.50450   0.81998   0.00000  Uiso   1.00
O560   O     0.21486   0.49550   0.68003   0.00000  Uiso   1.00
O561   O     0.21485   0.49552   0.81218   0.00000  Uiso   1.00
O562   O     0.11848   0.50448   0.68783   0.00000  Uiso   1.00
C563   C     0.16743   0.49990   0.83635   0.00000  Uiso   1.00
C564   C     0.16590   0.50010   0.66365   0.00000  Uiso   1.00
Zn565  Zn    0.10231   0.50600   0.75521   0.00000  Uiso   1.00
Zn566  Zn    0.23102   0.49400   0.74479   0.00000  Uiso   1.00
C567   C     0.13984   0.45767   0.59438   0.00000  Uiso   1.00
C568   C     0.19350   0.54233   0.90562   0.00000  Uiso   1.00
C569   C     0.16432   0.50077   0.61614   0.00000  Uiso   1.00
C570   C     0.16902   0.49923   0.88386   0.00000  Uiso   1.00
C571   C     0.18912   0.54380   0.59308   0.00000  Uiso   1.00
C572   C     0.14422   0.45620   0.90692   0.00000  Uiso   1.00
C573   C     0.18994   0.54463   0.54635   0.00000  Uiso   1.00
C574   C     0.14339   0.45537   0.95365   0.00000  Uiso   1.00
C575   C     0.16598   0.50024   0.52343   0.00000  Uiso   1.00
C576   C     0.16736   0.49976   0.97657   0.00000  Uiso   1.00
C577   C     0.14076   0.45628   0.54761   0.00000  Uiso   1.00
C578   C     0.19257   0.54372   0.95239   0.00000  Uiso   1.00
C579   C     0.21438   0.58847   0.52234   0.00000  Uiso   1.00
C580   C     0.11895   0.41153   0.97766   0.00000  Uiso   1.00
C581   C     0.21572   0.58801   0.97523   0.00000  Uiso   1.00
C582   C     0.11761   0.41199   0.52477   0.00000  Uiso   1.00
H583   H     0.12146   0.42529   0.61458   0.00000  Uiso   1.00
H584   H     0.21187   0.57471   0.88542   0.00000  Uiso   1.00
H585   H     0.20746   0.57614   0.61233   0.00000  Uiso   1.00
H586   H     0.12587   0.42386   0.88767   0.00000  Uiso   1.00
C587   C     0.18995   0.65273   0.74814   0.00000  Uiso   1.00
C588   C     0.14338   0.34727   0.75186   0.00000  Uiso   1.00
H589   H     0.23394   0.33641   0.74458   0.00000  Uiso   1.00
H590   H     0.09940   0.66359   0.75542   0.00000  Uiso   1.00
N591   N     0.31678   0.48598   0.73783   0.00000  Uiso   1.00
N592   N     0.01656   0.51402   0.76217   0.00000  Uiso   1.00
H593   H     0.00455   0.46085   0.71601   0.00000  Uiso   1.00
H594   H     0.32879   0.53915   0.78399   0.00000  Uiso   1.00
Br595  Br    0.24597   0.64970   0.55327   0.00000  Uiso   1.00
Br596  Br    0.08736   0.35029   0.94673   0.00000  Uiso   1.00
Br597  Br    0.24917   0.64858   0.94271   0.00000  Uiso   1.00
Br598  Br    0.08416   0.35142   0.55729   0.00000  Uiso   1.00
O599   O     0.46308   0.57952   0.75299   0.00000  Uiso   1.00
O600   O     0.53692   0.42048   0.74702   0.00000  Uiso   1.00
O601   O     0.55946   0.57054   0.74519   0.00000  Uiso   1.00
O602   O     0.44054   0.42946   0.75482   0.00000  Uiso   1.00
C603   C     0.51525   0.59823   0.74883   0.00000  Uiso   1.00
C604   C     0.48475   0.40177   0.75117   0.00000  Uiso   1.00
O605   O     0.45181   0.50450   0.81998   0.00000  Uiso   1.00
O606   O     0.54819   0.49550   0.68003   0.00000  Uiso   1.00
O607   O     0.54819   0.49552   0.81218   0.00000  Uiso   1.00
O608   O     0.45181   0.50448   0.68783   0.00000  Uiso   1.00
C609   C     0.50077   0.49990   0.83635   0.00000  Uiso   1.00
C610   C     0.49923   0.50010   0.66365   0.00000  Uiso   1.00
Zn611  Zn    0.43565   0.50600   0.75521   0.00000  Uiso   1.00
Zn612  Zn    0.56435   0.49400   0.74479   0.00000  Uiso   1.00
C613   C     0.47317   0.45767   0.59438   0.00000  Uiso   1.00
C614   C     0.52683   0.54233   0.90562   0.00000  Uiso   1.00
C615   C     0.49765   0.50077   0.61614   0.00000  Uiso   1.00
C616   C     0.50235   0.49923   0.88386   0.00000  Uiso   1.00
C617   C     0.52245   0.54380   0.59308   0.00000  Uiso   1.00
C618   C     0.47755   0.45620   0.90692   0.00000  Uiso   1.00
C619   C     0.52327   0.54463   0.54635   0.00000  Uiso   1.00
C620   C     0.47673   0.45537   0.95365   0.00000  Uiso   1.00
C621   C     0.49931   0.50024   0.52343   0.00000  Uiso   1.00
C622   C     0.50069   0.49976   0.97657   0.00000  Uiso   1.00
C623   C     0.47410   0.45628   0.54761   0.00000  Uiso   1.00
C624   C     0.52590   0.54372   0.95239   0.00000  Uiso   1.00
C625   C     0.54771   0.58847   0.52234   0.00000  Uiso   1.00
C626   C     0.45229   0.41153   0.97766   0.00000  Uiso   1.00
C627   C     0.54905   0.58801   0.97523   0.00000  Uiso   1.00
C628   C     0.45095   0.41199   0.52477   0.00000  Uiso   1.00
H629   H     0.45480   0.42529   0.61458   0.00000  Uiso   1.00
H630   H     0.54520   0.57471   0.88542   0.00000  Uiso   1.00
H631   H     0.54080   0.57614   0.61233   0.00000  Uiso   1.00
H632   H     0.45920   0.42386   0.88767   0.00000  Uiso   1.00
C633   C     0.52328   0.65273   0.74814   0.00000  Uiso   1.00
C634   C     0.47672   0.34727   0.75186   0.00000  Uiso   1.00
H635   H     0.56727   0.33641   0.74458   0.00000  Uiso   1.00
H636   H     0.43273   0.66359   0.75542   0.00000  Uiso   1.00
N637   N     0.65011   0.48598   0.73783   0.00000  Uiso   1.00
N638   N     0.34989   0.51402   0.76217   0.00000  Uiso   1.00
H639   H     0.33788   0.46085   0.71601   0.00000  Uiso   1.00
H640   H     0.66212   0.53915   0.78399   0.00000  Uiso   1.00
Br641  Br    0.57930   0.64970   0.55327   0.00000  Uiso   1.00
Br642  Br    0.42070   0.35029   0.94673   0.00000  Uiso   1.00
Br643  Br    0.58251   0.64858   0.94271   0.00000  Uiso   1.00
Br644  Br    0.41749   0.35142   0.55729   0.00000  Uiso   1.00
O645   O     0.79642   0.57952   0.75299   0.00000  Uiso   1.00
O646   O     0.87025   0.42048   0.74702   0.00000  Uiso   1.00
O647   O     0.89280   0.57054   0.74519   0.00000  Uiso   1.00
O648   O     0.77387   0.42946   0.75482   0.00000  Uiso   1.00
C649   C     0.84858   0.59823   0.74883   0.00000  Uiso   1.00
C650   C     0.81809   0.40177   0.75117   0.00000  Uiso   1.00
O651   O     0.78514   0.50450   0.81998   0.00000  Uiso   1.00
O652   O     0.88153   0.49550   0.68003   0.00000  Uiso   1.00
O653   O     0.88152   0.49552   0.81218   0.00000  Uiso   1.00
O654   O     0.78515   0.50448   0.68783   0.00000  Uiso   1.00
C655   C     0.83410   0.49990   0.83635   0.00000  Uiso   1.00
C656   C     0.83256   0.50010   0.66365   0.00000  Uiso   1.00
Zn657  Zn    0.76898   0.50600   0.75521   0.00000  Uiso   1.00
Zn658  Zn    0.89769   0.49400   0.74479   0.00000  Uiso   1.00
C659   C     0.80650   0.45767   0.59438   0.00000  Uiso   1.00
C660   C     0.86016   0.54233   0.90562   0.00000  Uiso   1.00
C661   C     0.83098   0.50077   0.61614   0.00000  Uiso   1.00
C662   C     0.83568   0.49923   0.88386   0.00000  Uiso   1.00
C663   C     0.85578   0.54380   0.59308   0.00000  Uiso   1.00
C664   C     0.81088   0.45620   0.90692   0.00000  Uiso   1.00
C665   C     0.85661   0.54463   0.54635   0.00000  Uiso   1.00
C666   C     0.81006   0.45537   0.95365   0.00000  Uiso   1.00
C667   C     0.83264   0.50024   0.52343   0.00000  Uiso   1.00
C668   C     0.83402   0.49976   0.97657   0.00000  Uiso   1.00
C669   C     0.80743   0.45628   0.54761   0.00000  Uiso   1.00
C670   C     0.85924   0.54372   0.95239   0.00000  Uiso   1.00
C671   C     0.88105   0.58847   0.52234   0.00000  Uiso   1.00
C672   C     0.78562   0.41153   0.97766   0.00000  Uiso   1.00
C673   C     0.88239   0.58801   0.97523   0.00000  Uiso   1.00
C674   C     0.78428   0.41199   0.52477   0.00000  Uiso   1.00
H675   H     0.78813   0.42529   0.61458   0.00000  Uiso   1.00
H676   H     0.87854   0.57471   0.88542   0.00000  Uiso   1.00
H677   H     0.87413   0.57614   0.61233   0.00000  Uiso   1.00
H678   H     0.79254   0.42386   0.88767   0.00000  Uiso   1.00
C679   C     0.85662   0.65273   0.74814   0.00000  Uiso   1.00
C680   C     0.81005   0.34727   0.75186   0.00000  Uiso   1.00
H681   H     0.90060   0.33641   0.74458   0.00000  Uiso   1.00
H682   H     0.76606   0.66359   0.75542   0.00000  Uiso   1.00
N683   N     0.98344   0.48598   0.73783   0.00000  Uiso   1.00
N684   N     0.68322   0.51402   0.76217   0.00000  Uiso   1.00
H685   H     0.67121   0.46085   0.71601   0.00000  Uiso   1.00
H686   H     0.99545   0.53915   0.78399   0.00000  Uiso   1.00
Br687  Br    0.91264   0.64970   0.55327   0.00000  Uiso   1.00
Br688  Br    0.75403   0.35029   0.94673   0.00000  Uiso   1.00
Br689  Br    0.91584   0.64858   0.94271   0.00000  Uiso   1.00
Br690  Br    0.75083   0.35142   0.55729   0.00000  Uiso   1.00
O691   O     0.12975   0.91286   0.75299   0.00000  Uiso   1.00
O692   O     0.20358   0.75381   0.74702   0.00000  Uiso   1.00
O693   O     0.22613   0.90387   0.74519   0.00000  Uiso   1.00
O694   O     0.10720   0.76279   0.75482   0.00000  Uiso   1.00
C695   C     0.18191   0.93156   0.74883   0.00000  Uiso   1.00
C696   C     0.15142   0.73511   0.75117   0.00000  Uiso   1.00
O697   O     0.11847   0.83784   0.81998   0.00000  Uiso   1.00
O698   O     0.21486   0.82883   0.68003   0.00000  Uiso   1.00
O699   O     0.21485   0.82885   0.81218   0.00000  Uiso   1.00
O700   O     0.11848   0.83781   0.68783   0.00000  Uiso   1.00
C701   C     0.16743   0.83323   0.83635   0.00000  Uiso   1.00
C702   C     0.16590   0.83344   0.66365   0.00000  Uiso   1.00
Zn703  Zn    0.10231   0.83933   0.75521   0.00000  Uiso   1.00
Zn704  Zn    0.23102   0.82734   0.74479   0.00000  Uiso   1.00
C705   C     0.13984   0.79100   0.59438   0.00000  Uiso   1.00
C706   C     0.19350   0.87567   0.90562   0.00000  Uiso   1.00
C707   C     0.16432   0.83410   0.61614   0.00000  Uiso   1.00
C708   C     0.16902   0.83257   0.88386   0.00000  Uiso   1.00
C709   C     0.18912   0.87714   0.59308   0.00000  Uiso   1.00
C710   C     0.14422   0.78953   0.90692   0.00000  Uiso   1.00
C711   C     0.18994   0.87797   0.54635   0.00000  Uiso   1.00
C712   C     0.14339   0.78870   0.95365   0.00000  Uiso   1.00
C713   C     0.16598   0.83357   0.52343   0.00000  Uiso   1.00
C714   C     0.16736   0.83309   0.97657   0.00000  Uiso   1.00
C715   C     0.14076   0.78961   0.54761   0.00000  Uiso   1.00
C716   C     0.19257   0.87705   0.95239   0.00000  Uiso   1.00
C717   C     0.21438   0.92181   0.52234   0.00000  Uiso   1.00
C718   C     0.11895   0.74486   0.97766   0.00000  Uiso   1.00
C719   C     0.21572   0.92134   0.97523   0.00000  Uiso   1.00
C720   C     0.11761   0.74533   0.52477   0.00000  Uiso   1.00
H721   H     0.12146   0.75862   0.61458   0.00000  Uiso   1.00
H722   H     0.21187   0.90804   0.88542   0.00000  Uiso   1.00
H723   H     0.20746   0.90947   0.61233   0.00000  Uiso   1.00
H724   H     0.12587   0.75719   0.88767   0.00000  Uiso   1.00
C725   C     0.18995   0.98607   0.74814   0.00000  Uiso   1.00
C726   C     0.14338   0.68060   0.75186   0.00000  Uiso   1.00
H727   H     0.23394   0.66974   0.74458   0.00000  Uiso   1.00
H728   H     0.09940   0.99692   0.75542   0.00000  Uiso   1.00
N729   N     0.31678   0.81932   0.73783   0.00000  Uiso   1.00
N730   N     0.01656   0.84735   0.76217   0.00000  Uiso   1.00
H731   H     0.00455   0.79419   0.71601   0.00000  Uiso   1.00
H732   H     0.32879   0.87248   0.78399   0.00000  Uiso   1.00
Br733  Br    0.24597   0.98304   0.55327   0.00000  Uiso   1.00
Br734  Br    0.08736   0.68363   0.94673   0.00000  Uiso   1.00
Br735  Br    0.24917   0.98191   0.94271   0.00000  Uiso   1.00
Br736  Br    0.08416   0.68476   0.55729   0.00000  Uiso   1.00
O737   O     0.46308   0.91286   0.75299   0.00000  Uiso   1.00
O738   O     0.53692   0.75381   0.74702   0.00000  Uiso   1.00
O739   O     0.55946   0.90387   0.74519   0.00000  Uiso   1.00
O740   O     0.44054   0.76279   0.75482   0.00000  Uiso   1.00
C741   C     0.51525   0.93156   0.74883   0.00000  Uiso   1.00
C742   C     0.48475   0.73511   0.75117   0.00000  Uiso   1.00
O743   O     0.45181   0.83784   0.81998   0.00000  Uiso   1.00
O744   O     0.54819   0.82883   0.68003   0.00000  Uiso   1.00
O745   O     0.54819   0.82885   0.81218   0.00000  Uiso   1.00
O746   O     0.45181   0.83781   0.68783   0.00000  Uiso   1.00
C747   C     0.50077   0.83323   0.83635   0.00000  Uiso   1.00
C748   C     0.49923   0.83344   0.66365   0.00000  Uiso   1.00
Zn749  Zn    0.43565   0.83933   0.75521   0.00000  Uiso   1.00
Zn750  Zn    0.56435   0.82734   0.74479   0.00000  Uiso   1.00
C751   C     0.47317   0.79100   0.59438   0.00000  Uiso   1.00
C752   C     0.52683   0.87567   0.90562   0.00000  Uiso   1.00
C753   C     0.49765   0.83410   0.61614   0.00000  Uiso   1.00
C754   C     0.50235   0.83257   0.88386   0.00000  Uiso   1.00
C755   C     0.52245   0.87714   0.59308   0.00000  Uiso   1.00
C756   C     0.47755   0.78953   0.90692   0.00000  Uiso   1.00
C757   C     0.52327   0.87797   0.54635   0.00000  Uiso   1.00
C758   C     0.47673   0.78870   0.95365   0.00000  Uiso   1.00
C759   C     0.49931   0.83357   0.52343   0.00000  Uiso   1.00
C760   C     0.50069   0.83309   0.97657   0.00000  Uiso   1.00
C761   C     0.47410   0.78961   0.54761   0.00000  Uiso   1.00
C762   C     0.52590   0.87705   0.95239   0.00000  Uiso   1.00
C763   C     0.54771   0.92181   0.52234   0.00000  Uiso   1.00
C764   C     0.45229   0.74486   0.97766   0.00000  Uiso   1.00
C765   C     0.54905   0.92134   0.97523   0.00000  Uiso   1.00
C766   C     0.45095   0.74533   0.52477   0.00000  Uiso   1.00
H767   H     0.45480   0.75862   0.61458   0.00000  Uiso   1.00
H768   H     0.54520   0.90804   0.88542   0.00000  Uiso   1.00
H769   H     0.54080   0.90947   0.61233   0.00000  Uiso   1.00
H770   H     0.45920   0.75719   0.88767   0.00000  Uiso   1.00
C771   C     0.52328   0.98607   0.74814   0.00000  Uiso   1.00
C772   C     0.47672   0.68060   0.75186   0.00000  Uiso   1.00
H773   H     0.56727   0.66974   0.74458   0.00000  Uiso   1.00
H774   H     0.43273   0.99692   0.75542   0.00000  Uiso   1.00
N775   N     0.65011   0.81932   0.73783   0.00000  Uiso   1.00
N776   N     0.34989   0.84735   0.76217   0.00000  Uiso   1.00
H777   H     0.33788   0.79419   0.71601   0.00000  Uiso   1.00
H778   H     0.66212   0.87248   0.78399   0.00000  Uiso   1.00
Br779  Br    0.57930   0.98304   0.55327   0.00000  Uiso   1.00
Br780  Br    0.42070   0.68363   0.94673   0.00000  Uiso   1.00
Br781  Br    0.58251   0.98191   0.94271   0.00000  Uiso   1.00
Br782  Br    0.41749   0.68476   0.55729   0.00000  Uiso   1.00
O783   O     0.79642   0.91286   0.75299   0.00000  Uiso   1.00
O784   O     0.87025   0.75381   0.74702   0.00000  Uiso   1.00
O785   O     0.89280   0.90387   0.74519   0.00000  Uiso   1.00
O786   O     0.77387   0.76279   0.75482   0.00000  Uiso   1.00
C787   C     0.84858   0.93156   0.74883   0.00000  Uiso   1.00
C788   C     0.81809   0.73511   0.75117   0.00000  Uiso   1.00
O789   O     0.78514   0.83784   0.81998   0.00000  Uiso   1.00
O790   O     0.88153   0.82883   0.68003   0.00000  Uiso   1.00
O791   O     0.88152   0.82885   0.81218   0.00000  Uiso   1.00
O792   O     0.78515   0.83781   0.68783   0.00000  Uiso   1.00
C793   C     0.83410   0.83323   0.83635   0.00000  Uiso   1.00
C794   C     0.83256   0.83344   0.66365   0.00000  Uiso   1.00
Zn795  Zn    0.76898   0.83933   0.75521   0.00000  Uiso   1.00
Zn796  Zn    0.89769   0.82734   0.74479   0.00000  Uiso   1.00
C797   C     0.80650   0.79100   0.59438   0.00000  Uiso   1.00
C798   C     0.86016   0.87567   0.90562   0.00000  Uiso   1.00
C799   C     0.83098   0.83410   0.61614   0.00000  Uiso   1.00
C800   C     0.83568   0.83257   0.88386   0.00000  Uiso   1.00
C801   C     0.85578   0.87714   0.59308   0.00000  Uiso   1.00
C802   C     0.81088   0.78953   0.90692   0.00000  Uiso   1.00
C803   C     0.85661   0.87797   0.54635   0.00000  Uiso   1.00
C804   C     0.81006   0.78870   0.95365   0.00000  Uiso   1.00
C805   C     0.83264   0.83357   0.52343   0.00000  Uiso   1.00
C806   C     0.83402   0.83309   0.97657   0.00000  Uiso   1.00
C807   C     0.80743   0.78961   0.54761   0.00000  Uiso   1.00
C808   C     0.85924   0.87705   0.95239   0.00000  Uiso   1.00
C809   C     0.88105   0.92181   0.52234   0.00000  Uiso   1.00
C810   C     0.78562   0.74486   0.97766   0.00000  Uiso   1.00
C811   C     0.88239   0.92134   0.97523   0.00000  Uiso   1.00
C812   C     0.78428   0.74533   0.52477   0.00000  Uiso   1.00
H813   H     0.78813   0.75862   0.61458   0.00000  Uiso   1.00
H814   H     0.87854   0.90804   0.88542   0.00000  Uiso   1.00
H815   H     0.87413   0.90947   0.61233   0.00000  Uiso   1.00
H816   H     0.79254   0.75719   0.88767   0.00000  Uiso   1.00
C817   C     0.85662   0.98607   0.74814   0.00000  Uiso   1.00
C818   C     0.81005   0.68060   0.75186   0.00000  Uiso   1.00
H819   H     0.90060   0.66974   0.74458   0.00000  Uiso   1.00
H820   H     0.76606   0.99692   0.75542   0.00000  Uiso   1.00
N821   N     0.98344   0.81932   0.73783   0.00000  Uiso   1.00
N822   N     0.68322   0.84735   0.76217   0.00000  Uiso   1.00
H823   H     0.67121   0.79419   0.71601   0.00000  Uiso   1.00
H824   H     0.99545   0.87248   0.78399   0.00000  Uiso   1.00
Br825  Br    0.91264   0.98304   0.55327   0.00000  Uiso   1.00
Br826  Br    0.75403   0.68363   0.94673   0.00000  Uiso   1.00
Br827  Br    0.91584   0.98191   0.94271   0.00000  Uiso   1.00
Br828  Br    0.75083   0.68476   0.55729   0.00000  Uiso   1.00
loop_
_geom_bond_atom_site_label_1
_geom_bond_atom_site_label_2
_geom_bond_distance
_geom_bond_site_symmetry_2
_ccdc_geom_bond_type
O1     C5      1.278   .     A
O1     Zn13    1.954   .     S
O2     C6      1.278   .     A
O2     Zn14    1.954   .     S
O3     Zn14    1.974   .     S
O3     C5      1.286   .     A
O4     C6      1.286   .     A
O4     Zn13    1.974   .     S
C5     C35     1.400   .     S
C6     C36     1.400   .     S
O7     C11     1.285   .     A
O7     Zn13    1.990   .     S
O8     C12     1.285   .     A
O8     Zn14    1.990   .     S
O9     Zn14    2.013   .     S
O9     C11     1.286   .     A
O10    C12     1.286   .     A
O10    Zn13    2.013   .     S
C11    C18     1.416   .     S
C12    C17     1.416   .     S
Zn13   N40     2.019   .     S
Zn14   N39     2.019   .     S
C15    H31     1.082   .     S
C15    C25     1.389   .     A
C15    C17     1.384   .     A
C16    H32     1.082   .     S
C16    C26     1.389   .     A
C16    C18     1.384   .     A
C17    C19     1.384   .     A
C18    C20     1.384   .     A
C19    C21     1.389   .     A
C19    H33     1.082   .     S
C20    H34     1.082   .     S
C20    C22     1.389   .     A
C21    C27     1.411   .     A
C21    C23     1.421   .     A
C22    C28     1.411   .     A
C22    C24     1.421   .     A
C23    C25     1.422   .     A
C23    C438    1.392   1_554 S
C24    C26     1.422   .     A
C24    C437    1.392   .     S
C25    C30     1.411   .     A
C26    C29     1.411   .     A
C27    Br43    1.938   .     S
C27    C443    1.399   1_554 S
C28    Br44    1.938   .     S
C28    C444    1.399   .     S
C29    Br45    1.938   .     S
C29    C441    1.399   .     S
C30    Br46    1.938   .     S
C30    C442    1.399   1_554 S
C35    C174    1.335   .     S
C35    H175    1.088   .     S
C36    C311    1.335   1_545 S
C36    H314    1.088   1_545 S
H37    C311    1.088   1_545 S
H38    C174    1.088   .     S
N39    N86     1.276   .     S
N39    H87     1.029   .     S
N40    N131    1.276   1_455 S
N40    H134    1.029   1_455 S
H41    N131    1.029   1_455 S
H42    N86     1.029   .     S
O47    C51     1.278   .     A
O47    Zn59    1.954   .     S
O48    C52     1.278   .     A
O48    Zn60    1.954   .     S
O49    Zn60    1.974   .     S
O49    C51     1.286   .     A
O50    C52     1.286   .     A
O50    Zn59    1.974   .     S
C51    C81     1.400   .     S
C52    C82     1.400   .     S
O53    C57     1.285   .     A
O53    Zn59    1.990   .     S
O54    C58     1.285   .     A
O54    Zn60    1.990   .     S
O55    Zn60    2.013   .     S
O55    C57     1.286   .     A
O56    C58     1.286   .     A
O56    Zn59    2.013   .     S
C57    C64     1.416   .     S
C58    C63     1.416   .     S
Zn59   N86     2.019   .     S
Zn60   N85     2.019   .     S
C61    H77     1.082   .     S
C61    C71     1.389   .     A
C61    C63     1.384   .     A
C62    H78     1.082   .     S
C62    C72     1.389   .     A
C62    C64     1.384   .     A
C63    C65     1.384   .     A
C64    C66     1.384   .     A
C65    C67     1.389   .     A
C65    H79     1.082   .     S
C66    H80     1.082   .     S
C66    C68     1.389   .     A
C67    C73     1.411   .     A
C67    C69     1.421   .     A
C68    C74     1.411   .     A
C68    C70     1.421   .     A
C69    C71     1.422   .     A
C69    C484    1.392   1_554 S
C70    C72     1.422   .     A
C70    C483    1.392   .     S
C71    C76     1.411   .     A
C72    C75     1.411   .     A
C73    Br89    1.938   .     S
C73    C489    1.399   1_554 S
C74    Br90    1.938   .     S
C74    C490    1.399   .     S
C75    Br91    1.938   .     S
C75    C487    1.399   .     S
C76    Br92    1.938   .     S
C76    C488    1.399   1_554 S
C81    C220    1.335   .     S
C81    H221    1.088   .     S
C82    C357    1.335   1_545 S
C82    H360    1.088   1_545 S
H83    C357    1.088   1_545 S
H84    C220    1.088   .     S
N85    N132    1.276   .     S
N85    H133    1.029   .     S
H88    N132    1.029   .     S
O93    C97     1.278   .     A
O93    Zn105   1.954   .     S
O94    C98     1.278   .     A
O94    Zn106   1.954   .     S
O95    Zn106   1.974   .     S
O95    C97     1.286   .     A
O96    C98     1.286   .     A
O96    Zn105   1.974   .     S
C97    C127    1.400   .     S
C98    C128    1.400   .     S
O99    C103    1.285   .     A
O99    Zn105   1.990   .     S
O100   C104    1.285   .     A
O100   Zn106   1.990   .     S
O101   Zn106   2.013   .     S
O101   C103    1.286   .     A
O102   C104    1.286   .     A
O102   Zn105   2.013   .     S
C103   C110    1.416   .     S
C104   C109    1.416   .     S
Zn105  N132    2.019   .     S
Zn106  N131    2.019   .     S
C107   H123    1.082   .     S
C107   C117    1.389   .     A
C107   C109    1.384   .     A
C108   H124    1.082   .     S
C108   C118    1.389   .     A
C108   C110    1.384   .     A
C109   C111    1.384   .     A
C110   C112    1.384   .     A
C111   C113    1.389   .     A
C111   H125    1.082   .     S
C112   H126    1.082   .     S
C112   C114    1.389   .     A
C113   C119    1.411   .     A
C113   C115    1.421   .     A
C114   C120    1.411   .     A
C114   C116    1.421   .     A
C115   C117    1.422   .     A
C115   C530    1.392   1_554 S
C116   C118    1.422   .     A
C116   C529    1.392   .     S
C117   C122    1.411   .     A
C118   C121    1.411   .     A
C119   Br135   1.938   .     S
C119   C535    1.399   1_554 S
C120   Br136   1.938   .     S
C120   C536    1.399   .     S
C121   Br137   1.938   .     S
C121   C533    1.399   .     S
C122   Br138   1.938   .     S
C122   C534    1.399   1_554 S
C127   C266    1.335   .     S
C127   H267    1.088   .     S
C128   C403    1.335   1_545 S
C128   H406    1.088   1_545 S
H129   C403    1.088   1_545 S
H130   C266    1.088   .     S
N131   N40     1.276   1_655 S
N131   H41     1.029   1_655 S
H134   N40     1.029   1_655 S
O139   C143    1.278   .     A
O139   Zn151   1.954   .     S
O140   C144    1.278   .     A
O140   Zn152   1.954   .     S
O141   Zn152   1.974   .     S
O141   C143    1.286   .     A
O142   C144    1.286   .     A
O142   Zn151   1.974   .     S
C143   C173    1.400   .     S
C144   C174    1.400   .     S
O145   C149    1.285   .     A
O145   Zn151   1.990   .     S
O146   C150    1.285   .     A
O146   Zn152   1.990   .     S
O147   Zn152   2.013   .     S
O147   C149    1.286   .     A
O148   C150    1.286   .     A
O148   Zn151   2.013   .     S
C149   C156    1.416   .     S
C150   C155    1.416   .     S
Zn151  N178    2.019   .     S
Zn152  N177    2.019   .     S
C153   H169    1.082   .     S
C153   C163    1.389   .     A
C153   C155    1.384   .     A
C154   H170    1.082   .     S
C154   C164    1.389   .     A
C154   C156    1.384   .     A
C155   C157    1.384   .     A
C156   C158    1.384   .     A
C157   C159    1.389   .     A
C157   H171    1.082   .     S
C158   H172    1.082   .     S
C158   C160    1.389   .     A
C159   C165    1.411   .     A
C159   C161    1.421   .     A
C160   C166    1.411   .     A
C160   C162    1.421   .     A
C161   C163    1.422   .     A
C161   C576    1.392   1_554 S
C162   C164    1.422   .     A
C162   C575    1.392   .     S
C163   C168    1.411   .     A
C164   C167    1.411   .     A
C165   Br181   1.938   .     S
C165   C581    1.399   1_554 S
C166   Br182   1.938   .     S
C166   C582    1.399   .     S
C167   Br183   1.938   .     S
C167   C579    1.399   .     S
C168   Br184   1.938   .     S
C168   C580    1.399   1_554 S
C173   C312    1.335   .     S
C173   H313    1.088   .     S
H176   C312    1.088   .     S
N177   N224    1.276   .     S
N177   H225    1.029   .     S
N178   N269    1.276   1_455 S
N178   H272    1.029   1_455 S
H179   N269    1.029   1_455 S
H180   N224    1.029   .     S
O185   C189    1.278   .     A
O185   Zn197   1.954   .     S
O186   C190    1.278   .     A
O186   Zn198   1.954   .     S
O187   Zn198   1.974   .     S
O187   C189    1.286   .     A
O188   C190    1.286   .     A
O188   Zn197   1.974   .     S
C189   C219    1.400   .     S
C190   C220    1.400   .     S
O191   C195    1.285   .     A
O191   Zn197   1.990   .     S
O192   C196    1.285   .     A
O192   Zn198   1.990   .     S
O193   Zn198   2.013   .     S
O193   C195    1.286   .     A
O194   C196    1.286   .     A
O194   Zn197   2.013   .     S
C195   C202    1.416   .     S
C196   C201    1.416   .     S
Zn197  N224    2.019   .     S
Zn198  N223    2.019   .     S
C199   H215    1.082   .     S
C199   C209    1.389   .     A
C199   C201    1.384   .     A
C200   H216    1.082   .     S
C200   C210    1.389   .     A
C200   C202    1.384   .     A
C201   C203    1.384   .     A
C202   C204    1.384   .     A
C203   C205    1.389   .     A
C203   H217    1.082   .     S
C204   H218    1.082   .     S
C204   C206    1.389   .     A
C205   C211    1.411   .     A
C205   C207    1.421   .     A
C206   C212    1.411   .     A
C206   C208    1.421   .     A
C207   C209    1.422   .     A
C207   C622    1.392   1_554 S
C208   C210    1.422   .     A
C208   C621    1.392   .     S
C209   C214    1.411   .     A
C210   C213    1.411   .     A
C211   Br227   1.938   .     S
C211   C627    1.399   1_554 S
C212   Br228   1.938   .     S
C212   C628    1.399   .     S
C213   Br229   1.938   .     S
C213   C625    1.399   .     S
C214   Br230   1.938   .     S
C214   C626    1.399   1_554 S
C219   C358    1.335   .     S
C219   H359    1.088   .     S
H222   C358    1.088   .     S
N223   N270    1.276   .     S
N223   H271    1.029   .     S
H226   N270    1.029   .     S
O231   C235    1.278   .     A
O231   Zn243   1.954   .     S
O232   C236    1.278   .     A
O232   Zn244   1.954   .     S
O233   Zn244   1.974   .     S
O233   C235    1.286   .     A
O234   C236    1.286   .     A
O234   Zn243   1.974   .     S
C235   C265    1.400   .     S
C236   C266    1.400   .     S
O237   C241    1.285   .     A
O237   Zn243   1.990   .     S
O238   C242    1.285   .     A
O238   Zn244   1.990   .     S
O239   Zn244   2.013   .     S
O239   C241    1.286   .     A
O240   C242    1.286   .     A
O240   Zn243   2.013   .     S
C241   C248    1.416   .     S
C242   C247    1.416   .     S
Zn243  N270    2.019   .     S
Zn244  N269    2.019   .     S
C245   H261    1.082   .     S
C245   C255    1.389   .     A
C245   C247    1.384   .     A
C246   H262    1.082   .     S
C246   C256    1.389   .     A
C246   C248    1.384   .     A
C247   C249    1.384   .     A
C248   C250    1.384   .     A
C249   C251    1.389   .     A
C249   H263    1.082   .     S
C250   H264    1.082   .     S
C250   C252    1.389   .     A
C251   C257    1.411   .     A
C251   C253    1.421   .     A
C252   C258    1.411   .     A
C252   C254    1.421   .     A
C253   C255    1.422   .     A
C253   C668    1.392   1_554 S
C254   C256    1.422   .     A
C254   C667    1.392   .     S
C255   C260    1.411   .     A
C256   C259    1.411   .     A
C257   Br273   1.938   .     S
C257   C673    1.399   1_554 S
C258   Br274   1.938   .     S
C258   C674    1.399   .     S
C259   Br275   1.938   .     S
C259   C671    1.399   .     S
C260   Br276   1.938   .     S
C260   C672    1.399   1_554 S
C265   C404    1.335   .     S
C265   H405    1.088   .     S
H268   C404    1.088   .     S
N269   N178    1.276   1_655 S
N269   H179    1.029   1_655 S
H272   N178    1.029   1_655 S
O277   C281    1.278   .     A
O277   Zn289   1.954   .     S
O278   C282    1.278   .     A
O278   Zn290   1.954   .     S
O279   Zn290   1.974   .     S
O279   C281    1.286   .     A
O280   C282    1.286   .     A
O280   Zn289   1.974   .     S
C281   C311    1.400   .     S
C282   C312    1.400   .     S
O283   C287    1.285   .     A
O283   Zn289   1.990   .     S
O284   C288    1.285   .     A
O284   Zn290   1.990   .     S
O285   Zn290   2.013   .     S
O285   C287    1.286   .     A
O286   C288    1.286   .     A
O286   Zn289   2.013   .     S
C287   C294    1.416   .     S
C288   C293    1.416   .     S
Zn289  N316    2.019   .     S
Zn290  N315    2.019   .     S
C291   H307    1.082   .     S
C291   C301    1.389   .     A
C291   C293    1.384   .     A
C292   H308    1.082   .     S
C292   C302    1.389   .     A
C292   C294    1.384   .     A
C293   C295    1.384   .     A
C294   C296    1.384   .     A
C295   C297    1.389   .     A
C295   H309    1.082   .     S
C296   H310    1.082   .     S
C296   C298    1.389   .     A
C297   C303    1.411   .     A
C297   C299    1.421   .     A
C298   C304    1.411   .     A
C298   C300    1.421   .     A
C299   C301    1.422   .     A
C299   C714    1.392   1_554 S
C300   C302    1.422   .     A
C300   C713    1.392   .     S
C301   C306    1.411   .     A
C302   C305    1.411   .     A
C303   Br319   1.938   .     S
C303   C719    1.399   1_554 S
C304   Br320   1.938   .     S
C304   C720    1.399   .     S
C305   Br321   1.938   .     S
C305   C717    1.399   .     S
C306   Br322   1.938   .     S
C306   C718    1.399   1_554 S
C311   C36     1.335   1_565 S
C311   H37     1.088   1_565 S
H314   C36     1.088   1_565 S
N315   N362    1.276   .     S
N315   H363    1.029   .     S
N316   N407    1.276   1_455 S
N316   H410    1.029   1_455 S
H317   N407    1.029   1_455 S
H318   N362    1.029   .     S
O323   C327    1.278   .     A
O323   Zn335   1.954   .     S
O324   C328    1.278   .     A
O324   Zn336   1.954   .     S
O325   Zn336   1.974   .     S
O325   C327    1.286   .     A
O326   C328    1.286   .     A
O326   Zn335   1.974   .     S
C327   C357    1.400   .     S
C328   C358    1.400   .     S
O329   C333    1.285   .     A
O329   Zn335   1.990   .     S
O330   C334    1.285   .     A
O330   Zn336   1.990   .     S
O331   Zn336   2.013   .     S
O331   C333    1.286   .     A
O332   C334    1.286   .     A
O332   Zn335   2.013   .     S
C333   C340    1.416   .     S
C334   C339    1.416   .     S
Zn335  N362    2.019   .     S
Zn336  N361    2.019   .     S
C337   H353    1.082   .     S
C337   C347    1.389   .     A
C337   C339    1.384   .     A
C338   H354    1.082   .     S
C338   C348    1.389   .     A
C338   C340    1.384   .     A
C339   C341    1.384   .     A
C340   C342    1.384   .     A
C341   C343    1.389   .     A
C341   H355    1.082   .     S
C342   H356    1.082   .     S
C342   C344    1.389   .     A
C343   C349    1.411   .     A
C343   C345    1.421   .     A
C344   C350    1.411   .     A
C344   C346    1.421   .     A
C345   C347    1.422   .     A
C345   C760    1.392   1_554 S
C346   C348    1.422   .     A
C346   C759    1.392   .     S
C347   C352    1.411   .     A
C348   C351    1.411   .     A
C349   Br365   1.938   .     S
C349   C765    1.399   1_554 S
C350   Br366   1.938   .     S
C350   C766    1.399   .     S
C351   Br367   1.938   .     S
C351   C763    1.399   .     S
C352   Br368   1.938   .     S
C352   C764    1.399   1_554 S
C357   C82     1.335   1_565 S
C357   H83     1.088   1_565 S
H360   C82     1.088   1_565 S
N361   N408    1.276   .     S
N361   H409    1.029   .     S
H364   N408    1.029   .     S
O369   C373    1.278   .     A
O369   Zn381   1.954   .     S
O370   C374    1.278   .     A
O370   Zn382   1.954   .     S
O371   Zn382   1.974   .     S
O371   C373    1.286   .     A
O372   C374    1.286   .     A
O372   Zn381   1.974   .     S
C373   C403    1.400   .     S
C374   C404    1.400   .     S
O375   C379    1.285   .     A
O375   Zn381   1.990   .     S
O376   C380    1.285   .     A
O376   Zn382   1.990   .     S
O377   Zn382   2.013   .     S
O377   C379    1.286   .     A
O378   C380    1.286   .     A
O378   Zn381   2.013   .     S
C379   C386    1.416   .     S
C380   C385    1.416   .     S
Zn381  N408    2.019   .     S
Zn382  N407    2.019   .     S
C383   H399    1.082   .     S
C383   C393    1.389   .     A
C383   C385    1.384   .     A
C384   H400    1.082   .     S
C384   C394    1.389   .     A
C384   C386    1.384   .     A
C385   C387    1.384   .     A
C386   C388    1.384   .     A
C387   C389    1.389   .     A
C387   H401    1.082   .     S
C388   H402    1.082   .     S
C388   C390    1.389   .     A
C389   C395    1.411   .     A
C389   C391    1.421   .     A
C390   C396    1.411   .     A
C390   C392    1.421   .     A
C391   C393    1.422   .     A
C391   C806    1.392   1_554 S
C392   C394    1.422   .     A
C392   C805    1.392   .     S
C393   C398    1.411   .     A
C394   C397    1.411   .     A
C395   Br411   1.938   .     S
C395   C811    1.399   1_554 S
C396   Br412   1.938   .     S
C396   C812    1.399   .     S
C397   Br413   1.938   .     S
C397   C809    1.399   .     S
C398   Br414   1.938   .     S
C398   C810    1.399   1_554 S
C403   C128    1.335   1_565 S
C403   H129    1.088   1_565 S
H406   C128    1.088   1_565 S
N407   N316    1.276   1_655 S
N407   H317    1.029   1_655 S
H410   N316    1.029   1_655 S
O415   C419    1.278   .     A
O415   Zn427   1.954   .     S
O416   C420    1.278   .     A
O416   Zn428   1.954   .     S
O417   Zn428   1.974   .     S
O417   C419    1.286   .     A
O418   C420    1.286   .     A
O418   Zn427   1.974   .     S
C419   C449    1.400   .     S
C420   C450    1.400   .     S
O421   C425    1.285   .     A
O421   Zn427   1.990   .     S
O422   C426    1.285   .     A
O422   Zn428   1.990   .     S
O423   Zn428   2.013   .     S
O423   C425    1.286   .     A
O424   C426    1.286   .     A
O424   Zn427   2.013   .     S
C425   C432    1.416   .     S
C426   C431    1.416   .     S
Zn427  N454    2.019   .     S
Zn428  N453    2.019   .     S
C429   H445    1.082   .     S
C429   C439    1.389   .     A
C429   C431    1.384   .     A
C430   H446    1.082   .     S
C430   C440    1.389   .     A
C430   C432    1.384   .     A
C431   C433    1.384   .     A
C432   C434    1.384   .     A
C433   C435    1.389   .     A
C433   H447    1.082   .     S
C434   H448    1.082   .     S
C434   C436    1.389   .     A
C435   C441    1.411   .     A
C435   C437    1.421   .     A
C436   C442    1.411   .     A
C436   C438    1.421   .     A
C437   C439    1.422   .     A
C438   C440    1.422   .     A
C438   C23     1.392   1_556 S
C439   C444    1.411   .     A
C440   C443    1.411   .     A
C441   Br457   1.938   .     S
C442   Br458   1.938   .     S
C442   C30     1.399   1_556 S
C443   Br459   1.938   .     S
C443   C27     1.399   1_556 S
C444   Br460   1.938   .     S
C449   C588    1.335   .     S
C449   H589    1.088   .     S
C450   C725    1.335   1_545 S
C450   H728    1.088   1_545 S
H451   C725    1.088   1_545 S
H452   C588    1.088   .     S
N453   N500    1.276   .     S
N453   H501    1.029   .     S
N454   N545    1.276   1_455 S
N454   H548    1.029   1_455 S
H455   N545    1.029   1_455 S
H456   N500    1.029   .     S
O461   C465    1.278   .     A
O461   Zn473   1.954   .     S
O462   C466    1.278   .     A
O462   Zn474   1.954   .     S
O463   Zn474   1.974   .     S
O463   C465    1.286   .     A
O464   C466    1.286   .     A
O464   Zn473   1.974   .     S
C465   C495    1.400   .     S
C466   C496    1.400   .     S
O467   C471    1.285   .     A
O467   Zn473   1.990   .     S
O468   C472    1.285   .     A
O468   Zn474   1.990   .     S
O469   Zn474   2.013   .     S
O469   C471    1.286   .     A
O470   C472    1.286   .     A
O470   Zn473   2.013   .     S
C471   C478    1.416   .     S
C472   C477    1.416   .     S
Zn473  N500    2.019   .     S
Zn474  N499    2.019   .     S
C475   H491    1.082   .     S
C475   C485    1.389   .     A
C475   C477    1.384   .     A
C476   H492    1.082   .     S
C476   C486    1.389   .     A
C476   C478    1.384   .     A
C477   C479    1.384   .     A
C478   C480    1.384   .     A
C479   C481    1.389   .     A
C479   H493    1.082   .     S
C480   H494    1.082   .     S
C480   C482    1.389   .     A
C481   C487    1.411   .     A
C481   C483    1.421   .     A
C482   C488    1.411   .     A
C482   C484    1.421   .     A
C483   C485    1.422   .     A
C484   C486    1.422   .     A
C484   C69     1.392   1_556 S
C485   C490    1.411   .     A
C486   C489    1.411   .     A
C487   Br503   1.938   .     S
C488   Br504   1.938   .     S
C488   C76     1.399   1_556 S
C489   Br505   1.938   .     S
C489   C73     1.399   1_556 S
C490   Br506   1.938   .     S
C495   C634    1.335   .     S
C495   H635    1.088   .     S
C496   C771    1.335   1_545 S
C496   H774    1.088   1_545 S
H497   C771    1.088   1_545 S
H498   C634    1.088   .     S
N499   N546    1.276   .     S
N499   H547    1.029   .     S
H502   N546    1.029   .     S
O507   C511    1.278   .     A
O507   Zn519   1.954   .     S
O508   C512    1.278   .     A
O508   Zn520   1.954   .     S
O509   Zn520   1.974   .     S
O509   C511    1.286   .     A
O510   C512    1.286   .     A
O510   Zn519   1.974   .     S
C511   C541    1.400   .     S
C512   C542    1.400   .     S
O513   C517    1.285   .     A
O513   Zn519   1.990   .     S
O514   C518    1.285   .     A
O514   Zn520   1.990   .     S
O515   Zn520   2.013   .     S
O515   C517    1.286   .     A
O516   C518    1.286   .     A
O516   Zn519   2.013   .     S
C517   C524    1.416   .     S
C518   C523    1.416   .     S
Zn519  N546    2.019   .     S
Zn520  N545    2.019   .     S
C521   H537    1.082   .     S
C521   C531    1.389   .     A
C521   C523    1.384   .     A
C522   H538    1.082   .     S
C522   C532    1.389   .     A
C522   C524    1.384   .     A
C523   C525    1.384   .     A
C524   C526    1.384   .     A
C525   C527    1.389   .     A
C525   H539    1.082   .     S
C526   H540    1.082   .     S
C526   C528    1.389   .     A
C527   C533    1.411   .     A
C527   C529    1.421   .     A
C528   C534    1.411   .     A
C528   C530    1.421   .     A
C529   C531    1.422   .     A
C530   C532    1.422   .     A
C530   C115    1.392   1_556 S
C531   C536    1.411   .     A
C532   C535    1.411   .     A
C533   Br549   1.938   .     S
C534   Br550   1.938   .     S
C534   C122    1.399   1_556 S
C535   Br551   1.938   .     S
C535   C119    1.399   1_556 S
C536   Br552   1.938   .     S
C541   C680    1.335   .     S
C541   H681    1.088   .     S
C542   C817    1.335   1_545 S
C542   H820    1.088   1_545 S
H543   C817    1.088   1_545 S
H544   C680    1.088   .     S
N545   N454    1.276   1_655 S
N545   H455    1.029   1_655 S
H548   N454    1.029   1_655 S
O553   C557    1.278   .     A
O553   Zn565   1.954   .     S
O554   C558    1.278   .     A
O554   Zn566   1.954   .     S
O555   Zn566   1.974   .     S
O555   C557    1.286   .     A
O556   C558    1.286   .     A
O556   Zn565   1.974   .     S
C557   C587    1.400   .     S
C558   C588    1.400   .     S
O559   C563    1.285   .     A
O559   Zn565   1.990   .     S
O560   C564    1.285   .     A
O560   Zn566   1.990   .     S
O561   Zn566   2.013   .     S
O561   C563    1.286   .     A
O562   C564    1.286   .     A
O562   Zn565   2.013   .     S
C563   C570    1.416   .     S
C564   C569    1.416   .     S
Zn565  N592    2.019   .     S
Zn566  N591    2.019   .     S
C567   H583    1.082   .     S
C567   C577    1.389   .     A
C567   C569    1.384   .     A
C568   H584    1.082   .     S
C568   C578    1.389   .     A
C568   C570    1.384   .     A
C569   C571    1.384   .     A
C570   C572    1.384   .     A
C571   C573    1.389   .     A
C571   H585    1.082   .     S
C572   H586    1.082   .     S
C572   C574    1.389   .     A
C573   C579    1.411   .     A
C573   C575    1.421   .     A
C574   C580    1.411   .     A
C574   C576    1.421   .     A
C575   C577    1.422   .     A
C576   C578    1.422   .     A
C576   C161    1.392   1_556 S
C577   C582    1.411   .     A
C578   C581    1.411   .     A
C579   Br595   1.938   .     S
C580   Br596   1.938   .     S
C580   C168    1.399   1_556 S
C581   Br597   1.938   .     S
C581   C165    1.399   1_556 S
C582   Br598   1.938   .     S
C587   C726    1.335   .     S
C587   H727    1.088   .     S
H590   C726    1.088   .     S
N591   N638    1.276   .     S
N591   H639    1.029   .     S
N592   N683    1.276   1_455 S
N592   H686    1.029   1_455 S
H593   N683    1.029   1_455 S
H594   N638    1.029   .     S
O599   C603    1.278   .     A
O599   Zn611   1.954   .     S
O600   C604    1.278   .     A
O600   Zn612   1.954   .     S
O601   Zn612   1.974   .     S
O601   C603    1.286   .     A
O602   C604    1.286   .     A
O602   Zn611   1.974   .     S
C603   C633    1.400   .     S
C604   C634    1.400   .     S
O605   C609    1.285   .     A
O605   Zn611   1.990   .     S
O606   C610    1.285   .     A
O606   Zn612   1.990   .     S
O607   Zn612   2.013   .     S
O607   C609    1.286   .     A
O608   C610    1.286   .     A
O608   Zn611   2.013   .     S
C609   C616    1.416   .     S
C610   C615    1.416   .     S
Zn611  N638    2.019   .     S
Zn612  N637    2.019   .     S
C613   H629    1.082   .     S
C613   C623    1.389   .     A
C613   C615    1.384   .     A
C614   H630    1.082   .     S
C614   C624    1.389   .     A
C614   C616    1.384   .     A
C615   C617    1.384   .     A
C616   C618    1.384   .     A
C617   C619    1.389   .     A
C617   H631    1.082   .     S
C618   H632    1.082   .     S
C618   C620    1.389   .     A
C619   C625    1.411   .     A
C619   C621    1.421   .     A
C620   C626    1.411   .     A
C620   C622    1.421   .     A
C621   C623    1.422   .     A
C622   C624    1.422   .     A
C622   C207    1.392   1_556 S
C623   C628    1.411   .     A
C624   C627    1.411   .     A
C625   Br641   1.938   .     S
C626   Br642   1.938   .     S
C626   C214    1.399   1_556 S
C627   Br643   1.938   .     S
C627   C211    1.399   1_556 S
C628   Br644   1.938   .     S
C633   C772    1.335   .     S
C633   H773    1.088   .     S
H636   C772    1.088   .     S
N637   N684    1.276   .     S
N637   H685    1.029   .     S
H640   N684    1.029   .     S
O645   C649    1.278   .     A
O645   Zn657   1.954   .     S
O646   C650    1.278   .     A
O646   Zn658   1.954   .     S
O647   Zn658   1.974   .     S
O647   C649    1.286   .     A
O648   C650    1.286   .     A
O648   Zn657   1.974   .     S
C649   C679    1.400   .     S
C650   C680    1.400   .     S
O651   C655    1.285   .     A
O651   Zn657   1.990   .     S
O652   C656    1.285   .     A
O652   Zn658   1.990   .     S
O653   Zn658   2.013   .     S
O653   C655    1.286   .     A
O654   C656    1.286   .     A
O654   Zn657   2.013   .     S
C655   C662    1.416   .     S
C656   C661    1.416   .     S
Zn657  N684    2.019   .     S
Zn658  N683    2.019   .     S
C659   H675    1.082   .     S
C659   C669    1.389   .     A
C659   C661    1.384   .     A
C660   H676    1.082   .     S
C660   C670    1.389   .     A
C660   C662    1.384   .     A
C661   C663    1.384   .     A
C662   C664    1.384   .     A
C663   C665    1.389   .     A
C663   H677    1.082   .     S
C664   H678    1.082   .     S
C664   C666    1.389   .     A
C665   C671    1.411   .     A
C665   C667    1.421   .     A
C666   C672    1.411   .     A
C666   C668    1.421   .     A
C667   C669    1.422   .     A
C668   C670    1.422   .     A
C668   C253    1.392   1_556 S
C669   C674    1.411   .     A
C670   C673    1.411   .     A
C671   Br687   1.938   .     S
C672   Br688   1.938   .     S
C672   C260    1.399   1_556 S
C673   Br689   1.938   .     S
C673   C257    1.399   1_556 S
C674   Br690   1.938   .     S
C679   C818    1.335   .     S
C679   H819    1.088   .     S
H682   C818    1.088   .     S
N683   N592    1.276   1_655 S
N683   H593    1.029   1_655 S
H686   N592    1.029   1_655 S
O691   C695    1.278   .     A
O691   Zn703   1.954   .     S
O692   C696    1.278   .     A
O692   Zn704   1.954   .     S
O693   Zn704   1.974   .     S
O693   C695    1.286   .     A
O694   C696    1.286   .     A
O694   Zn703   1.974   .     S
C695   C725    1.400   .     S
C696   C726    1.400   .     S
O697   C701    1.285   .     A
O697   Zn703   1.990   .     S
O698   C702    1.285   .     A
O698   Zn704   1.990   .     S
O699   Zn704   2.013   .     S
O699   C701    1.286   .     A
O700   C702    1.286   .     A
O700   Zn703   2.013   .     S
C701   C708    1.416   .     S
C702   C707    1.416   .     S
Zn703  N730    2.019   .     S
Zn704  N729    2.019   .     S
C705   H721    1.082   .     S
C705   C715    1.389   .     A
C705   C707    1.384   .     A
C706   H722    1.082   .     S
C706   C716    1.389   .     A
C706   C708    1.384   .     A
C707   C709    1.384   .     A
C708   C710    1.384   .     A
C709   C711    1.389   .     A
C709   H723    1.082   .     S
C710   H724    1.082   .     S
C710   C712    1.389   .     A
C711   C717    1.411   .     A
C711   C713    1.421   .     A
C712   C718    1.411   .     A
C712   C714    1.421   .     A
C713   C715    1.422   .     A
C714   C716    1.422   .     A
C714   C299    1.392   1_556 S
C715   C720    1.411   .     A
C716   C719    1.411   .     A
C717   Br733   1.938   .     S
C718   Br734   1.938   .     S
C718   C306    1.399   1_556 S
C719   Br735   1.938   .     S
C719   C303    1.399   1_556 S
C720   Br736   1.938   .     S
C725   C450    1.335   1_565 S
C725   H451    1.088   1_565 S
H728   C450    1.088   1_565 S
N729   N776    1.276   .     S
N729   H777    1.029   .     S
N730   N821    1.276   1_455 S
N730   H824    1.029   1_455 S
H731   N821    1.029   1_455 S
H732   N776    1.029   .     S
O737   C741    1.278   .     A
O737   Zn749   1.954   .     S
O738   C742    1.278   .     A
O738   Zn750   1.954   .     S
O739   Zn750   1.974   .     S
O739   C741    1.286   .     A
O740   C742    1.286   .     A
O740   Zn749   1.974   .     S
C741   C771    1.400   .     S
C742   C772    1.400   .     S
O743   C747    1.285   .     A
O743   Zn749   1.990   .     S
O744   C748    1.285   .     A
O744   Zn750   1.990   .     S
O745   Zn750   2.013   .     S
O745   C747    1.286   .     A
O746   C748    1.286   .     A
O746   Zn749   2.013   .     S
C747   C754    1.416   .     S
C748   C753    1.416   .     S
Zn749  N776    2.019   .     S
Zn750  N775    2.019   .     S
C751   H767    1.082   .     S
C751   C761    1.389   .     A
C751   C753    1.384   .     A
C752   H768    1.082   .     S
C752   C762    1.389   .     A
C752   C754    1.384   .     A
C753   C755    1.384   .     A
C754   C756    1.384   .     A
C755   C757    1.389   .     A
C755   H769    1.082   .     S
C756   H770    1.082   .     S
C756   C758    1.389   .     A
C757   C763    1.411   .     A
C757   C759    1.421   .     A
C758   C764    1.411   .     A
C758   C760    1.421   .     A
C759   C761    1.422   .     A
C760   C762    1.422   .     A
C760   C345    1.392   1_556 S
C761   C766    1.411   .     A
C762   C765    1.411   .     A
C763   Br779   1.938   .     S
C764   Br780   1.938   .     S
C764   C352    1.399   1_556 S
C765   Br781   1.938   .     S
C765   C349    1.399   1_556 S
C766   Br782   1.938   .     S
C771   C496    1.335   1_565 S
C771   H497    1.088   1_565 S
H774   C496    1.088   1_565 S
N775   N822    1.276   .     S
N775   H823    1.029   .     S
H778   N822    1.029   .     S
O783   C787    1.278   .     A
O783   Zn795   1.954   .     S
O784   C788    1.278   .     A
O784   Zn796   1.954   .     S
O785   Zn796   1.974   .     S
O785   C787    1.286   .     A
O786   C788    1.286   .     A
O786   Zn795   1.974   .     S
C787   C817    1.400   .     S
C788   C818    1.400   .     S
O789   C793    1.285   .     A
O789   Zn795   1.990   .     S
O790   C794    1.285   .     A
O790   Zn796   1.990   .     S
O791   Zn796   2.013   .     S
O791   C793    1.286   .     A
O792   C794    1.286   .     A
O792   Zn795   2.013   .     S
C793   C800    1.416   .     S
C794   C799    1.416   .     S
Zn795  N822    2.019   .     S
Zn796  N821    2.019   .     S
C797   H813    1.082   .     S
C797   C807    1.389   .     A
C797   C799    1.384   .     A
C798   H814    1.082   .     S
C798   C808    1.389   .     A
C798   C800    1.384   .     A
C799   C801    1.384   .     A
C800   C802    1.384   .     A
C801   C803    1.389   .     A
C801   H815    1.082   .     S
C802   H816    1.082   .     S
C802   C804    1.389   .     A
C803   C809    1.411   .     A
C803   C805    1.421   .     A
C804   C810    1.411   .     A
C804   C806    1.421   .     A
C805   C807    1.422   .     A
C806   C808    1.422   .     A
C806   C391    1.392   1_556 S
C807   C812    1.411   .     A
C808   C811    1.411   .     A
C809   Br825   1.938   .     S
C810   Br826   1.938   .     S
C810   C398    1.399   1_556 S
C811   Br827   1.938   .     S
C811   C395    1.399   1_556 S
C812   Br828   1.938   .     S
C817   C542    1.335   1_565 S
C817   H543    1.088   1_565 S
H820   C542    1.088   1_565 S
N821   N730    1.276   1_655 S
N821   H731    1.029   1_655 S
H824   N730    1.029   1_655 S
