data_str_m3_o1_o17_pcu_sym.102
_audit_creation_date              2020-01-03
_audit_creation_method            'Materials Studio'
_symmetry_space_group_name_H-M    'P1'
_symmetry_Int_Tables_number       1
_symmetry_cell_setting            triclinic
loop_
_symmetry_equiv_pos_as_xyz
  x,y,z
_cell_length_a                    32.1701
_cell_length_b                    29.6111
_cell_length_c                    30.0227
_cell_angle_alpha                 89.9126
_cell_angle_beta                  90.9107
_cell_angle_gamma                 89.9820
loop_
_atom_site_label
_atom_site_type_symbol
_atom_site_fract_x
_atom_site_fract_y
_atom_site_fract_z
_atom_site_U_iso_or_equiv
_atom_site_adp_type
_atom_site_occupancy
C1     C     0.08665   0.16667   0.24996   0.00000  Uiso   1.00
C2     C     0.24668   0.16666   0.25004   0.00000  Uiso   1.00
C3     C     0.14874   0.24664   0.02331   0.00000  Uiso   1.00
C4     C     0.18459   0.08669   0.47669   0.00000  Uiso   1.00
C5     C     0.02128   0.12549   0.24911   0.00000  Uiso   1.00
C6     C     0.31205   0.20784   0.25089   0.00000  Uiso   1.00
C7     C     0.31205   0.12549   0.24911   0.00000  Uiso   1.00
C8     C     0.02128   0.20785   0.25089   0.00000  Uiso   1.00
C9     C     0.29085   0.16666   0.25003   0.00000  Uiso   1.00
C10    C     0.04248   0.16667   0.24997   0.00000  Uiso   1.00
C11    C     0.19291   0.02400   0.27783   0.00000  Uiso   1.00
C12    C     0.14042   0.30934   0.22217   0.00000  Uiso   1.00
C13    C     0.14050   0.02412   0.22209   0.00000  Uiso   1.00
C14    C     0.19283   0.30922   0.27791   0.00000  Uiso   1.00
C15    C     0.16669   0.16668   0.16334   0.00000  Uiso   1.00
C16    C     0.16665   0.16665   0.33666   0.00000  Uiso   1.00
C17    C     0.17505   0.12679   0.40766   0.00000  Uiso   1.00
C18    C     0.15828   0.20654   0.09234   0.00000  Uiso   1.00
C19    C     0.16650   0.16669   0.38457   0.00000  Uiso   1.00
C20    C     0.16683   0.16664   0.11543   0.00000  Uiso   1.00
C21    C     0.15784   0.20672   0.40712   0.00000  Uiso   1.00
C22    C     0.17550   0.12661   0.09288   0.00000  Uiso   1.00
C23    C     0.15757   0.20742   0.45344   0.00000  Uiso   1.00
C24    C     0.17577   0.12591   0.04656   0.00000  Uiso   1.00
C25    C     0.16657   0.16686   0.47679   0.00000  Uiso   1.00
C26    C     0.16676   0.16647   0.02321   0.00000  Uiso   1.00
C27    C     0.17540   0.12661   0.45369   0.00000  Uiso   1.00
C28    C     0.15793   0.20672   0.04632   0.00000  Uiso   1.00
C29    C     0.14851   0.24738   0.47701   0.00000  Uiso   1.00
C30    C     0.18482   0.08595   0.02299   0.00000  Uiso   1.00
H31    H     0.18172   0.09586   0.38986   0.00000  Uiso   1.00
H32    H     0.15161   0.23747   0.11014   0.00000  Uiso   1.00
H33    H     0.15102   0.23718   0.38837   0.00000  Uiso   1.00
H34    H     0.18231   0.09615   0.11163   0.00000  Uiso   1.00
H35    H     0.14159   0.27724   0.04150   0.00000  Uiso   1.00
H36    H     0.19174   0.05609   0.45850   0.00000  Uiso   1.00
H37    H     0.03740   0.09337   0.24842   0.00000  Uiso   1.00
H38    H     0.29593   0.23996   0.25158   0.00000  Uiso   1.00
H39    H     0.29592   0.09337   0.24835   0.00000  Uiso   1.00
H40    H     0.03741   0.23996   0.25165   0.00000  Uiso   1.00
N41    N     0.16667   0.28573   0.25000   0.00000  Uiso   1.00
N42    N     0.16667   0.04760   0.25000   0.00000  Uiso   1.00
O43    O     0.10559   0.20487   0.25000   0.00000  Uiso   1.00
O44    O     0.22774   0.12846   0.25001   0.00000  Uiso   1.00
O45    O     0.22774   0.20487   0.25001   0.00000  Uiso   1.00
O46    O     0.10559   0.12846   0.25000   0.00000  Uiso   1.00
O47    O     0.16666   0.20489   0.18393   0.00000  Uiso   1.00
O48    O     0.16667   0.12844   0.31608   0.00000  Uiso   1.00
O49    O     0.16667   0.20489   0.31608   0.00000  Uiso   1.00
O50    O     0.16666   0.12844   0.18393   0.00000  Uiso   1.00
Zn51   Zn    0.16667   0.21771   0.25000   0.00000  Uiso   1.00
Zn52   Zn    0.16667   0.11563   0.25000   0.00000  Uiso   1.00
C53    C     0.13860   0.28948   0.45474   0.00000  Uiso   1.00
N54    N     0.13061   0.32312   0.43690   0.00000  Uiso   1.00
C55    C     0.19473   0.04386   0.04526   0.00000  Uiso   1.00
N56    N     0.20272   0.01021   0.06310   0.00000  Uiso   1.00
C57    C     0.22106   0.04834   0.30697   0.00000  Uiso   1.00
N58    N     0.24382   0.06755   0.33040   0.00000  Uiso   1.00
C59    C     0.11228   0.28500   0.19303   0.00000  Uiso   1.00
N60    N     0.08951   0.26578   0.16960   0.00000  Uiso   1.00
C61    C     0.11303   0.04862   0.19225   0.00000  Uiso   1.00
N62    N     0.09092   0.06800   0.16818   0.00000  Uiso   1.00
C63    C     0.22030   0.28472   0.30775   0.00000  Uiso   1.00
N64    N     0.24241   0.26533   0.33182   0.00000  Uiso   1.00
C65    C     0.41998   0.16667   0.24996   0.00000  Uiso   1.00
C66    C     0.58002   0.16666   0.25004   0.00000  Uiso   1.00
C67    C     0.48207   0.24664   0.02331   0.00000  Uiso   1.00
C68    C     0.51793   0.08669   0.47669   0.00000  Uiso   1.00
C69    C     0.35461   0.12549   0.24911   0.00000  Uiso   1.00
C70    C     0.64539   0.20784   0.25089   0.00000  Uiso   1.00
C71    C     0.64538   0.12549   0.24911   0.00000  Uiso   1.00
C72    C     0.35462   0.20785   0.25089   0.00000  Uiso   1.00
C73    C     0.62419   0.16666   0.25003   0.00000  Uiso   1.00
C74    C     0.37581   0.16667   0.24997   0.00000  Uiso   1.00
C75    C     0.52625   0.02400   0.27783   0.00000  Uiso   1.00
C76    C     0.47375   0.30934   0.22217   0.00000  Uiso   1.00
C77    C     0.47384   0.02412   0.22209   0.00000  Uiso   1.00
C78    C     0.52616   0.30922   0.27791   0.00000  Uiso   1.00
C79    C     0.50002   0.16668   0.16334   0.00000  Uiso   1.00
C80    C     0.49998   0.16665   0.33666   0.00000  Uiso   1.00
C81    C     0.50839   0.12679   0.40766   0.00000  Uiso   1.00
C82    C     0.49161   0.20654   0.09234   0.00000  Uiso   1.00
C83    C     0.49984   0.16669   0.38457   0.00000  Uiso   1.00
C84    C     0.50016   0.16664   0.11543   0.00000  Uiso   1.00
C85    C     0.49117   0.20672   0.40712   0.00000  Uiso   1.00
C86    C     0.50883   0.12661   0.09288   0.00000  Uiso   1.00
C87    C     0.49090   0.20742   0.45344   0.00000  Uiso   1.00
C88    C     0.50910   0.12591   0.04656   0.00000  Uiso   1.00
C89    C     0.49991   0.16686   0.47679   0.00000  Uiso   1.00
C90    C     0.50009   0.16647   0.02321   0.00000  Uiso   1.00
C91    C     0.50874   0.12661   0.45369   0.00000  Uiso   1.00
C92    C     0.49126   0.20672   0.04632   0.00000  Uiso   1.00
C93    C     0.48184   0.24738   0.47701   0.00000  Uiso   1.00
C94    C     0.51816   0.08595   0.02299   0.00000  Uiso   1.00
H95    H     0.51505   0.09586   0.38986   0.00000  Uiso   1.00
H96    H     0.48495   0.23747   0.11014   0.00000  Uiso   1.00
H97    H     0.48435   0.23718   0.38837   0.00000  Uiso   1.00
H98    H     0.51565   0.09615   0.11163   0.00000  Uiso   1.00
H99    H     0.47492   0.27724   0.04150   0.00000  Uiso   1.00
H100   H     0.52508   0.05609   0.45850   0.00000  Uiso   1.00
H101   H     0.37073   0.09337   0.24842   0.00000  Uiso   1.00
H102   H     0.62927   0.23996   0.25158   0.00000  Uiso   1.00
H103   H     0.62926   0.09337   0.24835   0.00000  Uiso   1.00
H104   H     0.37074   0.23996   0.25165   0.00000  Uiso   1.00
N105   N     0.50000   0.28573   0.25000   0.00000  Uiso   1.00
N106   N     0.50000   0.04760   0.25000   0.00000  Uiso   1.00
O107   O     0.43892   0.20487   0.25000   0.00000  Uiso   1.00
O108   O     0.56108   0.12846   0.25001   0.00000  Uiso   1.00
O109   O     0.56108   0.20487   0.25001   0.00000  Uiso   1.00
O110   O     0.43892   0.12846   0.25000   0.00000  Uiso   1.00
O111   O     0.49999   0.20489   0.18393   0.00000  Uiso   1.00
O112   O     0.50001   0.12844   0.31608   0.00000  Uiso   1.00
O113   O     0.50001   0.20489   0.31608   0.00000  Uiso   1.00
O114   O     0.49999   0.12844   0.18393   0.00000  Uiso   1.00
Zn115  Zn    0.50000   0.21771   0.25000   0.00000  Uiso   1.00
Zn116  Zn    0.50000   0.11563   0.25000   0.00000  Uiso   1.00
C117   C     0.47194   0.28948   0.45474   0.00000  Uiso   1.00
N118   N     0.46394   0.32312   0.43690   0.00000  Uiso   1.00
C119   C     0.52806   0.04386   0.04526   0.00000  Uiso   1.00
N120   N     0.53605   0.01021   0.06310   0.00000  Uiso   1.00
C121   C     0.55439   0.04834   0.30697   0.00000  Uiso   1.00
N122   N     0.57715   0.06755   0.33040   0.00000  Uiso   1.00
C123   C     0.44561   0.28500   0.19303   0.00000  Uiso   1.00
N124   N     0.42285   0.26578   0.16960   0.00000  Uiso   1.00
C125   C     0.44636   0.04862   0.19225   0.00000  Uiso   1.00
N126   N     0.42425   0.06800   0.16818   0.00000  Uiso   1.00
C127   C     0.55364   0.28472   0.30775   0.00000  Uiso   1.00
N128   N     0.57575   0.26533   0.33182   0.00000  Uiso   1.00
C129   C     0.75332   0.16667   0.24996   0.00000  Uiso   1.00
C130   C     0.91335   0.16666   0.25004   0.00000  Uiso   1.00
C131   C     0.81540   0.24664   0.02331   0.00000  Uiso   1.00
C132   C     0.85126   0.08669   0.47669   0.00000  Uiso   1.00
C133   C     0.68795   0.12549   0.24911   0.00000  Uiso   1.00
C134   C     0.97872   0.20784   0.25089   0.00000  Uiso   1.00
C135   C     0.97872   0.12549   0.24911   0.00000  Uiso   1.00
C136   C     0.68795   0.20785   0.25089   0.00000  Uiso   1.00
C137   C     0.95752   0.16666   0.25003   0.00000  Uiso   1.00
C138   C     0.70915   0.16667   0.24997   0.00000  Uiso   1.00
C139   C     0.85958   0.02400   0.27783   0.00000  Uiso   1.00
C140   C     0.80709   0.30934   0.22217   0.00000  Uiso   1.00
C141   C     0.80717   0.02412   0.22209   0.00000  Uiso   1.00
C142   C     0.85950   0.30922   0.27791   0.00000  Uiso   1.00
C143   C     0.83335   0.16668   0.16334   0.00000  Uiso   1.00
C144   C     0.83331   0.16665   0.33666   0.00000  Uiso   1.00
C145   C     0.84172   0.12679   0.40766   0.00000  Uiso   1.00
C146   C     0.82495   0.20654   0.09234   0.00000  Uiso   1.00
C147   C     0.83317   0.16669   0.38457   0.00000  Uiso   1.00
C148   C     0.83350   0.16664   0.11543   0.00000  Uiso   1.00
C149   C     0.82450   0.20672   0.40712   0.00000  Uiso   1.00
C150   C     0.84216   0.12661   0.09288   0.00000  Uiso   1.00
C151   C     0.82423   0.20742   0.45344   0.00000  Uiso   1.00
C152   C     0.84243   0.12591   0.04656   0.00000  Uiso   1.00
C153   C     0.83324   0.16686   0.47679   0.00000  Uiso   1.00
C154   C     0.83343   0.16647   0.02321   0.00000  Uiso   1.00
C155   C     0.84207   0.12661   0.45369   0.00000  Uiso   1.00
C156   C     0.82459   0.20672   0.04632   0.00000  Uiso   1.00
C157   C     0.81518   0.24738   0.47701   0.00000  Uiso   1.00
C158   C     0.85149   0.08595   0.02299   0.00000  Uiso   1.00
H159   H     0.84839   0.09586   0.38986   0.00000  Uiso   1.00
H160   H     0.81828   0.23747   0.11014   0.00000  Uiso   1.00
H161   H     0.81769   0.23718   0.38837   0.00000  Uiso   1.00
H162   H     0.84898   0.09615   0.11163   0.00000  Uiso   1.00
H163   H     0.80825   0.27724   0.04150   0.00000  Uiso   1.00
H164   H     0.85841   0.05609   0.45850   0.00000  Uiso   1.00
H165   H     0.70407   0.09337   0.24842   0.00000  Uiso   1.00
H166   H     0.96260   0.23996   0.25158   0.00000  Uiso   1.00
H167   H     0.96259   0.09337   0.24835   0.00000  Uiso   1.00
H168   H     0.70408   0.23996   0.25165   0.00000  Uiso   1.00
N169   N     0.83333   0.28573   0.25000   0.00000  Uiso   1.00
N170   N     0.83333   0.04760   0.25000   0.00000  Uiso   1.00
O171   O     0.77226   0.20487   0.25000   0.00000  Uiso   1.00
O172   O     0.89441   0.12846   0.25001   0.00000  Uiso   1.00
O173   O     0.89441   0.20487   0.25001   0.00000  Uiso   1.00
O174   O     0.77226   0.12846   0.25000   0.00000  Uiso   1.00
O175   O     0.83333   0.20489   0.18393   0.00000  Uiso   1.00
O176   O     0.83334   0.12844   0.31608   0.00000  Uiso   1.00
O177   O     0.83334   0.20489   0.31608   0.00000  Uiso   1.00
O178   O     0.83333   0.12844   0.18393   0.00000  Uiso   1.00
Zn179  Zn    0.83333   0.21771   0.25000   0.00000  Uiso   1.00
Zn180  Zn    0.83333   0.11563   0.25000   0.00000  Uiso   1.00
C181   C     0.80527   0.28948   0.45474   0.00000  Uiso   1.00
N182   N     0.79727   0.32312   0.43690   0.00000  Uiso   1.00
C183   C     0.86139   0.04386   0.04526   0.00000  Uiso   1.00
N184   N     0.86939   0.01021   0.06310   0.00000  Uiso   1.00
C185   C     0.88772   0.04834   0.30697   0.00000  Uiso   1.00
N186   N     0.91049   0.06755   0.33040   0.00000  Uiso   1.00
C187   C     0.77894   0.28500   0.19303   0.00000  Uiso   1.00
N188   N     0.75618   0.26578   0.16960   0.00000  Uiso   1.00
C189   C     0.77970   0.04862   0.19225   0.00000  Uiso   1.00
N190   N     0.75759   0.06800   0.16818   0.00000  Uiso   1.00
C191   C     0.88697   0.28472   0.30775   0.00000  Uiso   1.00
N192   N     0.90908   0.26533   0.33182   0.00000  Uiso   1.00
C193   C     0.08665   0.50000   0.24996   0.00000  Uiso   1.00
C194   C     0.24668   0.50000   0.25004   0.00000  Uiso   1.00
C195   C     0.14874   0.57997   0.02331   0.00000  Uiso   1.00
C196   C     0.18459   0.42003   0.47669   0.00000  Uiso   1.00
C197   C     0.02128   0.45882   0.24911   0.00000  Uiso   1.00
C198   C     0.31205   0.54118   0.25089   0.00000  Uiso   1.00
C199   C     0.31205   0.45882   0.24911   0.00000  Uiso   1.00
C200   C     0.02128   0.54118   0.25089   0.00000  Uiso   1.00
C201   C     0.29085   0.50000   0.25003   0.00000  Uiso   1.00
C202   C     0.04248   0.50000   0.24997   0.00000  Uiso   1.00
C203   C     0.19291   0.35733   0.27783   0.00000  Uiso   1.00
C204   C     0.14042   0.64267   0.22217   0.00000  Uiso   1.00
C205   C     0.14050   0.35745   0.22209   0.00000  Uiso   1.00
C206   C     0.19283   0.64255   0.27791   0.00000  Uiso   1.00
C207   C     0.16669   0.50002   0.16334   0.00000  Uiso   1.00
C208   C     0.16665   0.49998   0.33666   0.00000  Uiso   1.00
C209   C     0.17505   0.46013   0.40766   0.00000  Uiso   1.00
C210   C     0.15828   0.53987   0.09234   0.00000  Uiso   1.00
C211   C     0.16650   0.50002   0.38457   0.00000  Uiso   1.00
C212   C     0.16683   0.49998   0.11543   0.00000  Uiso   1.00
C213   C     0.15784   0.54005   0.40712   0.00000  Uiso   1.00
C214   C     0.17550   0.45995   0.09288   0.00000  Uiso   1.00
C215   C     0.15757   0.54075   0.45344   0.00000  Uiso   1.00
C216   C     0.17577   0.45925   0.04656   0.00000  Uiso   1.00
C217   C     0.16657   0.50020   0.47679   0.00000  Uiso   1.00
C218   C     0.16676   0.49980   0.02321   0.00000  Uiso   1.00
C219   C     0.17540   0.45995   0.45369   0.00000  Uiso   1.00
C220   C     0.15793   0.54005   0.04632   0.00000  Uiso   1.00
C221   C     0.14851   0.58072   0.47701   0.00000  Uiso   1.00
C222   C     0.18482   0.41928   0.02299   0.00000  Uiso   1.00
H223   H     0.18172   0.42919   0.38986   0.00000  Uiso   1.00
H224   H     0.15161   0.57080   0.11014   0.00000  Uiso   1.00
H225   H     0.15102   0.57051   0.38837   0.00000  Uiso   1.00
H226   H     0.18231   0.42949   0.11163   0.00000  Uiso   1.00
H227   H     0.14159   0.61057   0.04150   0.00000  Uiso   1.00
H228   H     0.19174   0.38942   0.45850   0.00000  Uiso   1.00
H229   H     0.03740   0.42671   0.24842   0.00000  Uiso   1.00
H230   H     0.29593   0.57329   0.25158   0.00000  Uiso   1.00
H231   H     0.29592   0.42671   0.24835   0.00000  Uiso   1.00
H232   H     0.03741   0.57329   0.25165   0.00000  Uiso   1.00
N233   N     0.16667   0.61907   0.25000   0.00000  Uiso   1.00
N234   N     0.16667   0.38093   0.25000   0.00000  Uiso   1.00
O235   O     0.10559   0.53821   0.25000   0.00000  Uiso   1.00
O236   O     0.22774   0.46179   0.25001   0.00000  Uiso   1.00
O237   O     0.22774   0.53821   0.25001   0.00000  Uiso   1.00
O238   O     0.10559   0.46179   0.25000   0.00000  Uiso   1.00
O239   O     0.16666   0.53823   0.18393   0.00000  Uiso   1.00
O240   O     0.16667   0.46177   0.31608   0.00000  Uiso   1.00
O241   O     0.16667   0.53823   0.31608   0.00000  Uiso   1.00
O242   O     0.16666   0.46177   0.18393   0.00000  Uiso   1.00
Zn243  Zn    0.16667   0.55104   0.25000   0.00000  Uiso   1.00
Zn244  Zn    0.16667   0.44896   0.25000   0.00000  Uiso   1.00
C245   C     0.13860   0.62281   0.45474   0.00000  Uiso   1.00
N246   N     0.13061   0.65645   0.43690   0.00000  Uiso   1.00
C247   C     0.19473   0.37719   0.04526   0.00000  Uiso   1.00
N248   N     0.20272   0.34355   0.06310   0.00000  Uiso   1.00
C249   C     0.22106   0.38167   0.30697   0.00000  Uiso   1.00
N250   N     0.24382   0.40088   0.33040   0.00000  Uiso   1.00
C251   C     0.11228   0.61833   0.19303   0.00000  Uiso   1.00
N252   N     0.08951   0.59912   0.16960   0.00000  Uiso   1.00
C253   C     0.11303   0.38195   0.19225   0.00000  Uiso   1.00
N254   N     0.09092   0.40133   0.16818   0.00000  Uiso   1.00
C255   C     0.22030   0.61805   0.30775   0.00000  Uiso   1.00
N256   N     0.24241   0.59866   0.33182   0.00000  Uiso   1.00
C257   C     0.41998   0.50000   0.24996   0.00000  Uiso   1.00
C258   C     0.58002   0.50000   0.25004   0.00000  Uiso   1.00
C259   C     0.48207   0.57997   0.02331   0.00000  Uiso   1.00
C260   C     0.51793   0.42003   0.47669   0.00000  Uiso   1.00
C261   C     0.35461   0.45882   0.24911   0.00000  Uiso   1.00
C262   C     0.64539   0.54118   0.25089   0.00000  Uiso   1.00
C263   C     0.64538   0.45882   0.24911   0.00000  Uiso   1.00
C264   C     0.35462   0.54118   0.25089   0.00000  Uiso   1.00
C265   C     0.62419   0.50000   0.25003   0.00000  Uiso   1.00
C266   C     0.37581   0.50000   0.24997   0.00000  Uiso   1.00
C267   C     0.52625   0.35733   0.27783   0.00000  Uiso   1.00
C268   C     0.47375   0.64267   0.22217   0.00000  Uiso   1.00
C269   C     0.47384   0.35745   0.22209   0.00000  Uiso   1.00
C270   C     0.52616   0.64255   0.27791   0.00000  Uiso   1.00
C271   C     0.50002   0.50002   0.16334   0.00000  Uiso   1.00
C272   C     0.49998   0.49998   0.33666   0.00000  Uiso   1.00
C273   C     0.50839   0.46013   0.40766   0.00000  Uiso   1.00
C274   C     0.49161   0.53987   0.09234   0.00000  Uiso   1.00
C275   C     0.49984   0.50002   0.38457   0.00000  Uiso   1.00
C276   C     0.50016   0.49998   0.11543   0.00000  Uiso   1.00
C277   C     0.49117   0.54005   0.40712   0.00000  Uiso   1.00
C278   C     0.50883   0.45995   0.09288   0.00000  Uiso   1.00
C279   C     0.49090   0.54075   0.45344   0.00000  Uiso   1.00
C280   C     0.50910   0.45925   0.04656   0.00000  Uiso   1.00
C281   C     0.49991   0.50020   0.47679   0.00000  Uiso   1.00
C282   C     0.50009   0.49980   0.02321   0.00000  Uiso   1.00
C283   C     0.50874   0.45995   0.45369   0.00000  Uiso   1.00
C284   C     0.49126   0.54005   0.04632   0.00000  Uiso   1.00
C285   C     0.48184   0.58072   0.47701   0.00000  Uiso   1.00
C286   C     0.51816   0.41928   0.02299   0.00000  Uiso   1.00
H287   H     0.51505   0.42919   0.38986   0.00000  Uiso   1.00
H288   H     0.48495   0.57080   0.11014   0.00000  Uiso   1.00
H289   H     0.48435   0.57051   0.38837   0.00000  Uiso   1.00
H290   H     0.51565   0.42949   0.11163   0.00000  Uiso   1.00
H291   H     0.47492   0.61057   0.04150   0.00000  Uiso   1.00
H292   H     0.52508   0.38942   0.45850   0.00000  Uiso   1.00
H293   H     0.37073   0.42671   0.24842   0.00000  Uiso   1.00
H294   H     0.62927   0.57329   0.25158   0.00000  Uiso   1.00
H295   H     0.62926   0.42671   0.24835   0.00000  Uiso   1.00
H296   H     0.37074   0.57329   0.25165   0.00000  Uiso   1.00
N297   N     0.50000   0.61907   0.25000   0.00000  Uiso   1.00
N298   N     0.50000   0.38093   0.25000   0.00000  Uiso   1.00
O299   O     0.43892   0.53821   0.25000   0.00000  Uiso   1.00
O300   O     0.56108   0.46179   0.25001   0.00000  Uiso   1.00
O301   O     0.56108   0.53821   0.25001   0.00000  Uiso   1.00
O302   O     0.43892   0.46179   0.25000   0.00000  Uiso   1.00
O303   O     0.49999   0.53823   0.18393   0.00000  Uiso   1.00
O304   O     0.50001   0.46177   0.31608   0.00000  Uiso   1.00
O305   O     0.50001   0.53823   0.31608   0.00000  Uiso   1.00
O306   O     0.49999   0.46177   0.18393   0.00000  Uiso   1.00
Zn307  Zn    0.50000   0.55104   0.25000   0.00000  Uiso   1.00
Zn308  Zn    0.50000   0.44896   0.25000   0.00000  Uiso   1.00
C309   C     0.47194   0.62281   0.45474   0.00000  Uiso   1.00
N310   N     0.46394   0.65645   0.43690   0.00000  Uiso   1.00
C311   C     0.52806   0.37719   0.04526   0.00000  Uiso   1.00
N312   N     0.53605   0.34355   0.06310   0.00000  Uiso   1.00
C313   C     0.55439   0.38167   0.30697   0.00000  Uiso   1.00
N314   N     0.57715   0.40088   0.33040   0.00000  Uiso   1.00
C315   C     0.44561   0.61833   0.19303   0.00000  Uiso   1.00
N316   N     0.42285   0.59912   0.16960   0.00000  Uiso   1.00
C317   C     0.44636   0.38195   0.19225   0.00000  Uiso   1.00
N318   N     0.42425   0.40133   0.16818   0.00000  Uiso   1.00
C319   C     0.55364   0.61805   0.30775   0.00000  Uiso   1.00
N320   N     0.57575   0.59866   0.33182   0.00000  Uiso   1.00
C321   C     0.75332   0.50000   0.24996   0.00000  Uiso   1.00
C322   C     0.91335   0.50000   0.25004   0.00000  Uiso   1.00
C323   C     0.81540   0.57997   0.02331   0.00000  Uiso   1.00
C324   C     0.85126   0.42003   0.47669   0.00000  Uiso   1.00
C325   C     0.68795   0.45882   0.24911   0.00000  Uiso   1.00
C326   C     0.97872   0.54118   0.25089   0.00000  Uiso   1.00
C327   C     0.97872   0.45882   0.24911   0.00000  Uiso   1.00
C328   C     0.68795   0.54118   0.25089   0.00000  Uiso   1.00
C329   C     0.95752   0.50000   0.25003   0.00000  Uiso   1.00
C330   C     0.70915   0.50000   0.24997   0.00000  Uiso   1.00
C331   C     0.85958   0.35733   0.27783   0.00000  Uiso   1.00
C332   C     0.80709   0.64267   0.22217   0.00000  Uiso   1.00
C333   C     0.80717   0.35745   0.22209   0.00000  Uiso   1.00
C334   C     0.85950   0.64255   0.27791   0.00000  Uiso   1.00
C335   C     0.83335   0.50002   0.16334   0.00000  Uiso   1.00
C336   C     0.83331   0.49998   0.33666   0.00000  Uiso   1.00
C337   C     0.84172   0.46013   0.40766   0.00000  Uiso   1.00
C338   C     0.82495   0.53987   0.09234   0.00000  Uiso   1.00
C339   C     0.83317   0.50002   0.38457   0.00000  Uiso   1.00
C340   C     0.83350   0.49998   0.11543   0.00000  Uiso   1.00
C341   C     0.82450   0.54005   0.40712   0.00000  Uiso   1.00
C342   C     0.84216   0.45995   0.09288   0.00000  Uiso   1.00
C343   C     0.82423   0.54075   0.45344   0.00000  Uiso   1.00
C344   C     0.84243   0.45925   0.04656   0.00000  Uiso   1.00
C345   C     0.83324   0.50020   0.47679   0.00000  Uiso   1.00
C346   C     0.83343   0.49980   0.02321   0.00000  Uiso   1.00
C347   C     0.84207   0.45995   0.45369   0.00000  Uiso   1.00
C348   C     0.82459   0.54005   0.04632   0.00000  Uiso   1.00
C349   C     0.81518   0.58072   0.47701   0.00000  Uiso   1.00
C350   C     0.85149   0.41928   0.02299   0.00000  Uiso   1.00
H351   H     0.84839   0.42919   0.38986   0.00000  Uiso   1.00
H352   H     0.81828   0.57080   0.11014   0.00000  Uiso   1.00
H353   H     0.81769   0.57051   0.38837   0.00000  Uiso   1.00
H354   H     0.84898   0.42949   0.11163   0.00000  Uiso   1.00
H355   H     0.80825   0.61057   0.04150   0.00000  Uiso   1.00
H356   H     0.85841   0.38942   0.45850   0.00000  Uiso   1.00
H357   H     0.70407   0.42671   0.24842   0.00000  Uiso   1.00
H358   H     0.96260   0.57329   0.25158   0.00000  Uiso   1.00
H359   H     0.96259   0.42671   0.24835   0.00000  Uiso   1.00
H360   H     0.70408   0.57329   0.25165   0.00000  Uiso   1.00
N361   N     0.83333   0.61907   0.25000   0.00000  Uiso   1.00
N362   N     0.83333   0.38093   0.25000   0.00000  Uiso   1.00
O363   O     0.77226   0.53821   0.25000   0.00000  Uiso   1.00
O364   O     0.89441   0.46179   0.25001   0.00000  Uiso   1.00
O365   O     0.89441   0.53821   0.25001   0.00000  Uiso   1.00
O366   O     0.77226   0.46179   0.25000   0.00000  Uiso   1.00
O367   O     0.83333   0.53823   0.18393   0.00000  Uiso   1.00
O368   O     0.83334   0.46177   0.31608   0.00000  Uiso   1.00
O369   O     0.83334   0.53823   0.31608   0.00000  Uiso   1.00
O370   O     0.83333   0.46177   0.18393   0.00000  Uiso   1.00
Zn371  Zn    0.83333   0.55104   0.25000   0.00000  Uiso   1.00
Zn372  Zn    0.83333   0.44896   0.25000   0.00000  Uiso   1.00
C373   C     0.80527   0.62281   0.45474   0.00000  Uiso   1.00
N374   N     0.79727   0.65645   0.43690   0.00000  Uiso   1.00
C375   C     0.86139   0.37719   0.04526   0.00000  Uiso   1.00
N376   N     0.86939   0.34355   0.06310   0.00000  Uiso   1.00
C377   C     0.88772   0.38167   0.30697   0.00000  Uiso   1.00
N378   N     0.91049   0.40088   0.33040   0.00000  Uiso   1.00
C379   C     0.77894   0.61833   0.19303   0.00000  Uiso   1.00
N380   N     0.75618   0.59912   0.16960   0.00000  Uiso   1.00
C381   C     0.77970   0.38195   0.19225   0.00000  Uiso   1.00
N382   N     0.75759   0.40133   0.16818   0.00000  Uiso   1.00
C383   C     0.88697   0.61805   0.30775   0.00000  Uiso   1.00
N384   N     0.90908   0.59866   0.33182   0.00000  Uiso   1.00
C385   C     0.08665   0.83334   0.24996   0.00000  Uiso   1.00
C386   C     0.24668   0.83333   0.25004   0.00000  Uiso   1.00
C387   C     0.14874   0.91330   0.02331   0.00000  Uiso   1.00
C388   C     0.18459   0.75336   0.47669   0.00000  Uiso   1.00
C389   C     0.02128   0.79216   0.24911   0.00000  Uiso   1.00
C390   C     0.31205   0.87451   0.25089   0.00000  Uiso   1.00
C391   C     0.31205   0.79215   0.24911   0.00000  Uiso   1.00
C392   C     0.02128   0.87451   0.25089   0.00000  Uiso   1.00
C393   C     0.29085   0.83333   0.25003   0.00000  Uiso   1.00
C394   C     0.04248   0.83334   0.24997   0.00000  Uiso   1.00
C395   C     0.19291   0.69066   0.27783   0.00000  Uiso   1.00
C396   C     0.14042   0.97600   0.22217   0.00000  Uiso   1.00
C397   C     0.14050   0.69078   0.22209   0.00000  Uiso   1.00
C398   C     0.19283   0.97588   0.27791   0.00000  Uiso   1.00
C399   C     0.16669   0.83335   0.16334   0.00000  Uiso   1.00
C400   C     0.16665   0.83332   0.33666   0.00000  Uiso   1.00
C401   C     0.17505   0.79346   0.40766   0.00000  Uiso   1.00
C402   C     0.15828   0.87321   0.09234   0.00000  Uiso   1.00
C403   C     0.16650   0.83336   0.38457   0.00000  Uiso   1.00
C404   C     0.16683   0.83331   0.11543   0.00000  Uiso   1.00
C405   C     0.15784   0.87339   0.40712   0.00000  Uiso   1.00
C406   C     0.17550   0.79328   0.09288   0.00000  Uiso   1.00
C407   C     0.15757   0.87409   0.45344   0.00000  Uiso   1.00
C408   C     0.17577   0.79258   0.04656   0.00000  Uiso   1.00
C409   C     0.16657   0.83353   0.47679   0.00000  Uiso   1.00
C410   C     0.16676   0.83314   0.02321   0.00000  Uiso   1.00
C411   C     0.17540   0.79328   0.45369   0.00000  Uiso   1.00
C412   C     0.15793   0.87339   0.04632   0.00000  Uiso   1.00
C413   C     0.14851   0.91405   0.47701   0.00000  Uiso   1.00
C414   C     0.18482   0.75262   0.02299   0.00000  Uiso   1.00
H415   H     0.18172   0.76253   0.38986   0.00000  Uiso   1.00
H416   H     0.15161   0.90414   0.11014   0.00000  Uiso   1.00
H417   H     0.15102   0.90385   0.38837   0.00000  Uiso   1.00
H418   H     0.18231   0.76282   0.11163   0.00000  Uiso   1.00
H419   H     0.14159   0.94391   0.04150   0.00000  Uiso   1.00
H420   H     0.19174   0.72276   0.45850   0.00000  Uiso   1.00
H421   H     0.03740   0.76004   0.24842   0.00000  Uiso   1.00
H422   H     0.29593   0.90663   0.25158   0.00000  Uiso   1.00
H423   H     0.29592   0.76004   0.24835   0.00000  Uiso   1.00
H424   H     0.03741   0.90663   0.25165   0.00000  Uiso   1.00
N425   N     0.16667   0.95240   0.25000   0.00000  Uiso   1.00
N426   N     0.16667   0.71427   0.25000   0.00000  Uiso   1.00
O427   O     0.10559   0.87154   0.25000   0.00000  Uiso   1.00
O428   O     0.22774   0.79513   0.25001   0.00000  Uiso   1.00
O429   O     0.22774   0.87154   0.25001   0.00000  Uiso   1.00
O430   O     0.10559   0.79513   0.25000   0.00000  Uiso   1.00
O431   O     0.16666   0.87156   0.18393   0.00000  Uiso   1.00
O432   O     0.16667   0.79511   0.31608   0.00000  Uiso   1.00
O433   O     0.16667   0.87156   0.31608   0.00000  Uiso   1.00
O434   O     0.16666   0.79511   0.18393   0.00000  Uiso   1.00
Zn435  Zn    0.16667   0.88437   0.25000   0.00000  Uiso   1.00
Zn436  Zn    0.16667   0.78229   0.25000   0.00000  Uiso   1.00
C437   C     0.13860   0.95614   0.45474   0.00000  Uiso   1.00
N438   N     0.13061   0.98978   0.43690   0.00000  Uiso   1.00
C439   C     0.19473   0.71052   0.04526   0.00000  Uiso   1.00
N440   N     0.20272   0.67688   0.06310   0.00000  Uiso   1.00
C441   C     0.22106   0.71500   0.30697   0.00000  Uiso   1.00
N442   N     0.24382   0.73421   0.33040   0.00000  Uiso   1.00
C443   C     0.11228   0.95166   0.19303   0.00000  Uiso   1.00
N444   N     0.08951   0.93245   0.16960   0.00000  Uiso   1.00
C445   C     0.11303   0.71528   0.19225   0.00000  Uiso   1.00
N446   N     0.09092   0.73467   0.16818   0.00000  Uiso   1.00
C447   C     0.22030   0.95138   0.30775   0.00000  Uiso   1.00
N448   N     0.24241   0.93200   0.33182   0.00000  Uiso   1.00
C449   C     0.41998   0.83334   0.24996   0.00000  Uiso   1.00
C450   C     0.58002   0.83333   0.25004   0.00000  Uiso   1.00
C451   C     0.48207   0.91330   0.02331   0.00000  Uiso   1.00
C452   C     0.51793   0.75336   0.47669   0.00000  Uiso   1.00
C453   C     0.35461   0.79216   0.24911   0.00000  Uiso   1.00
C454   C     0.64539   0.87451   0.25089   0.00000  Uiso   1.00
C455   C     0.64538   0.79215   0.24911   0.00000  Uiso   1.00
C456   C     0.35462   0.87451   0.25089   0.00000  Uiso   1.00
C457   C     0.62419   0.83333   0.25003   0.00000  Uiso   1.00
C458   C     0.37581   0.83334   0.24997   0.00000  Uiso   1.00
C459   C     0.52625   0.69066   0.27783   0.00000  Uiso   1.00
C460   C     0.47375   0.97600   0.22217   0.00000  Uiso   1.00
C461   C     0.47384   0.69078   0.22209   0.00000  Uiso   1.00
C462   C     0.52616   0.97588   0.27791   0.00000  Uiso   1.00
C463   C     0.50002   0.83335   0.16334   0.00000  Uiso   1.00
C464   C     0.49998   0.83332   0.33666   0.00000  Uiso   1.00
C465   C     0.50839   0.79346   0.40766   0.00000  Uiso   1.00
C466   C     0.49161   0.87321   0.09234   0.00000  Uiso   1.00
C467   C     0.49984   0.83336   0.38457   0.00000  Uiso   1.00
C468   C     0.50016   0.83331   0.11543   0.00000  Uiso   1.00
C469   C     0.49117   0.87339   0.40712   0.00000  Uiso   1.00
C470   C     0.50883   0.79328   0.09288   0.00000  Uiso   1.00
C471   C     0.49090   0.87409   0.45344   0.00000  Uiso   1.00
C472   C     0.50910   0.79258   0.04656   0.00000  Uiso   1.00
C473   C     0.49991   0.83353   0.47679   0.00000  Uiso   1.00
C474   C     0.50009   0.83314   0.02321   0.00000  Uiso   1.00
C475   C     0.50874   0.79328   0.45369   0.00000  Uiso   1.00
C476   C     0.49126   0.87339   0.04632   0.00000  Uiso   1.00
C477   C     0.48184   0.91405   0.47701   0.00000  Uiso   1.00
C478   C     0.51816   0.75262   0.02299   0.00000  Uiso   1.00
H479   H     0.51505   0.76253   0.38986   0.00000  Uiso   1.00
H480   H     0.48495   0.90414   0.11014   0.00000  Uiso   1.00
H481   H     0.48435   0.90385   0.38837   0.00000  Uiso   1.00
H482   H     0.51565   0.76282   0.11163   0.00000  Uiso   1.00
H483   H     0.47492   0.94391   0.04150   0.00000  Uiso   1.00
H484   H     0.52508   0.72276   0.45850   0.00000  Uiso   1.00
H485   H     0.37073   0.76004   0.24842   0.00000  Uiso   1.00
H486   H     0.62927   0.90663   0.25158   0.00000  Uiso   1.00
H487   H     0.62926   0.76004   0.24835   0.00000  Uiso   1.00
H488   H     0.37074   0.90663   0.25165   0.00000  Uiso   1.00
N489   N     0.50000   0.95240   0.25000   0.00000  Uiso   1.00
N490   N     0.50000   0.71427   0.25000   0.00000  Uiso   1.00
O491   O     0.43892   0.87154   0.25000   0.00000  Uiso   1.00
O492   O     0.56108   0.79513   0.25001   0.00000  Uiso   1.00
O493   O     0.56108   0.87154   0.25001   0.00000  Uiso   1.00
O494   O     0.43892   0.79513   0.25000   0.00000  Uiso   1.00
O495   O     0.49999   0.87156   0.18393   0.00000  Uiso   1.00
O496   O     0.50001   0.79511   0.31608   0.00000  Uiso   1.00
O497   O     0.50001   0.87156   0.31608   0.00000  Uiso   1.00
O498   O     0.49999   0.79511   0.18393   0.00000  Uiso   1.00
Zn499  Zn    0.50000   0.88437   0.25000   0.00000  Uiso   1.00
Zn500  Zn    0.50000   0.78229   0.25000   0.00000  Uiso   1.00
C501   C     0.47194   0.95614   0.45474   0.00000  Uiso   1.00
N502   N     0.46394   0.98978   0.43690   0.00000  Uiso   1.00
C503   C     0.52806   0.71052   0.04526   0.00000  Uiso   1.00
N504   N     0.53605   0.67688   0.06310   0.00000  Uiso   1.00
C505   C     0.55439   0.71500   0.30697   0.00000  Uiso   1.00
N506   N     0.57715   0.73421   0.33040   0.00000  Uiso   1.00
C507   C     0.44561   0.95166   0.19303   0.00000  Uiso   1.00
N508   N     0.42285   0.93245   0.16960   0.00000  Uiso   1.00
C509   C     0.44636   0.71528   0.19225   0.00000  Uiso   1.00
N510   N     0.42425   0.73467   0.16818   0.00000  Uiso   1.00
C511   C     0.55364   0.95138   0.30775   0.00000  Uiso   1.00
N512   N     0.57575   0.93200   0.33182   0.00000  Uiso   1.00
C513   C     0.75332   0.83334   0.24996   0.00000  Uiso   1.00
C514   C     0.91335   0.83333   0.25004   0.00000  Uiso   1.00
C515   C     0.81540   0.91330   0.02331   0.00000  Uiso   1.00
C516   C     0.85126   0.75336   0.47669   0.00000  Uiso   1.00
C517   C     0.68795   0.79216   0.24911   0.00000  Uiso   1.00
C518   C     0.97872   0.87451   0.25089   0.00000  Uiso   1.00
C519   C     0.97872   0.79215   0.24911   0.00000  Uiso   1.00
C520   C     0.68795   0.87451   0.25089   0.00000  Uiso   1.00
C521   C     0.95752   0.83333   0.25003   0.00000  Uiso   1.00
C522   C     0.70915   0.83334   0.24997   0.00000  Uiso   1.00
C523   C     0.85958   0.69066   0.27783   0.00000  Uiso   1.00
C524   C     0.80709   0.97600   0.22217   0.00000  Uiso   1.00
C525   C     0.80717   0.69078   0.22209   0.00000  Uiso   1.00
C526   C     0.85950   0.97588   0.27791   0.00000  Uiso   1.00
C527   C     0.83335   0.83335   0.16334   0.00000  Uiso   1.00
C528   C     0.83331   0.83332   0.33666   0.00000  Uiso   1.00
C529   C     0.84172   0.79346   0.40766   0.00000  Uiso   1.00
C530   C     0.82495   0.87321   0.09234   0.00000  Uiso   1.00
C531   C     0.83317   0.83336   0.38457   0.00000  Uiso   1.00
C532   C     0.83350   0.83331   0.11543   0.00000  Uiso   1.00
C533   C     0.82450   0.87339   0.40712   0.00000  Uiso   1.00
C534   C     0.84216   0.79328   0.09288   0.00000  Uiso   1.00
C535   C     0.82423   0.87409   0.45344   0.00000  Uiso   1.00
C536   C     0.84243   0.79258   0.04656   0.00000  Uiso   1.00
C537   C     0.83324   0.83353   0.47679   0.00000  Uiso   1.00
C538   C     0.83343   0.83314   0.02321   0.00000  Uiso   1.00
C539   C     0.84207   0.79328   0.45369   0.00000  Uiso   1.00
C540   C     0.82459   0.87339   0.04632   0.00000  Uiso   1.00
C541   C     0.81518   0.91405   0.47701   0.00000  Uiso   1.00
C542   C     0.85149   0.75262   0.02299   0.00000  Uiso   1.00
H543   H     0.84839   0.76253   0.38986   0.00000  Uiso   1.00
H544   H     0.81828   0.90414   0.11014   0.00000  Uiso   1.00
H545   H     0.81769   0.90385   0.38837   0.00000  Uiso   1.00
H546   H     0.84898   0.76282   0.11163   0.00000  Uiso   1.00
H547   H     0.80825   0.94391   0.04150   0.00000  Uiso   1.00
H548   H     0.85841   0.72276   0.45850   0.00000  Uiso   1.00
H549   H     0.70407   0.76004   0.24842   0.00000  Uiso   1.00
H550   H     0.96260   0.90663   0.25158   0.00000  Uiso   1.00
H551   H     0.96259   0.76004   0.24835   0.00000  Uiso   1.00
H552   H     0.70408   0.90663   0.25165   0.00000  Uiso   1.00
N553   N     0.83333   0.95240   0.25000   0.00000  Uiso   1.00
N554   N     0.83333   0.71427   0.25000   0.00000  Uiso   1.00
O555   O     0.77226   0.87154   0.25000   0.00000  Uiso   1.00
O556   O     0.89441   0.79513   0.25001   0.00000  Uiso   1.00
O557   O     0.89441   0.87154   0.25001   0.00000  Uiso   1.00
O558   O     0.77226   0.79513   0.25000   0.00000  Uiso   1.00
O559   O     0.83333   0.87156   0.18393   0.00000  Uiso   1.00
O560   O     0.83334   0.79511   0.31608   0.00000  Uiso   1.00
O561   O     0.83334   0.87156   0.31608   0.00000  Uiso   1.00
O562   O     0.83333   0.79511   0.18393   0.00000  Uiso   1.00
Zn563  Zn    0.83333   0.88437   0.25000   0.00000  Uiso   1.00
Zn564  Zn    0.83333   0.78229   0.25000   0.00000  Uiso   1.00
C565   C     0.80527   0.95614   0.45474   0.00000  Uiso   1.00
N566   N     0.79727   0.98978   0.43690   0.00000  Uiso   1.00
C567   C     0.86139   0.71052   0.04526   0.00000  Uiso   1.00
N568   N     0.86939   0.67688   0.06310   0.00000  Uiso   1.00
C569   C     0.88772   0.71500   0.30697   0.00000  Uiso   1.00
N570   N     0.91049   0.73421   0.33040   0.00000  Uiso   1.00
C571   C     0.77894   0.95166   0.19303   0.00000  Uiso   1.00
N572   N     0.75618   0.93245   0.16960   0.00000  Uiso   1.00
C573   C     0.77970   0.71528   0.19225   0.00000  Uiso   1.00
N574   N     0.75759   0.73467   0.16818   0.00000  Uiso   1.00
C575   C     0.88697   0.95138   0.30775   0.00000  Uiso   1.00
N576   N     0.90908   0.93200   0.33182   0.00000  Uiso   1.00
C577   C     0.08665   0.16667   0.74996   0.00000  Uiso   1.00
C578   C     0.24668   0.16666   0.75004   0.00000  Uiso   1.00
C579   C     0.14874   0.24664   0.52331   0.00000  Uiso   1.00
C580   C     0.18459   0.08669   0.97669   0.00000  Uiso   1.00
C581   C     0.02128   0.12549   0.74911   0.00000  Uiso   1.00
C582   C     0.31205   0.20784   0.75089   0.00000  Uiso   1.00
C583   C     0.31205   0.12549   0.74911   0.00000  Uiso   1.00
C584   C     0.02128   0.20785   0.75089   0.00000  Uiso   1.00
C585   C     0.29085   0.16666   0.75003   0.00000  Uiso   1.00
C586   C     0.04248   0.16667   0.74997   0.00000  Uiso   1.00
C587   C     0.19291   0.02400   0.77783   0.00000  Uiso   1.00
C588   C     0.14042   0.30934   0.72217   0.00000  Uiso   1.00
C589   C     0.14050   0.02412   0.72209   0.00000  Uiso   1.00
C590   C     0.19283   0.30922   0.77791   0.00000  Uiso   1.00
C591   C     0.16669   0.16668   0.66334   0.00000  Uiso   1.00
C592   C     0.16665   0.16665   0.83666   0.00000  Uiso   1.00
C593   C     0.17505   0.12679   0.90766   0.00000  Uiso   1.00
C594   C     0.15828   0.20654   0.59234   0.00000  Uiso   1.00
C595   C     0.16650   0.16669   0.88457   0.00000  Uiso   1.00
C596   C     0.16683   0.16664   0.61543   0.00000  Uiso   1.00
C597   C     0.15784   0.20672   0.90712   0.00000  Uiso   1.00
C598   C     0.17550   0.12661   0.59288   0.00000  Uiso   1.00
C599   C     0.15757   0.20742   0.95344   0.00000  Uiso   1.00
C600   C     0.17577   0.12591   0.54656   0.00000  Uiso   1.00
C601   C     0.16657   0.16686   0.97679   0.00000  Uiso   1.00
C602   C     0.16676   0.16647   0.52321   0.00000  Uiso   1.00
C603   C     0.17540   0.12661   0.95369   0.00000  Uiso   1.00
C604   C     0.15793   0.20672   0.54632   0.00000  Uiso   1.00
C605   C     0.14851   0.24738   0.97701   0.00000  Uiso   1.00
C606   C     0.18482   0.08595   0.52299   0.00000  Uiso   1.00
H607   H     0.18172   0.09586   0.88986   0.00000  Uiso   1.00
H608   H     0.15161   0.23747   0.61014   0.00000  Uiso   1.00
H609   H     0.15102   0.23718   0.88837   0.00000  Uiso   1.00
H610   H     0.18231   0.09615   0.61163   0.00000  Uiso   1.00
H611   H     0.14159   0.27724   0.54150   0.00000  Uiso   1.00
H612   H     0.19174   0.05609   0.95850   0.00000  Uiso   1.00
H613   H     0.03740   0.09337   0.74842   0.00000  Uiso   1.00
H614   H     0.29593   0.23996   0.75158   0.00000  Uiso   1.00
H615   H     0.29592   0.09337   0.74835   0.00000  Uiso   1.00
H616   H     0.03741   0.23996   0.75165   0.00000  Uiso   1.00
N617   N     0.16667   0.28573   0.75000   0.00000  Uiso   1.00
N618   N     0.16667   0.04760   0.75000   0.00000  Uiso   1.00
O619   O     0.10559   0.20487   0.75000   0.00000  Uiso   1.00
O620   O     0.22774   0.12846   0.75001   0.00000  Uiso   1.00
O621   O     0.22774   0.20487   0.75001   0.00000  Uiso   1.00
O622   O     0.10559   0.12846   0.75000   0.00000  Uiso   1.00
O623   O     0.16666   0.20489   0.68393   0.00000  Uiso   1.00
O624   O     0.16667   0.12844   0.81608   0.00000  Uiso   1.00
O625   O     0.16667   0.20489   0.81608   0.00000  Uiso   1.00
O626   O     0.16666   0.12844   0.68393   0.00000  Uiso   1.00
Zn627  Zn    0.16667   0.21771   0.75000   0.00000  Uiso   1.00
Zn628  Zn    0.16667   0.11563   0.75000   0.00000  Uiso   1.00
C629   C     0.13860   0.28948   0.95474   0.00000  Uiso   1.00
N630   N     0.13061   0.32312   0.93690   0.00000  Uiso   1.00
C631   C     0.19473   0.04386   0.54526   0.00000  Uiso   1.00
N632   N     0.20272   0.01021   0.56310   0.00000  Uiso   1.00
C633   C     0.22106   0.04834   0.80697   0.00000  Uiso   1.00
N634   N     0.24382   0.06755   0.83040   0.00000  Uiso   1.00
C635   C     0.11228   0.28500   0.69303   0.00000  Uiso   1.00
N636   N     0.08951   0.26578   0.66960   0.00000  Uiso   1.00
C637   C     0.11303   0.04862   0.69225   0.00000  Uiso   1.00
N638   N     0.09092   0.06800   0.66818   0.00000  Uiso   1.00
C639   C     0.22030   0.28472   0.80775   0.00000  Uiso   1.00
N640   N     0.24241   0.26533   0.83182   0.00000  Uiso   1.00
C641   C     0.41998   0.16667   0.74996   0.00000  Uiso   1.00
C642   C     0.58002   0.16666   0.75004   0.00000  Uiso   1.00
C643   C     0.48207   0.24664   0.52331   0.00000  Uiso   1.00
C644   C     0.51793   0.08669   0.97669   0.00000  Uiso   1.00
C645   C     0.35461   0.12549   0.74911   0.00000  Uiso   1.00
C646   C     0.64539   0.20784   0.75089   0.00000  Uiso   1.00
C647   C     0.64538   0.12549   0.74911   0.00000  Uiso   1.00
C648   C     0.35462   0.20785   0.75089   0.00000  Uiso   1.00
C649   C     0.62419   0.16666   0.75003   0.00000  Uiso   1.00
C650   C     0.37581   0.16667   0.74997   0.00000  Uiso   1.00
C651   C     0.52625   0.02400   0.77783   0.00000  Uiso   1.00
C652   C     0.47375   0.30934   0.72217   0.00000  Uiso   1.00
C653   C     0.47384   0.02412   0.72209   0.00000  Uiso   1.00
C654   C     0.52616   0.30922   0.77791   0.00000  Uiso   1.00
C655   C     0.50002   0.16668   0.66334   0.00000  Uiso   1.00
C656   C     0.49998   0.16665   0.83666   0.00000  Uiso   1.00
C657   C     0.50839   0.12679   0.90766   0.00000  Uiso   1.00
C658   C     0.49161   0.20654   0.59234   0.00000  Uiso   1.00
C659   C     0.49984   0.16669   0.88457   0.00000  Uiso   1.00
C660   C     0.50016   0.16664   0.61543   0.00000  Uiso   1.00
C661   C     0.49117   0.20672   0.90712   0.00000  Uiso   1.00
C662   C     0.50883   0.12661   0.59288   0.00000  Uiso   1.00
C663   C     0.49090   0.20742   0.95344   0.00000  Uiso   1.00
C664   C     0.50910   0.12591   0.54656   0.00000  Uiso   1.00
C665   C     0.49991   0.16686   0.97679   0.00000  Uiso   1.00
C666   C     0.50009   0.16647   0.52321   0.00000  Uiso   1.00
C667   C     0.50874   0.12661   0.95369   0.00000  Uiso   1.00
C668   C     0.49126   0.20672   0.54632   0.00000  Uiso   1.00
C669   C     0.48184   0.24738   0.97701   0.00000  Uiso   1.00
C670   C     0.51816   0.08595   0.52299   0.00000  Uiso   1.00
H671   H     0.51505   0.09586   0.88986   0.00000  Uiso   1.00
H672   H     0.48495   0.23747   0.61014   0.00000  Uiso   1.00
H673   H     0.48435   0.23718   0.88837   0.00000  Uiso   1.00
H674   H     0.51565   0.09615   0.61163   0.00000  Uiso   1.00
H675   H     0.47492   0.27724   0.54150   0.00000  Uiso   1.00
H676   H     0.52508   0.05609   0.95850   0.00000  Uiso   1.00
H677   H     0.37073   0.09337   0.74842   0.00000  Uiso   1.00
H678   H     0.62927   0.23996   0.75158   0.00000  Uiso   1.00
H679   H     0.62926   0.09337   0.74835   0.00000  Uiso   1.00
H680   H     0.37074   0.23996   0.75165   0.00000  Uiso   1.00
N681   N     0.50000   0.28573   0.75000   0.00000  Uiso   1.00
N682   N     0.50000   0.04760   0.75000   0.00000  Uiso   1.00
O683   O     0.43892   0.20487   0.75000   0.00000  Uiso   1.00
O684   O     0.56108   0.12846   0.75001   0.00000  Uiso   1.00
O685   O     0.56108   0.20487   0.75001   0.00000  Uiso   1.00
O686   O     0.43892   0.12846   0.75000   0.00000  Uiso   1.00
O687   O     0.49999   0.20489   0.68393   0.00000  Uiso   1.00
O688   O     0.50001   0.12844   0.81608   0.00000  Uiso   1.00
O689   O     0.50001   0.20489   0.81608   0.00000  Uiso   1.00
O690   O     0.49999   0.12844   0.68393   0.00000  Uiso   1.00
Zn691  Zn    0.50000   0.21771   0.75000   0.00000  Uiso   1.00
Zn692  Zn    0.50000   0.11563   0.75000   0.00000  Uiso   1.00
C693   C     0.47194   0.28948   0.95474   0.00000  Uiso   1.00
N694   N     0.46394   0.32312   0.93690   0.00000  Uiso   1.00
C695   C     0.52806   0.04386   0.54526   0.00000  Uiso   1.00
N696   N     0.53605   0.01021   0.56310   0.00000  Uiso   1.00
C697   C     0.55439   0.04834   0.80697   0.00000  Uiso   1.00
N698   N     0.57715   0.06755   0.83040   0.00000  Uiso   1.00
C699   C     0.44561   0.28500   0.69303   0.00000  Uiso   1.00
N700   N     0.42285   0.26578   0.66960   0.00000  Uiso   1.00
C701   C     0.44636   0.04862   0.69225   0.00000  Uiso   1.00
N702   N     0.42425   0.06800   0.66818   0.00000  Uiso   1.00
C703   C     0.55364   0.28472   0.80775   0.00000  Uiso   1.00
N704   N     0.57575   0.26533   0.83182   0.00000  Uiso   1.00
C705   C     0.75332   0.16667   0.74996   0.00000  Uiso   1.00
C706   C     0.91335   0.16666   0.75004   0.00000  Uiso   1.00
C707   C     0.81540   0.24664   0.52331   0.00000  Uiso   1.00
C708   C     0.85126   0.08669   0.97669   0.00000  Uiso   1.00
C709   C     0.68795   0.12549   0.74911   0.00000  Uiso   1.00
C710   C     0.97872   0.20784   0.75089   0.00000  Uiso   1.00
C711   C     0.97872   0.12549   0.74911   0.00000  Uiso   1.00
C712   C     0.68795   0.20785   0.75089   0.00000  Uiso   1.00
C713   C     0.95752   0.16666   0.75003   0.00000  Uiso   1.00
C714   C     0.70915   0.16667   0.74997   0.00000  Uiso   1.00
C715   C     0.85958   0.02400   0.77783   0.00000  Uiso   1.00
C716   C     0.80709   0.30934   0.72217   0.00000  Uiso   1.00
C717   C     0.80717   0.02412   0.72209   0.00000  Uiso   1.00
C718   C     0.85950   0.30922   0.77791   0.00000  Uiso   1.00
C719   C     0.83335   0.16668   0.66334   0.00000  Uiso   1.00
C720   C     0.83331   0.16665   0.83666   0.00000  Uiso   1.00
C721   C     0.84172   0.12679   0.90766   0.00000  Uiso   1.00
C722   C     0.82495   0.20654   0.59234   0.00000  Uiso   1.00
C723   C     0.83317   0.16669   0.88457   0.00000  Uiso   1.00
C724   C     0.83350   0.16664   0.61543   0.00000  Uiso   1.00
C725   C     0.82450   0.20672   0.90712   0.00000  Uiso   1.00
C726   C     0.84216   0.12661   0.59288   0.00000  Uiso   1.00
C727   C     0.82423   0.20742   0.95344   0.00000  Uiso   1.00
C728   C     0.84243   0.12591   0.54656   0.00000  Uiso   1.00
C729   C     0.83324   0.16686   0.97679   0.00000  Uiso   1.00
C730   C     0.83343   0.16647   0.52321   0.00000  Uiso   1.00
C731   C     0.84207   0.12661   0.95369   0.00000  Uiso   1.00
C732   C     0.82459   0.20672   0.54632   0.00000  Uiso   1.00
C733   C     0.81518   0.24738   0.97701   0.00000  Uiso   1.00
C734   C     0.85149   0.08595   0.52299   0.00000  Uiso   1.00
H735   H     0.84839   0.09586   0.88986   0.00000  Uiso   1.00
H736   H     0.81828   0.23747   0.61014   0.00000  Uiso   1.00
H737   H     0.81769   0.23718   0.88837   0.00000  Uiso   1.00
H738   H     0.84898   0.09615   0.61163   0.00000  Uiso   1.00
H739   H     0.80825   0.27724   0.54150   0.00000  Uiso   1.00
H740   H     0.85841   0.05609   0.95850   0.00000  Uiso   1.00
H741   H     0.70407   0.09337   0.74842   0.00000  Uiso   1.00
H742   H     0.96260   0.23996   0.75158   0.00000  Uiso   1.00
H743   H     0.96259   0.09337   0.74835   0.00000  Uiso   1.00
H744   H     0.70408   0.23996   0.75165   0.00000  Uiso   1.00
N745   N     0.83333   0.28573   0.75000   0.00000  Uiso   1.00
N746   N     0.83333   0.04760   0.75000   0.00000  Uiso   1.00
O747   O     0.77226   0.20487   0.75000   0.00000  Uiso   1.00
O748   O     0.89441   0.12846   0.75001   0.00000  Uiso   1.00
O749   O     0.89441   0.20487   0.75001   0.00000  Uiso   1.00
O750   O     0.77226   0.12846   0.75000   0.00000  Uiso   1.00
O751   O     0.83333   0.20489   0.68393   0.00000  Uiso   1.00
O752   O     0.83334   0.12844   0.81608   0.00000  Uiso   1.00
O753   O     0.83334   0.20489   0.81608   0.00000  Uiso   1.00
O754   O     0.83333   0.12844   0.68393   0.00000  Uiso   1.00
Zn755  Zn    0.83333   0.21771   0.75000   0.00000  Uiso   1.00
Zn756  Zn    0.83333   0.11563   0.75000   0.00000  Uiso   1.00
C757   C     0.80527   0.28948   0.95474   0.00000  Uiso   1.00
N758   N     0.79727   0.32312   0.93690   0.00000  Uiso   1.00
C759   C     0.86139   0.04386   0.54526   0.00000  Uiso   1.00
N760   N     0.86939   0.01021   0.56310   0.00000  Uiso   1.00
C761   C     0.88772   0.04834   0.80697   0.00000  Uiso   1.00
N762   N     0.91049   0.06755   0.83040   0.00000  Uiso   1.00
C763   C     0.77894   0.28500   0.69303   0.00000  Uiso   1.00
N764   N     0.75618   0.26578   0.66960   0.00000  Uiso   1.00
C765   C     0.77970   0.04862   0.69225   0.00000  Uiso   1.00
N766   N     0.75759   0.06800   0.66818   0.00000  Uiso   1.00
C767   C     0.88697   0.28472   0.80775   0.00000  Uiso   1.00
N768   N     0.90908   0.26533   0.83182   0.00000  Uiso   1.00
C769   C     0.08665   0.50000   0.74996   0.00000  Uiso   1.00
C770   C     0.24668   0.50000   0.75004   0.00000  Uiso   1.00
C771   C     0.14874   0.57997   0.52331   0.00000  Uiso   1.00
C772   C     0.18459   0.42003   0.97669   0.00000  Uiso   1.00
C773   C     0.02128   0.45882   0.74911   0.00000  Uiso   1.00
C774   C     0.31205   0.54118   0.75089   0.00000  Uiso   1.00
C775   C     0.31205   0.45882   0.74911   0.00000  Uiso   1.00
C776   C     0.02128   0.54118   0.75089   0.00000  Uiso   1.00
C777   C     0.29085   0.50000   0.75003   0.00000  Uiso   1.00
C778   C     0.04248   0.50000   0.74997   0.00000  Uiso   1.00
C779   C     0.19291   0.35733   0.77783   0.00000  Uiso   1.00
C780   C     0.14042   0.64267   0.72217   0.00000  Uiso   1.00
C781   C     0.14050   0.35745   0.72209   0.00000  Uiso   1.00
C782   C     0.19283   0.64255   0.77791   0.00000  Uiso   1.00
C783   C     0.16669   0.50002   0.66334   0.00000  Uiso   1.00
C784   C     0.16665   0.49998   0.83666   0.00000  Uiso   1.00
C785   C     0.17505   0.46013   0.90766   0.00000  Uiso   1.00
C786   C     0.15828   0.53987   0.59234   0.00000  Uiso   1.00
C787   C     0.16650   0.50002   0.88457   0.00000  Uiso   1.00
C788   C     0.16683   0.49998   0.61543   0.00000  Uiso   1.00
C789   C     0.15784   0.54005   0.90712   0.00000  Uiso   1.00
C790   C     0.17550   0.45995   0.59288   0.00000  Uiso   1.00
C791   C     0.15757   0.54075   0.95344   0.00000  Uiso   1.00
C792   C     0.17577   0.45925   0.54656   0.00000  Uiso   1.00
C793   C     0.16657   0.50020   0.97679   0.00000  Uiso   1.00
C794   C     0.16676   0.49980   0.52321   0.00000  Uiso   1.00
C795   C     0.17540   0.45995   0.95369   0.00000  Uiso   1.00
C796   C     0.15793   0.54005   0.54632   0.00000  Uiso   1.00
C797   C     0.14851   0.58072   0.97701   0.00000  Uiso   1.00
C798   C     0.18482   0.41928   0.52299   0.00000  Uiso   1.00
H799   H     0.18172   0.42919   0.88986   0.00000  Uiso   1.00
H800   H     0.15161   0.57080   0.61014   0.00000  Uiso   1.00
H801   H     0.15102   0.57051   0.88837   0.00000  Uiso   1.00
H802   H     0.18231   0.42949   0.61163   0.00000  Uiso   1.00
H803   H     0.14159   0.61057   0.54150   0.00000  Uiso   1.00
H804   H     0.19174   0.38942   0.95850   0.00000  Uiso   1.00
H805   H     0.03740   0.42671   0.74842   0.00000  Uiso   1.00
H806   H     0.29593   0.57329   0.75158   0.00000  Uiso   1.00
H807   H     0.29592   0.42671   0.74835   0.00000  Uiso   1.00
H808   H     0.03741   0.57329   0.75165   0.00000  Uiso   1.00
N809   N     0.16667   0.61907   0.75000   0.00000  Uiso   1.00
N810   N     0.16667   0.38093   0.75000   0.00000  Uiso   1.00
O811   O     0.10559   0.53821   0.75000   0.00000  Uiso   1.00
O812   O     0.22774   0.46179   0.75001   0.00000  Uiso   1.00
O813   O     0.22774   0.53821   0.75001   0.00000  Uiso   1.00
O814   O     0.10559   0.46179   0.75000   0.00000  Uiso   1.00
O815   O     0.16666   0.53823   0.68393   0.00000  Uiso   1.00
O816   O     0.16667   0.46177   0.81608   0.00000  Uiso   1.00
O817   O     0.16667   0.53823   0.81608   0.00000  Uiso   1.00
O818   O     0.16666   0.46177   0.68393   0.00000  Uiso   1.00
Zn819  Zn    0.16667   0.55104   0.75000   0.00000  Uiso   1.00
Zn820  Zn    0.16667   0.44896   0.75000   0.00000  Uiso   1.00
C821   C     0.13860   0.62281   0.95474   0.00000  Uiso   1.00
N822   N     0.13061   0.65645   0.93690   0.00000  Uiso   1.00
C823   C     0.19473   0.37719   0.54526   0.00000  Uiso   1.00
N824   N     0.20272   0.34355   0.56310   0.00000  Uiso   1.00
C825   C     0.22106   0.38167   0.80697   0.00000  Uiso   1.00
N826   N     0.24382   0.40088   0.83040   0.00000  Uiso   1.00
C827   C     0.11228   0.61833   0.69303   0.00000  Uiso   1.00
N828   N     0.08951   0.59912   0.66960   0.00000  Uiso   1.00
C829   C     0.11303   0.38195   0.69225   0.00000  Uiso   1.00
N830   N     0.09092   0.40133   0.66818   0.00000  Uiso   1.00
C831   C     0.22030   0.61805   0.80775   0.00000  Uiso   1.00
N832   N     0.24241   0.59866   0.83182   0.00000  Uiso   1.00
C833   C     0.41998   0.50000   0.74996   0.00000  Uiso   1.00
C834   C     0.58002   0.50000   0.75004   0.00000  Uiso   1.00
C835   C     0.48207   0.57997   0.52331   0.00000  Uiso   1.00
C836   C     0.51793   0.42003   0.97669   0.00000  Uiso   1.00
C837   C     0.35461   0.45882   0.74911   0.00000  Uiso   1.00
C838   C     0.64539   0.54118   0.75089   0.00000  Uiso   1.00
C839   C     0.64538   0.45882   0.74911   0.00000  Uiso   1.00
C840   C     0.35462   0.54118   0.75089   0.00000  Uiso   1.00
C841   C     0.62419   0.50000   0.75003   0.00000  Uiso   1.00
C842   C     0.37581   0.50000   0.74997   0.00000  Uiso   1.00
C843   C     0.52625   0.35733   0.77783   0.00000  Uiso   1.00
C844   C     0.47375   0.64267   0.72217   0.00000  Uiso   1.00
C845   C     0.47384   0.35745   0.72209   0.00000  Uiso   1.00
C846   C     0.52616   0.64255   0.77791   0.00000  Uiso   1.00
C847   C     0.50002   0.50002   0.66334   0.00000  Uiso   1.00
C848   C     0.49998   0.49998   0.83666   0.00000  Uiso   1.00
C849   C     0.50839   0.46013   0.90766   0.00000  Uiso   1.00
C850   C     0.49161   0.53987   0.59234   0.00000  Uiso   1.00
C851   C     0.49984   0.50002   0.88457   0.00000  Uiso   1.00
C852   C     0.50016   0.49998   0.61543   0.00000  Uiso   1.00
C853   C     0.49117   0.54005   0.90712   0.00000  Uiso   1.00
C854   C     0.50883   0.45995   0.59288   0.00000  Uiso   1.00
C855   C     0.49090   0.54075   0.95344   0.00000  Uiso   1.00
C856   C     0.50910   0.45925   0.54656   0.00000  Uiso   1.00
C857   C     0.49991   0.50020   0.97679   0.00000  Uiso   1.00
C858   C     0.50009   0.49980   0.52321   0.00000  Uiso   1.00
C859   C     0.50874   0.45995   0.95369   0.00000  Uiso   1.00
C860   C     0.49126   0.54005   0.54632   0.00000  Uiso   1.00
C861   C     0.48184   0.58072   0.97701   0.00000  Uiso   1.00
C862   C     0.51816   0.41928   0.52299   0.00000  Uiso   1.00
H863   H     0.51505   0.42919   0.88986   0.00000  Uiso   1.00
H864   H     0.48495   0.57080   0.61014   0.00000  Uiso   1.00
H865   H     0.48435   0.57051   0.88837   0.00000  Uiso   1.00
H866   H     0.51565   0.42949   0.61163   0.00000  Uiso   1.00
H867   H     0.47492   0.61057   0.54150   0.00000  Uiso   1.00
H868   H     0.52508   0.38942   0.95850   0.00000  Uiso   1.00
H869   H     0.37073   0.42671   0.74842   0.00000  Uiso   1.00
H870   H     0.62927   0.57329   0.75158   0.00000  Uiso   1.00
H871   H     0.62926   0.42671   0.74835   0.00000  Uiso   1.00
H872   H     0.37074   0.57329   0.75165   0.00000  Uiso   1.00
N873   N     0.50000   0.61907   0.75000   0.00000  Uiso   1.00
N874   N     0.50000   0.38093   0.75000   0.00000  Uiso   1.00
O875   O     0.43892   0.53821   0.75000   0.00000  Uiso   1.00
O876   O     0.56108   0.46179   0.75001   0.00000  Uiso   1.00
O877   O     0.56108   0.53821   0.75001   0.00000  Uiso   1.00
O878   O     0.43892   0.46179   0.75000   0.00000  Uiso   1.00
O879   O     0.49999   0.53823   0.68393   0.00000  Uiso   1.00
O880   O     0.50001   0.46177   0.81608   0.00000  Uiso   1.00
O881   O     0.50001   0.53823   0.81608   0.00000  Uiso   1.00
O882   O     0.49999   0.46177   0.68393   0.00000  Uiso   1.00
Zn883  Zn    0.50000   0.55104   0.75000   0.00000  Uiso   1.00
Zn884  Zn    0.50000   0.44896   0.75000   0.00000  Uiso   1.00
C885   C     0.47194   0.62281   0.95474   0.00000  Uiso   1.00
N886   N     0.46394   0.65645   0.93690   0.00000  Uiso   1.00
C887   C     0.52806   0.37719   0.54526   0.00000  Uiso   1.00
N888   N     0.53605   0.34355   0.56310   0.00000  Uiso   1.00
C889   C     0.55439   0.38167   0.80697   0.00000  Uiso   1.00
N890   N     0.57715   0.40088   0.83040   0.00000  Uiso   1.00
C891   C     0.44561   0.61833   0.69303   0.00000  Uiso   1.00
N892   N     0.42285   0.59912   0.66960   0.00000  Uiso   1.00
C893   C     0.44636   0.38195   0.69225   0.00000  Uiso   1.00
N894   N     0.42425   0.40133   0.66818   0.00000  Uiso   1.00
C895   C     0.55364   0.61805   0.80775   0.00000  Uiso   1.00
N896   N     0.57575   0.59866   0.83182   0.00000  Uiso   1.00
C897   C     0.75332   0.50000   0.74996   0.00000  Uiso   1.00
C898   C     0.91335   0.50000   0.75004   0.00000  Uiso   1.00
C899   C     0.81540   0.57997   0.52331   0.00000  Uiso   1.00
C900   C     0.85126   0.42003   0.97669   0.00000  Uiso   1.00
C901   C     0.68795   0.45882   0.74911   0.00000  Uiso   1.00
C902   C     0.97872   0.54118   0.75089   0.00000  Uiso   1.00
C903   C     0.97872   0.45882   0.74911   0.00000  Uiso   1.00
C904   C     0.68795   0.54118   0.75089   0.00000  Uiso   1.00
C905   C     0.95752   0.50000   0.75003   0.00000  Uiso   1.00
C906   C     0.70915   0.50000   0.74997   0.00000  Uiso   1.00
C907   C     0.85958   0.35733   0.77783   0.00000  Uiso   1.00
C908   C     0.80709   0.64267   0.72217   0.00000  Uiso   1.00
C909   C     0.80717   0.35745   0.72209   0.00000  Uiso   1.00
C910   C     0.85950   0.64255   0.77791   0.00000  Uiso   1.00
C911   C     0.83335   0.50002   0.66334   0.00000  Uiso   1.00
C912   C     0.83331   0.49998   0.83666   0.00000  Uiso   1.00
C913   C     0.84172   0.46013   0.90766   0.00000  Uiso   1.00
C914   C     0.82495   0.53987   0.59234   0.00000  Uiso   1.00
C915   C     0.83317   0.50002   0.88457   0.00000  Uiso   1.00
C916   C     0.83350   0.49998   0.61543   0.00000  Uiso   1.00
C917   C     0.82450   0.54005   0.90712   0.00000  Uiso   1.00
C918   C     0.84216   0.45995   0.59288   0.00000  Uiso   1.00
C919   C     0.82423   0.54075   0.95344   0.00000  Uiso   1.00
C920   C     0.84243   0.45925   0.54656   0.00000  Uiso   1.00
C921   C     0.83324   0.50020   0.97679   0.00000  Uiso   1.00
C922   C     0.83343   0.49980   0.52321   0.00000  Uiso   1.00
C923   C     0.84207   0.45995   0.95369   0.00000  Uiso   1.00
C924   C     0.82459   0.54005   0.54632   0.00000  Uiso   1.00
C925   C     0.81518   0.58072   0.97701   0.00000  Uiso   1.00
C926   C     0.85149   0.41928   0.52299   0.00000  Uiso   1.00
H927   H     0.84839   0.42919   0.88986   0.00000  Uiso   1.00
H928   H     0.81828   0.57080   0.61014   0.00000  Uiso   1.00
H929   H     0.81769   0.57051   0.88837   0.00000  Uiso   1.00
H930   H     0.84898   0.42949   0.61163   0.00000  Uiso   1.00
H931   H     0.80825   0.61057   0.54150   0.00000  Uiso   1.00
H932   H     0.85841   0.38942   0.95850   0.00000  Uiso   1.00
H933   H     0.70407   0.42671   0.74842   0.00000  Uiso   1.00
H934   H     0.96260   0.57329   0.75158   0.00000  Uiso   1.00
H935   H     0.96259   0.42671   0.74835   0.00000  Uiso   1.00
H936   H     0.70408   0.57329   0.75165   0.00000  Uiso   1.00
N937   N     0.83333   0.61907   0.75000   0.00000  Uiso   1.00
N938   N     0.83333   0.38093   0.75000   0.00000  Uiso   1.00
O939   O     0.77226   0.53821   0.75000   0.00000  Uiso   1.00
O940   O     0.89441   0.46179   0.75001   0.00000  Uiso   1.00
O941   O     0.89441   0.53821   0.75001   0.00000  Uiso   1.00
O942   O     0.77226   0.46179   0.75000   0.00000  Uiso   1.00
O943   O     0.83333   0.53823   0.68393   0.00000  Uiso   1.00
O944   O     0.83334   0.46177   0.81608   0.00000  Uiso   1.00
O945   O     0.83334   0.53823   0.81608   0.00000  Uiso   1.00
O946   O     0.83333   0.46177   0.68393   0.00000  Uiso   1.00
Zn947  Zn    0.83333   0.55104   0.75000   0.00000  Uiso   1.00
Zn948  Zn    0.83333   0.44896   0.75000   0.00000  Uiso   1.00
C949   C     0.80527   0.62281   0.95474   0.00000  Uiso   1.00
N950   N     0.79727   0.65645   0.93690   0.00000  Uiso   1.00
C951   C     0.86139   0.37719   0.54526   0.00000  Uiso   1.00
N952   N     0.86939   0.34355   0.56310   0.00000  Uiso   1.00
C953   C     0.88772   0.38167   0.80697   0.00000  Uiso   1.00
N954   N     0.91049   0.40088   0.83040   0.00000  Uiso   1.00
C955   C     0.77894   0.61833   0.69303   0.00000  Uiso   1.00
N956   N     0.75618   0.59912   0.66960   0.00000  Uiso   1.00
C957   C     0.77970   0.38195   0.69225   0.00000  Uiso   1.00
N958   N     0.75759   0.40133   0.66818   0.00000  Uiso   1.00
C959   C     0.88697   0.61805   0.80775   0.00000  Uiso   1.00
N960   N     0.90908   0.59866   0.83182   0.00000  Uiso   1.00
C961   C     0.08665   0.83334   0.74996   0.00000  Uiso   1.00
C962   C     0.24668   0.83333   0.75004   0.00000  Uiso   1.00
C963   C     0.14874   0.91330   0.52331   0.00000  Uiso   1.00
C964   C     0.18459   0.75336   0.97669   0.00000  Uiso   1.00
C965   C     0.02128   0.79216   0.74911   0.00000  Uiso   1.00
C966   C     0.31205   0.87451   0.75089   0.00000  Uiso   1.00
C967   C     0.31205   0.79215   0.74911   0.00000  Uiso   1.00
C968   C     0.02128   0.87451   0.75089   0.00000  Uiso   1.00
C969   C     0.29085   0.83333   0.75003   0.00000  Uiso   1.00
C970   C     0.04248   0.83334   0.74997   0.00000  Uiso   1.00
C971   C     0.19291   0.69066   0.77783   0.00000  Uiso   1.00
C972   C     0.14042   0.97600   0.72217   0.00000  Uiso   1.00
C973   C     0.14050   0.69078   0.72209   0.00000  Uiso   1.00
C974   C     0.19283   0.97588   0.77791   0.00000  Uiso   1.00
C975   C     0.16669   0.83335   0.66334   0.00000  Uiso   1.00
C976   C     0.16665   0.83332   0.83666   0.00000  Uiso   1.00
C977   C     0.17505   0.79346   0.90766   0.00000  Uiso   1.00
C978   C     0.15828   0.87321   0.59234   0.00000  Uiso   1.00
C979   C     0.16650   0.83336   0.88457   0.00000  Uiso   1.00
C980   C     0.16683   0.83331   0.61543   0.00000  Uiso   1.00
C981   C     0.15784   0.87339   0.90712   0.00000  Uiso   1.00
C982   C     0.17550   0.79328   0.59288   0.00000  Uiso   1.00
C983   C     0.15757   0.87409   0.95344   0.00000  Uiso   1.00
C984   C     0.17577   0.79258   0.54656   0.00000  Uiso   1.00
C985   C     0.16657   0.83353   0.97679   0.00000  Uiso   1.00
C986   C     0.16676   0.83314   0.52321   0.00000  Uiso   1.00
C987   C     0.17540   0.79328   0.95369   0.00000  Uiso   1.00
C988   C     0.15793   0.87339   0.54632   0.00000  Uiso   1.00
C989   C     0.14851   0.91405   0.97701   0.00000  Uiso   1.00
C990   C     0.18482   0.75262   0.52299   0.00000  Uiso   1.00
H991   H     0.18172   0.76253   0.88986   0.00000  Uiso   1.00
H992   H     0.15161   0.90414   0.61014   0.00000  Uiso   1.00
H993   H     0.15102   0.90385   0.88837   0.00000  Uiso   1.00
H994   H     0.18231   0.76282   0.61163   0.00000  Uiso   1.00
H995   H     0.14159   0.94391   0.54150   0.00000  Uiso   1.00
H996   H     0.19174   0.72276   0.95850   0.00000  Uiso   1.00
H997   H     0.03740   0.76004   0.74842   0.00000  Uiso   1.00
H998   H     0.29593   0.90663   0.75158   0.00000  Uiso   1.00
H999   H     0.29592   0.76004   0.74835   0.00000  Uiso   1.00
H1000  H     0.03741   0.90663   0.75165   0.00000  Uiso   1.00
N1001  N     0.16667   0.95240   0.75000   0.00000  Uiso   1.00
N1002  N     0.16667   0.71427   0.75000   0.00000  Uiso   1.00
O1003  O     0.10559   0.87154   0.75000   0.00000  Uiso   1.00
O1004  O     0.22774   0.79513   0.75001   0.00000  Uiso   1.00
O1005  O     0.22774   0.87154   0.75001   0.00000  Uiso   1.00
O1006  O     0.10559   0.79513   0.75000   0.00000  Uiso   1.00
O1007  O     0.16666   0.87156   0.68393   0.00000  Uiso   1.00
O1008  O     0.16667   0.79511   0.81608   0.00000  Uiso   1.00
O1009  O     0.16667   0.87156   0.81608   0.00000  Uiso   1.00
O1010  O     0.16666   0.79511   0.68393   0.00000  Uiso   1.00
Zn1011 Zn    0.16667   0.88437   0.75000   0.00000  Uiso   1.00
Zn1012 Zn    0.16667   0.78229   0.75000   0.00000  Uiso   1.00
C1013  C     0.13860   0.95614   0.95474   0.00000  Uiso   1.00
N1014  N     0.13061   0.98978   0.93690   0.00000  Uiso   1.00
C1015  C     0.19473   0.71052   0.54526   0.00000  Uiso   1.00
N1016  N     0.20272   0.67688   0.56310   0.00000  Uiso   1.00
C1017  C     0.22106   0.71500   0.80697   0.00000  Uiso   1.00
N1018  N     0.24382   0.73421   0.83040   0.00000  Uiso   1.00
C1019  C     0.11228   0.95166   0.69303   0.00000  Uiso   1.00
N1020  N     0.08951   0.93245   0.66960   0.00000  Uiso   1.00
C1021  C     0.11303   0.71528   0.69225   0.00000  Uiso   1.00
N1022  N     0.09092   0.73467   0.66818   0.00000  Uiso   1.00
C1023  C     0.22030   0.95138   0.80775   0.00000  Uiso   1.00
N1024  N     0.24241   0.93200   0.83182   0.00000  Uiso   1.00
C1025  C     0.41998   0.83334   0.74996   0.00000  Uiso   1.00
C1026  C     0.58002   0.83333   0.75004   0.00000  Uiso   1.00
C1027  C     0.48207   0.91330   0.52331   0.00000  Uiso   1.00
C1028  C     0.51793   0.75336   0.97669   0.00000  Uiso   1.00
C1029  C     0.35461   0.79216   0.74911   0.00000  Uiso   1.00
C1030  C     0.64539   0.87451   0.75089   0.00000  Uiso   1.00
C1031  C     0.64538   0.79215   0.74911   0.00000  Uiso   1.00
C1032  C     0.35462   0.87451   0.75089   0.00000  Uiso   1.00
C1033  C     0.62419   0.83333   0.75003   0.00000  Uiso   1.00
C1034  C     0.37581   0.83334   0.74997   0.00000  Uiso   1.00
C1035  C     0.52625   0.69066   0.77783   0.00000  Uiso   1.00
C1036  C     0.47375   0.97600   0.72217   0.00000  Uiso   1.00
C1037  C     0.47384   0.69078   0.72209   0.00000  Uiso   1.00
C1038  C     0.52616   0.97588   0.77791   0.00000  Uiso   1.00
C1039  C     0.50002   0.83335   0.66334   0.00000  Uiso   1.00
C1040  C     0.49998   0.83332   0.83666   0.00000  Uiso   1.00
C1041  C     0.50839   0.79346   0.90766   0.00000  Uiso   1.00
C1042  C     0.49161   0.87321   0.59234   0.00000  Uiso   1.00
C1043  C     0.49984   0.83336   0.88457   0.00000  Uiso   1.00
C1044  C     0.50016   0.83331   0.61543   0.00000  Uiso   1.00
C1045  C     0.49117   0.87339   0.90712   0.00000  Uiso   1.00
C1046  C     0.50883   0.79328   0.59288   0.00000  Uiso   1.00
C1047  C     0.49090   0.87409   0.95344   0.00000  Uiso   1.00
C1048  C     0.50910   0.79258   0.54656   0.00000  Uiso   1.00
C1049  C     0.49991   0.83353   0.97679   0.00000  Uiso   1.00
C1050  C     0.50009   0.83314   0.52321   0.00000  Uiso   1.00
C1051  C     0.50874   0.79328   0.95369   0.00000  Uiso   1.00
C1052  C     0.49126   0.87339   0.54632   0.00000  Uiso   1.00
C1053  C     0.48184   0.91405   0.97701   0.00000  Uiso   1.00
C1054  C     0.51816   0.75262   0.52299   0.00000  Uiso   1.00
H1055  H     0.51505   0.76253   0.88986   0.00000  Uiso   1.00
H1056  H     0.48495   0.90414   0.61014   0.00000  Uiso   1.00
H1057  H     0.48435   0.90385   0.88837   0.00000  Uiso   1.00
H1058  H     0.51565   0.76282   0.61163   0.00000  Uiso   1.00
H1059  H     0.47492   0.94391   0.54150   0.00000  Uiso   1.00
H1060  H     0.52508   0.72276   0.95850   0.00000  Uiso   1.00
H1061  H     0.37073   0.76004   0.74842   0.00000  Uiso   1.00
H1062  H     0.62927   0.90663   0.75158   0.00000  Uiso   1.00
H1063  H     0.62926   0.76004   0.74835   0.00000  Uiso   1.00
H1064  H     0.37074   0.90663   0.75165   0.00000  Uiso   1.00
N1065  N     0.50000   0.95240   0.75000   0.00000  Uiso   1.00
N1066  N     0.50000   0.71427   0.75000   0.00000  Uiso   1.00
O1067  O     0.43892   0.87154   0.75000   0.00000  Uiso   1.00
O1068  O     0.56108   0.79513   0.75001   0.00000  Uiso   1.00
O1069  O     0.56108   0.87154   0.75001   0.00000  Uiso   1.00
O1070  O     0.43892   0.79513   0.75000   0.00000  Uiso   1.00
O1071  O     0.49999   0.87156   0.68393   0.00000  Uiso   1.00
O1072  O     0.50001   0.79511   0.81608   0.00000  Uiso   1.00
O1073  O     0.50001   0.87156   0.81608   0.00000  Uiso   1.00
O1074  O     0.49999   0.79511   0.68393   0.00000  Uiso   1.00
Zn1075 Zn    0.50000   0.88437   0.75000   0.00000  Uiso   1.00
Zn1076 Zn    0.50000   0.78229   0.75000   0.00000  Uiso   1.00
C1077  C     0.47194   0.95614   0.95474   0.00000  Uiso   1.00
N1078  N     0.46394   0.98978   0.93690   0.00000  Uiso   1.00
C1079  C     0.52806   0.71052   0.54526   0.00000  Uiso   1.00
N1080  N     0.53605   0.67688   0.56310   0.00000  Uiso   1.00
C1081  C     0.55439   0.71500   0.80697   0.00000  Uiso   1.00
N1082  N     0.57715   0.73421   0.83040   0.00000  Uiso   1.00
C1083  C     0.44561   0.95166   0.69303   0.00000  Uiso   1.00
N1084  N     0.42285   0.93245   0.66960   0.00000  Uiso   1.00
C1085  C     0.44636   0.71528   0.69225   0.00000  Uiso   1.00
N1086  N     0.42425   0.73467   0.66818   0.00000  Uiso   1.00
C1087  C     0.55364   0.95138   0.80775   0.00000  Uiso   1.00
N1088  N     0.57575   0.93200   0.83182   0.00000  Uiso   1.00
C1089  C     0.75332   0.83334   0.74996   0.00000  Uiso   1.00
C1090  C     0.91335   0.83333   0.75004   0.00000  Uiso   1.00
C1091  C     0.81540   0.91330   0.52331   0.00000  Uiso   1.00
C1092  C     0.85126   0.75336   0.97669   0.00000  Uiso   1.00
C1093  C     0.68795   0.79216   0.74911   0.00000  Uiso   1.00
C1094  C     0.97872   0.87451   0.75089   0.00000  Uiso   1.00
C1095  C     0.97872   0.79215   0.74911   0.00000  Uiso   1.00
C1096  C     0.68795   0.87451   0.75089   0.00000  Uiso   1.00
C1097  C     0.95752   0.83333   0.75003   0.00000  Uiso   1.00
C1098  C     0.70915   0.83334   0.74997   0.00000  Uiso   1.00
C1099  C     0.85958   0.69066   0.77783   0.00000  Uiso   1.00
C1100  C     0.80709   0.97600   0.72217   0.00000  Uiso   1.00
C1101  C     0.80717   0.69078   0.72209   0.00000  Uiso   1.00
C1102  C     0.85950   0.97588   0.77791   0.00000  Uiso   1.00
C1103  C     0.83335   0.83335   0.66334   0.00000  Uiso   1.00
C1104  C     0.83331   0.83332   0.83666   0.00000  Uiso   1.00
C1105  C     0.84172   0.79346   0.90766   0.00000  Uiso   1.00
C1106  C     0.82495   0.87321   0.59234   0.00000  Uiso   1.00
C1107  C     0.83317   0.83336   0.88457   0.00000  Uiso   1.00
C1108  C     0.83350   0.83331   0.61543   0.00000  Uiso   1.00
C1109  C     0.82450   0.87339   0.90712   0.00000  Uiso   1.00
C1110  C     0.84216   0.79328   0.59288   0.00000  Uiso   1.00
C1111  C     0.82423   0.87409   0.95344   0.00000  Uiso   1.00
C1112  C     0.84243   0.79258   0.54656   0.00000  Uiso   1.00
C1113  C     0.83324   0.83353   0.97679   0.00000  Uiso   1.00
C1114  C     0.83343   0.83314   0.52321   0.00000  Uiso   1.00
C1115  C     0.84207   0.79328   0.95369   0.00000  Uiso   1.00
C1116  C     0.82459   0.87339   0.54632   0.00000  Uiso   1.00
C1117  C     0.81518   0.91405   0.97701   0.00000  Uiso   1.00
C1118  C     0.85149   0.75262   0.52299   0.00000  Uiso   1.00
H1119  H     0.84839   0.76253   0.88986   0.00000  Uiso   1.00
H1120  H     0.81828   0.90414   0.61014   0.00000  Uiso   1.00
H1121  H     0.81769   0.90385   0.88837   0.00000  Uiso   1.00
H1122  H     0.84898   0.76282   0.61163   0.00000  Uiso   1.00
H1123  H     0.80825   0.94391   0.54150   0.00000  Uiso   1.00
H1124  H     0.85841   0.72276   0.95850   0.00000  Uiso   1.00
H1125  H     0.70407   0.76004   0.74842   0.00000  Uiso   1.00
H1126  H     0.96260   0.90663   0.75158   0.00000  Uiso   1.00
H1127  H     0.96259   0.76004   0.74835   0.00000  Uiso   1.00
H1128  H     0.70408   0.90663   0.75165   0.00000  Uiso   1.00
N1129  N     0.83333   0.95240   0.75000   0.00000  Uiso   1.00
N1130  N     0.83333   0.71427   0.75000   0.00000  Uiso   1.00
O1131  O     0.77226   0.87154   0.75000   0.00000  Uiso   1.00
O1132  O     0.89441   0.79513   0.75001   0.00000  Uiso   1.00
O1133  O     0.89441   0.87154   0.75001   0.00000  Uiso   1.00
O1134  O     0.77226   0.79513   0.75000   0.00000  Uiso   1.00
O1135  O     0.83333   0.87156   0.68393   0.00000  Uiso   1.00
O1136  O     0.83334   0.79511   0.81608   0.00000  Uiso   1.00
O1137  O     0.83334   0.87156   0.81608   0.00000  Uiso   1.00
O1138  O     0.83333   0.79511   0.68393   0.00000  Uiso   1.00
Zn1139 Zn    0.83333   0.88437   0.75000   0.00000  Uiso   1.00
Zn1140 Zn    0.83333   0.78229   0.75000   0.00000  Uiso   1.00
C1141  C     0.80527   0.95614   0.95474   0.00000  Uiso   1.00
N1142  N     0.79727   0.98978   0.93690   0.00000  Uiso   1.00
C1143  C     0.86139   0.71052   0.54526   0.00000  Uiso   1.00
N1144  N     0.86939   0.67688   0.56310   0.00000  Uiso   1.00
C1145  C     0.88772   0.71500   0.80697   0.00000  Uiso   1.00
N1146  N     0.91049   0.73421   0.83040   0.00000  Uiso   1.00
C1147  C     0.77894   0.95166   0.69303   0.00000  Uiso   1.00
N1148  N     0.75618   0.93245   0.66960   0.00000  Uiso   1.00
C1149  C     0.77970   0.71528   0.69225   0.00000  Uiso   1.00
N1150  N     0.75759   0.73467   0.66818   0.00000  Uiso   1.00
C1151  C     0.88697   0.95138   0.80775   0.00000  Uiso   1.00
N1152  N     0.90908   0.93200   0.83182   0.00000  Uiso   1.00
loop_
_geom_bond_atom_site_label_1
_geom_bond_atom_site_label_2
_geom_bond_distance
_geom_bond_site_symmetry_2
_ccdc_geom_bond_type
C1     O46     1.285   .     A
C1     O43     1.285   .     A
C1     C10     1.421   .     S
C2     C9      1.421   .     S
C2     O45     1.285   .     A
C2     O44     1.285   .     A
C3     H35     1.085   .     S
C3     C28     1.397   .     A
C3     C605    1.390   1_554 S
C4     H36     1.085   .     S
C4     C27     1.397   .     A
C4     C606    1.390   .     S
C5     H37     1.083   .     S
C5     C10     1.397   .     A
C5     C135    1.369   1_455 S
C6     C9      1.397   .     A
C6     H38     1.083   .     S
C6     C72     1.369   .     S
C7     C9      1.397   .     A
C7     H39     1.083   .     S
C7     C69     1.369   .     S
C8     C10     1.397   .     A
C8     H40     1.083   .     S
C8     C134    1.369   1_455 S
C11    N42     1.369   .     A
C11    C57     1.443   .     S
C11    C398    1.425   1_545 S
C12    N41     1.369   .     A
C12    C59     1.443   .     S
C12    C205    1.425   .     S
C13    C61     1.443   .     S
C13    N42     1.369   .     A
C13    C396    1.425   1_545 S
C14    N41     1.369   .     A
C14    C63     1.443   .     S
C14    C203    1.425   .     S
C15    O47     1.290   .     A
C15    C20     1.439   .     S
C15    O50     1.289   .     A
C16    O48     1.290   .     A
C16    O49     1.289   .     A
C16    C19     1.439   .     S
C17    H31     1.084   .     S
C17    C27     1.382   .     A
C17    C19     1.394   .     A
C18    C20     1.394   .     A
C18    H32     1.084   .     S
C18    C28     1.382   .     A
C19    C21     1.396   .     A
C20    C22     1.396   .     A
C21    H33     1.083   .     S
C21    C23     1.391   .     A
C22    H34     1.083   .     S
C22    C24     1.391   .     A
C23    C29     1.412   .     A
C23    C25     1.417   .     A
C24    C26     1.417   .     A
C24    C30     1.412   .     A
C25    C27     1.411   .     A
C25    C602    1.393   .     S
C26    C28     1.411   .     A
C26    C601    1.393   1_554 S
C29    C53     1.446   .     S
C29    C579    1.390   .     S
C30    C55     1.446   .     S
C30    C580    1.390   1_554 S
N41    Zn51    2.014   .     S
N42    Zn52    2.014   .     S
O43    Zn51    2.001   .     S
O44    Zn52    2.001   .     S
O45    Zn51    2.001   .     S
O46    Zn52    2.001   .     S
O47    Zn51    2.020   .     S
O48    Zn52    2.020   .     S
O49    Zn51    2.019   .     S
O50    Zn52    2.019   .     S
C53    N54     1.157   .     T
C55    N56     1.157   .     T
C57    N58     1.158   .     T
C59    N60     1.158   .     T
C61    N62     1.158   .     T
C63    N64     1.158   .     T
C65    O110    1.285   .     A
C65    O107    1.285   .     A
C65    C74     1.421   .     S
C66    C73     1.421   .     S
C66    O109    1.285   .     A
C66    O108    1.285   .     A
C67    H99     1.085   .     S
C67    C92     1.397   .     A
C67    C669    1.390   1_554 S
C68    H100    1.085   .     S
C68    C91     1.397   .     A
C68    C670    1.390   .     S
C69    H101    1.083   .     S
C69    C74     1.397   .     A
C70    C73     1.397   .     A
C70    H102    1.083   .     S
C70    C136    1.369   .     S
C71    C73     1.397   .     A
C71    H103    1.083   .     S
C71    C133    1.369   .     S
C72    C74     1.397   .     A
C72    H104    1.083   .     S
C75    N106    1.369   .     A
C75    C121    1.443   .     S
C75    C462    1.425   1_545 S
C76    N105    1.369   .     A
C76    C123    1.443   .     S
C76    C269    1.425   .     S
C77    C125    1.443   .     S
C77    N106    1.369   .     A
C77    C460    1.425   1_545 S
C78    N105    1.369   .     A
C78    C127    1.443   .     S
C78    C267    1.425   .     S
C79    O111    1.290   .     A
C79    C84     1.439   .     S
C79    O114    1.289   .     A
C80    O112    1.290   .     A
C80    O113    1.289   .     A
C80    C83     1.439   .     S
C81    H95     1.084   .     S
C81    C91     1.382   .     A
C81    C83     1.394   .     A
C82    C84     1.394   .     A
C82    H96     1.084   .     S
C82    C92     1.382   .     A
C83    C85     1.396   .     A
C84    C86     1.396   .     A
C85    H97     1.083   .     S
C85    C87     1.391   .     A
C86    H98     1.083   .     S
C86    C88     1.391   .     A
C87    C93     1.412   .     A
C87    C89     1.417   .     A
C88    C90     1.417   .     A
C88    C94     1.412   .     A
C89    C91     1.411   .     A
C89    C666    1.393   .     S
C90    C92     1.411   .     A
C90    C665    1.393   1_554 S
C93    C117    1.446   .     S
C93    C643    1.390   .     S
C94    C119    1.446   .     S
C94    C644    1.390   1_554 S
N105   Zn115   2.014   .     S
N106   Zn116   2.014   .     S
O107   Zn115   2.001   .     S
O108   Zn116   2.001   .     S
O109   Zn115   2.001   .     S
O110   Zn116   2.001   .     S
O111   Zn115   2.020   .     S
O112   Zn116   2.020   .     S
O113   Zn115   2.019   .     S
O114   Zn116   2.019   .     S
C117   N118    1.157   .     T
C119   N120    1.157   .     T
C121   N122    1.158   .     T
C123   N124    1.158   .     T
C125   N126    1.158   .     T
C127   N128    1.158   .     T
C129   O174    1.285   .     A
C129   O171    1.285   .     A
C129   C138    1.421   .     S
C130   C137    1.421   .     S
C130   O173    1.285   .     A
C130   O172    1.285   .     A
C131   H163    1.085   .     S
C131   C156    1.397   .     A
C131   C733    1.390   1_554 S
C132   H164    1.085   .     S
C132   C155    1.397   .     A
C132   C734    1.390   .     S
C133   H165    1.083   .     S
C133   C138    1.397   .     A
C134   C137    1.397   .     A
C134   H166    1.083   .     S
C134   C8      1.369   1_655 S
C135   C137    1.397   .     A
C135   H167    1.083   .     S
C135   C5      1.369   1_655 S
C136   C138    1.397   .     A
C136   H168    1.083   .     S
C139   N170    1.369   .     A
C139   C185    1.443   .     S
C139   C526    1.425   1_545 S
C140   N169    1.369   .     A
C140   C187    1.443   .     S
C140   C333    1.425   .     S
C141   C189    1.443   .     S
C141   N170    1.369   .     A
C141   C524    1.425   1_545 S
C142   N169    1.369   .     A
C142   C191    1.443   .     S
C142   C331    1.425   .     S
C143   O175    1.290   .     A
C143   C148    1.439   .     S
C143   O178    1.289   .     A
C144   O176    1.290   .     A
C144   O177    1.289   .     A
C144   C147    1.439   .     S
C145   H159    1.084   .     S
C145   C155    1.382   .     A
C145   C147    1.394   .     A
C146   C148    1.394   .     A
C146   H160    1.084   .     S
C146   C156    1.382   .     A
C147   C149    1.396   .     A
C148   C150    1.396   .     A
C149   H161    1.083   .     S
C149   C151    1.391   .     A
C150   H162    1.083   .     S
C150   C152    1.391   .     A
C151   C157    1.412   .     A
C151   C153    1.417   .     A
C152   C154    1.417   .     A
C152   C158    1.412   .     A
C153   C155    1.411   .     A
C153   C730    1.393   .     S
C154   C156    1.411   .     A
C154   C729    1.393   1_554 S
C157   C181    1.446   .     S
C157   C707    1.390   .     S
C158   C183    1.446   .     S
C158   C708    1.390   1_554 S
N169   Zn179   2.014   .     S
N170   Zn180   2.014   .     S
O171   Zn179   2.001   .     S
O172   Zn180   2.001   .     S
O173   Zn179   2.001   .     S
O174   Zn180   2.001   .     S
O175   Zn179   2.020   .     S
O176   Zn180   2.020   .     S
O177   Zn179   2.019   .     S
O178   Zn180   2.019   .     S
C181   N182    1.157   .     T
C183   N184    1.157   .     T
C185   N186    1.158   .     T
C187   N188    1.158   .     T
C189   N190    1.158   .     T
C191   N192    1.158   .     T
C193   O238    1.285   .     A
C193   O235    1.285   .     A
C193   C202    1.421   .     S
C194   C201    1.421   .     S
C194   O237    1.285   .     A
C194   O236    1.285   .     A
C195   H227    1.085   .     S
C195   C220    1.397   .     A
C195   C797    1.390   1_554 S
C196   H228    1.085   .     S
C196   C219    1.397   .     A
C196   C798    1.390   .     S
C197   H229    1.083   .     S
C197   C202    1.397   .     A
C197   C327    1.369   1_455 S
C198   C201    1.397   .     A
C198   H230    1.083   .     S
C198   C264    1.369   .     S
C199   C201    1.397   .     A
C199   H231    1.083   .     S
C199   C261    1.369   .     S
C200   C202    1.397   .     A
C200   H232    1.083   .     S
C200   C326    1.369   1_455 S
C203   N234    1.369   .     A
C203   C249    1.443   .     S
C204   N233    1.369   .     A
C204   C251    1.443   .     S
C204   C397    1.425   .     S
C205   C253    1.443   .     S
C205   N234    1.369   .     A
C206   N233    1.369   .     A
C206   C255    1.443   .     S
C206   C395    1.425   .     S
C207   O239    1.290   .     A
C207   C212    1.439   .     S
C207   O242    1.289   .     A
C208   O240    1.290   .     A
C208   O241    1.289   .     A
C208   C211    1.439   .     S
C209   H223    1.084   .     S
C209   C219    1.382   .     A
C209   C211    1.394   .     A
C210   C212    1.394   .     A
C210   H224    1.084   .     S
C210   C220    1.382   .     A
C211   C213    1.396   .     A
C212   C214    1.396   .     A
C213   H225    1.083   .     S
C213   C215    1.391   .     A
C214   H226    1.083   .     S
C214   C216    1.391   .     A
C215   C221    1.412   .     A
C215   C217    1.417   .     A
C216   C218    1.417   .     A
C216   C222    1.412   .     A
C217   C219    1.411   .     A
C217   C794    1.393   .     S
C218   C220    1.411   .     A
C218   C793    1.393   1_554 S
C221   C245    1.446   .     S
C221   C771    1.390   .     S
C222   C247    1.446   .     S
C222   C772    1.390   1_554 S
N233   Zn243   2.014   .     S
N234   Zn244   2.014   .     S
O235   Zn243   2.001   .     S
O236   Zn244   2.001   .     S
O237   Zn243   2.001   .     S
O238   Zn244   2.001   .     S
O239   Zn243   2.020   .     S
O240   Zn244   2.020   .     S
O241   Zn243   2.019   .     S
O242   Zn244   2.019   .     S
C245   N246    1.157   .     T
C247   N248    1.157   .     T
C249   N250    1.158   .     T
C251   N252    1.158   .     T
C253   N254    1.158   .     T
C255   N256    1.158   .     T
C257   O302    1.285   .     A
C257   O299    1.285   .     A
C257   C266    1.421   .     S
C258   C265    1.421   .     S
C258   O301    1.285   .     A
C258   O300    1.285   .     A
C259   H291    1.085   .     S
C259   C284    1.397   .     A
C259   C861    1.390   1_554 S
C260   H292    1.085   .     S
C260   C283    1.397   .     A
C260   C862    1.390   .     S
C261   H293    1.083   .     S
C261   C266    1.397   .     A
C262   C265    1.397   .     A
C262   H294    1.083   .     S
C262   C328    1.369   .     S
C263   C265    1.397   .     A
C263   H295    1.083   .     S
C263   C325    1.369   .     S
C264   C266    1.397   .     A
C264   H296    1.083   .     S
C267   N298    1.369   .     A
C267   C313    1.443   .     S
C268   N297    1.369   .     A
C268   C315    1.443   .     S
C268   C461    1.425   .     S
C269   C317    1.443   .     S
C269   N298    1.369   .     A
C270   N297    1.369   .     A
C270   C319    1.443   .     S
C270   C459    1.425   .     S
C271   O303    1.290   .     A
C271   C276    1.439   .     S
C271   O306    1.289   .     A
C272   O304    1.290   .     A
C272   O305    1.289   .     A
C272   C275    1.439   .     S
C273   H287    1.084   .     S
C273   C283    1.382   .     A
C273   C275    1.394   .     A
C274   C276    1.394   .     A
C274   H288    1.084   .     S
C274   C284    1.382   .     A
C275   C277    1.396   .     A
C276   C278    1.396   .     A
C277   H289    1.083   .     S
C277   C279    1.391   .     A
C278   H290    1.083   .     S
C278   C280    1.391   .     A
C279   C285    1.412   .     A
C279   C281    1.417   .     A
C280   C282    1.417   .     A
C280   C286    1.412   .     A
C281   C283    1.411   .     A
C281   C858    1.393   .     S
C282   C284    1.411   .     A
C282   C857    1.393   1_554 S
C285   C309    1.446   .     S
C285   C835    1.390   .     S
C286   C311    1.446   .     S
C286   C836    1.390   1_554 S
N297   Zn307   2.014   .     S
N298   Zn308   2.014   .     S
O299   Zn307   2.001   .     S
O300   Zn308   2.001   .     S
O301   Zn307   2.001   .     S
O302   Zn308   2.001   .     S
O303   Zn307   2.020   .     S
O304   Zn308   2.020   .     S
O305   Zn307   2.019   .     S
O306   Zn308   2.019   .     S
C309   N310    1.157   .     T
C311   N312    1.157   .     T
C313   N314    1.158   .     T
C315   N316    1.158   .     T
C317   N318    1.158   .     T
C319   N320    1.158   .     T
C321   O366    1.285   .     A
C321   O363    1.285   .     A
C321   C330    1.421   .     S
C322   C329    1.421   .     S
C322   O365    1.285   .     A
C322   O364    1.285   .     A
C323   H355    1.085   .     S
C323   C348    1.397   .     A
C323   C925    1.390   1_554 S
C324   H356    1.085   .     S
C324   C347    1.397   .     A
C324   C926    1.390   .     S
C325   H357    1.083   .     S
C325   C330    1.397   .     A
C326   C329    1.397   .     A
C326   H358    1.083   .     S
C326   C200    1.369   1_655 S
C327   C329    1.397   .     A
C327   H359    1.083   .     S
C327   C197    1.369   1_655 S
C328   C330    1.397   .     A
C328   H360    1.083   .     S
C331   N362    1.369   .     A
C331   C377    1.443   .     S
C332   N361    1.369   .     A
C332   C379    1.443   .     S
C332   C525    1.425   .     S
C333   C381    1.443   .     S
C333   N362    1.369   .     A
C334   N361    1.369   .     A
C334   C383    1.443   .     S
C334   C523    1.425   .     S
C335   O367    1.290   .     A
C335   C340    1.439   .     S
C335   O370    1.289   .     A
C336   O368    1.290   .     A
C336   O369    1.289   .     A
C336   C339    1.439   .     S
C337   H351    1.084   .     S
C337   C347    1.382   .     A
C337   C339    1.394   .     A
C338   C340    1.394   .     A
C338   H352    1.084   .     S
C338   C348    1.382   .     A
C339   C341    1.396   .     A
C340   C342    1.396   .     A
C341   H353    1.083   .     S
C341   C343    1.391   .     A
C342   H354    1.083   .     S
C342   C344    1.391   .     A
C343   C349    1.412   .     A
C343   C345    1.417   .     A
C344   C346    1.417   .     A
C344   C350    1.412   .     A
C345   C347    1.411   .     A
C345   C922    1.393   .     S
C346   C348    1.411   .     A
C346   C921    1.393   1_554 S
C349   C373    1.446   .     S
C349   C899    1.390   .     S
C350   C375    1.446   .     S
C350   C900    1.390   1_554 S
N361   Zn371   2.014   .     S
N362   Zn372   2.014   .     S
O363   Zn371   2.001   .     S
O364   Zn372   2.001   .     S
O365   Zn371   2.001   .     S
O366   Zn372   2.001   .     S
O367   Zn371   2.020   .     S
O368   Zn372   2.020   .     S
O369   Zn371   2.019   .     S
O370   Zn372   2.019   .     S
C373   N374    1.157   .     T
C375   N376    1.157   .     T
C377   N378    1.158   .     T
C379   N380    1.158   .     T
C381   N382    1.158   .     T
C383   N384    1.158   .     T
C385   O430    1.285   .     A
C385   O427    1.285   .     A
C385   C394    1.421   .     S
C386   C393    1.421   .     S
C386   O429    1.285   .     A
C386   O428    1.285   .     A
C387   H419    1.085   .     S
C387   C412    1.397   .     A
C387   C989    1.390   1_554 S
C388   H420    1.085   .     S
C388   C411    1.397   .     A
C388   C990    1.390   .     S
C389   H421    1.083   .     S
C389   C394    1.397   .     A
C389   C519    1.369   1_455 S
C390   C393    1.397   .     A
C390   H422    1.083   .     S
C390   C456    1.369   .     S
C391   C393    1.397   .     A
C391   H423    1.083   .     S
C391   C453    1.369   .     S
C392   C394    1.397   .     A
C392   H424    1.083   .     S
C392   C518    1.369   1_455 S
C395   N426    1.369   .     A
C395   C441    1.443   .     S
C396   N425    1.369   .     A
C396   C443    1.443   .     S
C396   C13     1.425   1_565 S
C397   C445    1.443   .     S
C397   N426    1.369   .     A
C398   N425    1.369   .     A
C398   C447    1.443   .     S
C398   C11     1.425   1_565 S
C399   O431    1.290   .     A
C399   C404    1.439   .     S
C399   O434    1.289   .     A
C400   O432    1.290   .     A
C400   O433    1.289   .     A
C400   C403    1.439   .     S
C401   H415    1.084   .     S
C401   C411    1.382   .     A
C401   C403    1.394   .     A
C402   C404    1.394   .     A
C402   H416    1.084   .     S
C402   C412    1.382   .     A
C403   C405    1.396   .     A
C404   C406    1.396   .     A
C405   H417    1.083   .     S
C405   C407    1.391   .     A
C406   H418    1.083   .     S
C406   C408    1.391   .     A
C407   C413    1.412   .     A
C407   C409    1.417   .     A
C408   C410    1.417   .     A
C408   C414    1.412   .     A
C409   C411    1.411   .     A
C409   C986    1.393   .     S
C410   C412    1.411   .     A
C410   C985    1.393   1_554 S
C413   C437    1.446   .     S
C413   C963    1.390   .     S
C414   C439    1.446   .     S
C414   C964    1.390   1_554 S
N425   Zn435   2.014   .     S
N426   Zn436   2.014   .     S
O427   Zn435   2.001   .     S
O428   Zn436   2.001   .     S
O429   Zn435   2.001   .     S
O430   Zn436   2.001   .     S
O431   Zn435   2.020   .     S
O432   Zn436   2.020   .     S
O433   Zn435   2.019   .     S
O434   Zn436   2.019   .     S
C437   N438    1.157   .     T
C439   N440    1.157   .     T
C441   N442    1.158   .     T
C443   N444    1.158   .     T
C445   N446    1.158   .     T
C447   N448    1.158   .     T
C449   O494    1.285   .     A
C449   O491    1.285   .     A
C449   C458    1.421   .     S
C450   C457    1.421   .     S
C450   O493    1.285   .     A
C450   O492    1.285   .     A
C451   H483    1.085   .     S
C451   C476    1.397   .     A
C451   C1053   1.390   1_554 S
C452   H484    1.085   .     S
C452   C475    1.397   .     A
C452   C1054   1.390   .     S
C453   H485    1.083   .     S
C453   C458    1.397   .     A
C454   C457    1.397   .     A
C454   H486    1.083   .     S
C454   C520    1.369   .     S
C455   C457    1.397   .     A
C455   H487    1.083   .     S
C455   C517    1.369   .     S
C456   C458    1.397   .     A
C456   H488    1.083   .     S
C459   N490    1.369   .     A
C459   C505    1.443   .     S
C460   N489    1.369   .     A
C460   C507    1.443   .     S
C460   C77     1.425   1_565 S
C461   C509    1.443   .     S
C461   N490    1.369   .     A
C462   N489    1.369   .     A
C462   C511    1.443   .     S
C462   C75     1.425   1_565 S
C463   O495    1.290   .     A
C463   C468    1.439   .     S
C463   O498    1.289   .     A
C464   O496    1.290   .     A
C464   O497    1.289   .     A
C464   C467    1.439   .     S
C465   H479    1.084   .     S
C465   C475    1.382   .     A
C465   C467    1.394   .     A
C466   C468    1.394   .     A
C466   H480    1.084   .     S
C466   C476    1.382   .     A
C467   C469    1.396   .     A
C468   C470    1.396   .     A
C469   H481    1.083   .     S
C469   C471    1.391   .     A
C470   H482    1.083   .     S
C470   C472    1.391   .     A
C471   C477    1.412   .     A
C471   C473    1.417   .     A
C472   C474    1.417   .     A
C472   C478    1.412   .     A
C473   C475    1.411   .     A
C473   C1050   1.393   .     S
C474   C476    1.411   .     A
C474   C1049   1.393   1_554 S
C477   C501    1.446   .     S
C477   C1027   1.390   .     S
C478   C503    1.446   .     S
C478   C1028   1.390   1_554 S
N489   Zn499   2.014   .     S
N490   Zn500   2.014   .     S
O491   Zn499   2.001   .     S
O492   Zn500   2.001   .     S
O493   Zn499   2.001   .     S
O494   Zn500   2.001   .     S
O495   Zn499   2.020   .     S
O496   Zn500   2.020   .     S
O497   Zn499   2.019   .     S
O498   Zn500   2.019   .     S
C501   N502    1.157   .     T
C503   N504    1.157   .     T
C505   N506    1.158   .     T
C507   N508    1.158   .     T
C509   N510    1.158   .     T
C511   N512    1.158   .     T
C513   O558    1.285   .     A
C513   O555    1.285   .     A
C513   C522    1.421   .     S
C514   C521    1.421   .     S
C514   O557    1.285   .     A
C514   O556    1.285   .     A
C515   H547    1.085   .     S
C515   C540    1.397   .     A
C515   C1117   1.390   1_554 S
C516   H548    1.085   .     S
C516   C539    1.397   .     A
C516   C1118   1.390   .     S
C517   H549    1.083   .     S
C517   C522    1.397   .     A
C518   C521    1.397   .     A
C518   H550    1.083   .     S
C518   C392    1.369   1_655 S
C519   C521    1.397   .     A
C519   H551    1.083   .     S
C519   C389    1.369   1_655 S
C520   C522    1.397   .     A
C520   H552    1.083   .     S
C523   N554    1.369   .     A
C523   C569    1.443   .     S
C524   N553    1.369   .     A
C524   C571    1.443   .     S
C524   C141    1.425   1_565 S
C525   C573    1.443   .     S
C525   N554    1.369   .     A
C526   N553    1.369   .     A
C526   C575    1.443   .     S
C526   C139    1.425   1_565 S
C527   O559    1.290   .     A
C527   C532    1.439   .     S
C527   O562    1.289   .     A
C528   O560    1.290   .     A
C528   O561    1.289   .     A
C528   C531    1.439   .     S
C529   H543    1.084   .     S
C529   C539    1.382   .     A
C529   C531    1.394   .     A
C530   C532    1.394   .     A
C530   H544    1.084   .     S
C530   C540    1.382   .     A
C531   C533    1.396   .     A
C532   C534    1.396   .     A
C533   H545    1.083   .     S
C533   C535    1.391   .     A
C534   H546    1.083   .     S
C534   C536    1.391   .     A
C535   C541    1.412   .     A
C535   C537    1.417   .     A
C536   C538    1.417   .     A
C536   C542    1.412   .     A
C537   C539    1.411   .     A
C537   C1114   1.393   .     S
C538   C540    1.411   .     A
C538   C1113   1.393   1_554 S
C541   C565    1.446   .     S
C541   C1091   1.390   .     S
C542   C567    1.446   .     S
C542   C1092   1.390   1_554 S
N553   Zn563   2.014   .     S
N554   Zn564   2.014   .     S
O555   Zn563   2.001   .     S
O556   Zn564   2.001   .     S
O557   Zn563   2.001   .     S
O558   Zn564   2.001   .     S
O559   Zn563   2.020   .     S
O560   Zn564   2.020   .     S
O561   Zn563   2.019   .     S
O562   Zn564   2.019   .     S
C565   N566    1.157   .     T
C567   N568    1.157   .     T
C569   N570    1.158   .     T
C571   N572    1.158   .     T
C573   N574    1.158   .     T
C575   N576    1.158   .     T
C577   O622    1.285   .     A
C577   O619    1.285   .     A
C577   C586    1.421   .     S
C578   C585    1.421   .     S
C578   O621    1.285   .     A
C578   O620    1.285   .     A
C579   H611    1.085   .     S
C579   C604    1.397   .     A
C580   H612    1.085   .     S
C580   C603    1.397   .     A
C580   C30     1.390   1_556 S
C581   H613    1.083   .     S
C581   C586    1.397   .     A
C581   C711    1.369   1_455 S
C582   C585    1.397   .     A
C582   H614    1.083   .     S
C582   C648    1.369   .     S
C583   C585    1.397   .     A
C583   H615    1.083   .     S
C583   C645    1.369   .     S
C584   C586    1.397   .     A
C584   H616    1.083   .     S
C584   C710    1.369   1_455 S
C587   N618    1.369   .     A
C587   C633    1.443   .     S
C587   C974    1.425   1_545 S
C588   N617    1.369   .     A
C588   C635    1.443   .     S
C588   C781    1.425   .     S
C589   C637    1.443   .     S
C589   N618    1.369   .     A
C589   C972    1.425   1_545 S
C590   N617    1.369   .     A
C590   C639    1.443   .     S
C590   C779    1.425   .     S
C591   O623    1.290   .     A
C591   C596    1.439   .     S
C591   O626    1.289   .     A
C592   O624    1.290   .     A
C592   O625    1.289   .     A
C592   C595    1.439   .     S
C593   H607    1.084   .     S
C593   C603    1.382   .     A
C593   C595    1.394   .     A
C594   C596    1.394   .     A
C594   H608    1.084   .     S
C594   C604    1.382   .     A
C595   C597    1.396   .     A
C596   C598    1.396   .     A
C597   H609    1.083   .     S
C597   C599    1.391   .     A
C598   H610    1.083   .     S
C598   C600    1.391   .     A
C599   C605    1.412   .     A
C599   C601    1.417   .     A
C600   C602    1.417   .     A
C600   C606    1.412   .     A
C601   C603    1.411   .     A
C601   C26     1.393   1_556 S
C602   C604    1.411   .     A
C605   C629    1.446   .     S
C605   C3      1.390   1_556 S
C606   C631    1.446   .     S
N617   Zn627   2.014   .     S
N618   Zn628   2.014   .     S
O619   Zn627   2.001   .     S
O620   Zn628   2.001   .     S
O621   Zn627   2.001   .     S
O622   Zn628   2.001   .     S
O623   Zn627   2.020   .     S
O624   Zn628   2.020   .     S
O625   Zn627   2.019   .     S
O626   Zn628   2.019   .     S
C629   N630    1.157   .     T
C631   N632    1.157   .     T
C633   N634    1.158   .     T
C635   N636    1.158   .     T
C637   N638    1.158   .     T
C639   N640    1.158   .     T
C641   O686    1.285   .     A
C641   O683    1.285   .     A
C641   C650    1.421   .     S
C642   C649    1.421   .     S
C642   O685    1.285   .     A
C642   O684    1.285   .     A
C643   H675    1.085   .     S
C643   C668    1.397   .     A
C644   H676    1.085   .     S
C644   C667    1.397   .     A
C644   C94     1.390   1_556 S
C645   H677    1.083   .     S
C645   C650    1.397   .     A
C646   C649    1.397   .     A
C646   H678    1.083   .     S
C646   C712    1.369   .     S
C647   C649    1.397   .     A
C647   H679    1.083   .     S
C647   C709    1.369   .     S
C648   C650    1.397   .     A
C648   H680    1.083   .     S
C651   N682    1.369   .     A
C651   C697    1.443   .     S
C651   C1038   1.425   1_545 S
C652   N681    1.369   .     A
C652   C699    1.443   .     S
C652   C845    1.425   .     S
C653   C701    1.443   .     S
C653   N682    1.369   .     A
C653   C1036   1.425   1_545 S
C654   N681    1.369   .     A
C654   C703    1.443   .     S
C654   C843    1.425   .     S
C655   O687    1.290   .     A
C655   C660    1.439   .     S
C655   O690    1.289   .     A
C656   O688    1.290   .     A
C656   O689    1.289   .     A
C656   C659    1.439   .     S
C657   H671    1.084   .     S
C657   C667    1.382   .     A
C657   C659    1.394   .     A
C658   C660    1.394   .     A
C658   H672    1.084   .     S
C658   C668    1.382   .     A
C659   C661    1.396   .     A
C660   C662    1.396   .     A
C661   H673    1.083   .     S
C661   C663    1.391   .     A
C662   H674    1.083   .     S
C662   C664    1.391   .     A
C663   C669    1.412   .     A
C663   C665    1.417   .     A
C664   C666    1.417   .     A
C664   C670    1.412   .     A
C665   C667    1.411   .     A
C665   C90     1.393   1_556 S
C666   C668    1.411   .     A
C669   C693    1.446   .     S
C669   C67     1.390   1_556 S
C670   C695    1.446   .     S
N681   Zn691   2.014   .     S
N682   Zn692   2.014   .     S
O683   Zn691   2.001   .     S
O684   Zn692   2.001   .     S
O685   Zn691   2.001   .     S
O686   Zn692   2.001   .     S
O687   Zn691   2.020   .     S
O688   Zn692   2.020   .     S
O689   Zn691   2.019   .     S
O690   Zn692   2.019   .     S
C693   N694    1.157   .     T
C695   N696    1.157   .     T
C697   N698    1.158   .     T
C699   N700    1.158   .     T
C701   N702    1.158   .     T
C703   N704    1.158   .     T
C705   O750    1.285   .     A
C705   O747    1.285   .     A
C705   C714    1.421   .     S
C706   C713    1.421   .     S
C706   O749    1.285   .     A
C706   O748    1.285   .     A
C707   H739    1.085   .     S
C707   C732    1.397   .     A
C708   H740    1.085   .     S
C708   C731    1.397   .     A
C708   C158    1.390   1_556 S
C709   H741    1.083   .     S
C709   C714    1.397   .     A
C710   C713    1.397   .     A
C710   H742    1.083   .     S
C710   C584    1.369   1_655 S
C711   C713    1.397   .     A
C711   H743    1.083   .     S
C711   C581    1.369   1_655 S
C712   C714    1.397   .     A
C712   H744    1.083   .     S
C715   N746    1.369   .     A
C715   C761    1.443   .     S
C715   C1102   1.425   1_545 S
C716   N745    1.369   .     A
C716   C763    1.443   .     S
C716   C909    1.425   .     S
C717   C765    1.443   .     S
C717   N746    1.369   .     A
C717   C1100   1.425   1_545 S
C718   N745    1.369   .     A
C718   C767    1.443   .     S
C718   C907    1.425   .     S
C719   O751    1.290   .     A
C719   C724    1.439   .     S
C719   O754    1.289   .     A
C720   O752    1.290   .     A
C720   O753    1.289   .     A
C720   C723    1.439   .     S
C721   H735    1.084   .     S
C721   C731    1.382   .     A
C721   C723    1.394   .     A
C722   C724    1.394   .     A
C722   H736    1.084   .     S
C722   C732    1.382   .     A
C723   C725    1.396   .     A
C724   C726    1.396   .     A
C725   H737    1.083   .     S
C725   C727    1.391   .     A
C726   H738    1.083   .     S
C726   C728    1.391   .     A
C727   C733    1.412   .     A
C727   C729    1.417   .     A
C728   C730    1.417   .     A
C728   C734    1.412   .     A
C729   C731    1.411   .     A
C729   C154    1.393   1_556 S
C730   C732    1.411   .     A
C733   C757    1.446   .     S
C733   C131    1.390   1_556 S
C734   C759    1.446   .     S
N745   Zn755   2.014   .     S
N746   Zn756   2.014   .     S
O747   Zn755   2.001   .     S
O748   Zn756   2.001   .     S
O749   Zn755   2.001   .     S
O750   Zn756   2.001   .     S
O751   Zn755   2.020   .     S
O752   Zn756   2.020   .     S
O753   Zn755   2.019   .     S
O754   Zn756   2.019   .     S
C757   N758    1.157   .     T
C759   N760    1.157   .     T
C761   N762    1.158   .     T
C763   N764    1.158   .     T
C765   N766    1.158   .     T
C767   N768    1.158   .     T
C769   O814    1.285   .     A
C769   O811    1.285   .     A
C769   C778    1.421   .     S
C770   C777    1.421   .     S
C770   O813    1.285   .     A
C770   O812    1.285   .     A
C771   H803    1.085   .     S
C771   C796    1.397   .     A
C772   H804    1.085   .     S
C772   C795    1.397   .     A
C772   C222    1.390   1_556 S
C773   H805    1.083   .     S
C773   C778    1.397   .     A
C773   C903    1.369   1_455 S
C774   C777    1.397   .     A
C774   H806    1.083   .     S
C774   C840    1.369   .     S
C775   C777    1.397   .     A
C775   H807    1.083   .     S
C775   C837    1.369   .     S
C776   C778    1.397   .     A
C776   H808    1.083   .     S
C776   C902    1.369   1_455 S
C779   N810    1.369   .     A
C779   C825    1.443   .     S
C780   N809    1.369   .     A
C780   C827    1.443   .     S
C780   C973    1.425   .     S
C781   C829    1.443   .     S
C781   N810    1.369   .     A
C782   N809    1.369   .     A
C782   C831    1.443   .     S
C782   C971    1.425   .     S
C783   O815    1.290   .     A
C783   C788    1.439   .     S
C783   O818    1.289   .     A
C784   O816    1.290   .     A
C784   O817    1.289   .     A
C784   C787    1.439   .     S
C785   H799    1.084   .     S
C785   C795    1.382   .     A
C785   C787    1.394   .     A
C786   C788    1.394   .     A
C786   H800    1.084   .     S
C786   C796    1.382   .     A
C787   C789    1.396   .     A
C788   C790    1.396   .     A
C789   H801    1.083   .     S
C789   C791    1.391   .     A
C790   H802    1.083   .     S
C790   C792    1.391   .     A
C791   C797    1.412   .     A
C791   C793    1.417   .     A
C792   C794    1.417   .     A
C792   C798    1.412   .     A
C793   C795    1.411   .     A
C793   C218    1.393   1_556 S
C794   C796    1.411   .     A
C797   C821    1.446   .     S
C797   C195    1.390   1_556 S
C798   C823    1.446   .     S
N809   Zn819   2.014   .     S
N810   Zn820   2.014   .     S
O811   Zn819   2.001   .     S
O812   Zn820   2.001   .     S
O813   Zn819   2.001   .     S
O814   Zn820   2.001   .     S
O815   Zn819   2.020   .     S
O816   Zn820   2.020   .     S
O817   Zn819   2.019   .     S
O818   Zn820   2.019   .     S
C821   N822    1.157   .     T
C823   N824    1.157   .     T
C825   N826    1.158   .     T
C827   N828    1.158   .     T
C829   N830    1.158   .     T
C831   N832    1.158   .     T
C833   O878    1.285   .     A
C833   O875    1.285   .     A
C833   C842    1.421   .     S
C834   C841    1.421   .     S
C834   O877    1.285   .     A
C834   O876    1.285   .     A
C835   H867    1.085   .     S
C835   C860    1.397   .     A
C836   H868    1.085   .     S
C836   C859    1.397   .     A
C836   C286    1.390   1_556 S
C837   H869    1.083   .     S
C837   C842    1.397   .     A
C838   C841    1.397   .     A
C838   H870    1.083   .     S
C838   C904    1.369   .     S
C839   C841    1.397   .     A
C839   H871    1.083   .     S
C839   C901    1.369   .     S
C840   C842    1.397   .     A
C840   H872    1.083   .     S
C843   N874    1.369   .     A
C843   C889    1.443   .     S
C844   N873    1.369   .     A
C844   C891    1.443   .     S
C844   C1037   1.425   .     S
C845   C893    1.443   .     S
C845   N874    1.369   .     A
C846   N873    1.369   .     A
C846   C895    1.443   .     S
C846   C1035   1.425   .     S
C847   O879    1.290   .     A
C847   C852    1.439   .     S
C847   O882    1.289   .     A
C848   O880    1.290   .     A
C848   O881    1.289   .     A
C848   C851    1.439   .     S
C849   H863    1.084   .     S
C849   C859    1.382   .     A
C849   C851    1.394   .     A
C850   C852    1.394   .     A
C850   H864    1.084   .     S
C850   C860    1.382   .     A
C851   C853    1.396   .     A
C852   C854    1.396   .     A
C853   H865    1.083   .     S
C853   C855    1.391   .     A
C854   H866    1.083   .     S
C854   C856    1.391   .     A
C855   C861    1.412   .     A
C855   C857    1.417   .     A
C856   C858    1.417   .     A
C856   C862    1.412   .     A
C857   C859    1.411   .     A
C857   C282    1.393   1_556 S
C858   C860    1.411   .     A
C861   C885    1.446   .     S
C861   C259    1.390   1_556 S
C862   C887    1.446   .     S
N873   Zn883   2.014   .     S
N874   Zn884   2.014   .     S
O875   Zn883   2.001   .     S
O876   Zn884   2.001   .     S
O877   Zn883   2.001   .     S
O878   Zn884   2.001   .     S
O879   Zn883   2.020   .     S
O880   Zn884   2.020   .     S
O881   Zn883   2.019   .     S
O882   Zn884   2.019   .     S
C885   N886    1.157   .     T
C887   N888    1.157   .     T
C889   N890    1.158   .     T
C891   N892    1.158   .     T
C893   N894    1.158   .     T
C895   N896    1.158   .     T
C897   O942    1.285   .     A
C897   O939    1.285   .     A
C897   C906    1.421   .     S
C898   C905    1.421   .     S
C898   O941    1.285   .     A
C898   O940    1.285   .     A
C899   H931    1.085   .     S
C899   C924    1.397   .     A
C900   H932    1.085   .     S
C900   C923    1.397   .     A
C900   C350    1.390   1_556 S
C901   H933    1.083   .     S
C901   C906    1.397   .     A
C902   C905    1.397   .     A
C902   H934    1.083   .     S
C902   C776    1.369   1_655 S
C903   C905    1.397   .     A
C903   H935    1.083   .     S
C903   C773    1.369   1_655 S
C904   C906    1.397   .     A
C904   H936    1.083   .     S
C907   N938    1.369   .     A
C907   C953    1.443   .     S
C908   N937    1.369   .     A
C908   C955    1.443   .     S
C908   C1101   1.425   .     S
C909   C957    1.443   .     S
C909   N938    1.369   .     A
C910   N937    1.369   .     A
C910   C959    1.443   .     S
C910   C1099   1.425   .     S
C911   O943    1.290   .     A
C911   C916    1.439   .     S
C911   O946    1.289   .     A
C912   O944    1.290   .     A
C912   O945    1.289   .     A
C912   C915    1.439   .     S
C913   H927    1.084   .     S
C913   C923    1.382   .     A
C913   C915    1.394   .     A
C914   C916    1.394   .     A
C914   H928    1.084   .     S
C914   C924    1.382   .     A
C915   C917    1.396   .     A
C916   C918    1.396   .     A
C917   H929    1.083   .     S
C917   C919    1.391   .     A
C918   H930    1.083   .     S
C918   C920    1.391   .     A
C919   C925    1.412   .     A
C919   C921    1.417   .     A
C920   C922    1.417   .     A
C920   C926    1.412   .     A
C921   C923    1.411   .     A
C921   C346    1.393   1_556 S
C922   C924    1.411   .     A
C925   C949    1.446   .     S
C925   C323    1.390   1_556 S
C926   C951    1.446   .     S
N937   Zn947   2.014   .     S
N938   Zn948   2.014   .     S
O939   Zn947   2.001   .     S
O940   Zn948   2.001   .     S
O941   Zn947   2.001   .     S
O942   Zn948   2.001   .     S
O943   Zn947   2.020   .     S
O944   Zn948   2.020   .     S
O945   Zn947   2.019   .     S
O946   Zn948   2.019   .     S
C949   N950    1.157   .     T
C951   N952    1.157   .     T
C953   N954    1.158   .     T
C955   N956    1.158   .     T
C957   N958    1.158   .     T
C959   N960    1.158   .     T
C961   O1006   1.285   .     A
C961   O1003   1.285   .     A
C961   C970    1.421   .     S
C962   C969    1.421   .     S
C962   O1005   1.285   .     A
C962   O1004   1.285   .     A
C963   H995    1.085   .     S
C963   C988    1.397   .     A
C964   H996    1.085   .     S
C964   C987    1.397   .     A
C964   C414    1.390   1_556 S
C965   H997    1.083   .     S
C965   C970    1.397   .     A
C965   C1095   1.369   1_455 S
C966   C969    1.397   .     A
C966   H998    1.083   .     S
C966   C1032   1.369   .     S
C967   C969    1.397   .     A
C967   H999    1.083   .     S
C967   C1029   1.369   .     S
C968   C970    1.397   .     A
C968   H1000   1.083   .     S
C968   C1094   1.369   1_455 S
C971   N1002   1.369   .     A
C971   C1017   1.443   .     S
C972   N1001   1.369   .     A
C972   C1019   1.443   .     S
C972   C589    1.425   1_565 S
C973   C1021   1.443   .     S
C973   N1002   1.369   .     A
C974   N1001   1.369   .     A
C974   C1023   1.443   .     S
C974   C587    1.425   1_565 S
C975   O1007   1.290   .     A
C975   C980    1.439   .     S
C975   O1010   1.289   .     A
C976   O1008   1.290   .     A
C976   O1009   1.289   .     A
C976   C979    1.439   .     S
C977   H991    1.084   .     S
C977   C987    1.382   .     A
C977   C979    1.394   .     A
C978   C980    1.394   .     A
C978   H992    1.084   .     S
C978   C988    1.382   .     A
C979   C981    1.396   .     A
C980   C982    1.396   .     A
C981   H993    1.083   .     S
C981   C983    1.391   .     A
C982   H994    1.083   .     S
C982   C984    1.391   .     A
C983   C989    1.412   .     A
C983   C985    1.417   .     A
C984   C986    1.417   .     A
C984   C990    1.412   .     A
C985   C987    1.411   .     A
C985   C410    1.393   1_556 S
C986   C988    1.411   .     A
C989   C1013   1.446   .     S
C989   C387    1.390   1_556 S
C990   C1015   1.446   .     S
N1001  Zn1011  2.014   .     S
N1002  Zn1012  2.014   .     S
O1003  Zn1011  2.001   .     S
O1004  Zn1012  2.001   .     S
O1005  Zn1011  2.001   .     S
O1006  Zn1012  2.001   .     S
O1007  Zn1011  2.020   .     S
O1008  Zn1012  2.020   .     S
O1009  Zn1011  2.019   .     S
O1010  Zn1012  2.019   .     S
C1013  N1014   1.157   .     T
C1015  N1016   1.157   .     T
C1017  N1018   1.158   .     T
C1019  N1020   1.158   .     T
C1021  N1022   1.158   .     T
C1023  N1024   1.158   .     T
C1025  O1070   1.285   .     A
C1025  O1067   1.285   .     A
C1025  C1034   1.421   .     S
C1026  C1033   1.421   .     S
C1026  O1069   1.285   .     A
C1026  O1068   1.285   .     A
C1027  H1059   1.085   .     S
C1027  C1052   1.397   .     A
C1028  H1060   1.085   .     S
C1028  C1051   1.397   .     A
C1028  C478    1.390   1_556 S
C1029  H1061   1.083   .     S
C1029  C1034   1.397   .     A
C1030  C1033   1.397   .     A
C1030  H1062   1.083   .     S
C1030  C1096   1.369   .     S
C1031  C1033   1.397   .     A
C1031  H1063   1.083   .     S
C1031  C1093   1.369   .     S
C1032  C1034   1.397   .     A
C1032  H1064   1.083   .     S
C1035  N1066   1.369   .     A
C1035  C1081   1.443   .     S
C1036  N1065   1.369   .     A
C1036  C1083   1.443   .     S
C1036  C653    1.425   1_565 S
C1037  C1085   1.443   .     S
C1037  N1066   1.369   .     A
C1038  N1065   1.369   .     A
C1038  C1087   1.443   .     S
C1038  C651    1.425   1_565 S
C1039  O1071   1.290   .     A
C1039  C1044   1.439   .     S
C1039  O1074   1.289   .     A
C1040  O1072   1.290   .     A
C1040  O1073   1.289   .     A
C1040  C1043   1.439   .     S
C1041  H1055   1.084   .     S
C1041  C1051   1.382   .     A
C1041  C1043   1.394   .     A
C1042  C1044   1.394   .     A
C1042  H1056   1.084   .     S
C1042  C1052   1.382   .     A
C1043  C1045   1.396   .     A
C1044  C1046   1.396   .     A
C1045  H1057   1.083   .     S
C1045  C1047   1.391   .     A
C1046  H1058   1.083   .     S
C1046  C1048   1.391   .     A
C1047  C1053   1.412   .     A
C1047  C1049   1.417   .     A
C1048  C1050   1.417   .     A
C1048  C1054   1.412   .     A
C1049  C1051   1.411   .     A
C1049  C474    1.393   1_556 S
C1050  C1052   1.411   .     A
C1053  C1077   1.446   .     S
C1053  C451    1.390   1_556 S
C1054  C1079   1.446   .     S
N1065  Zn1075  2.014   .     S
N1066  Zn1076  2.014   .     S
O1067  Zn1075  2.001   .     S
O1068  Zn1076  2.001   .     S
O1069  Zn1075  2.001   .     S
O1070  Zn1076  2.001   .     S
O1071  Zn1075  2.020   .     S
O1072  Zn1076  2.020   .     S
O1073  Zn1075  2.019   .     S
O1074  Zn1076  2.019   .     S
C1077  N1078   1.157   .     T
C1079  N1080   1.157   .     T
C1081  N1082   1.158   .     T
C1083  N1084   1.158   .     T
C1085  N1086   1.158   .     T
C1087  N1088   1.158   .     T
C1089  O1134   1.285   .     A
C1089  O1131   1.285   .     A
C1089  C1098   1.421   .     S
C1090  C1097   1.421   .     S
C1090  O1133   1.285   .     A
C1090  O1132   1.285   .     A
C1091  H1123   1.085   .     S
C1091  C1116   1.397   .     A
C1092  H1124   1.085   .     S
C1092  C1115   1.397   .     A
C1092  C542    1.390   1_556 S
C1093  H1125   1.083   .     S
C1093  C1098   1.397   .     A
C1094  C1097   1.397   .     A
C1094  H1126   1.083   .     S
C1094  C968    1.369   1_655 S
C1095  C1097   1.397   .     A
C1095  H1127   1.083   .     S
C1095  C965    1.369   1_655 S
C1096  C1098   1.397   .     A
C1096  H1128   1.083   .     S
C1099  N1130   1.369   .     A
C1099  C1145   1.443   .     S
C1100  N1129   1.369   .     A
C1100  C1147   1.443   .     S
C1100  C717    1.425   1_565 S
C1101  C1149   1.443   .     S
C1101  N1130   1.369   .     A
C1102  N1129   1.369   .     A
C1102  C1151   1.443   .     S
C1102  C715    1.425   1_565 S
C1103  O1135   1.290   .     A
C1103  C1108   1.439   .     S
C1103  O1138   1.289   .     A
C1104  O1136   1.290   .     A
C1104  O1137   1.289   .     A
C1104  C1107   1.439   .     S
C1105  H1119   1.084   .     S
C1105  C1115   1.382   .     A
C1105  C1107   1.394   .     A
C1106  C1108   1.394   .     A
C1106  H1120   1.084   .     S
C1106  C1116   1.382   .     A
C1107  C1109   1.396   .     A
C1108  C1110   1.396   .     A
C1109  H1121   1.083   .     S
C1109  C1111   1.391   .     A
C1110  H1122   1.083   .     S
C1110  C1112   1.391   .     A
C1111  C1117   1.412   .     A
C1111  C1113   1.417   .     A
C1112  C1114   1.417   .     A
C1112  C1118   1.412   .     A
C1113  C1115   1.411   .     A
C1113  C538    1.393   1_556 S
C1114  C1116   1.411   .     A
C1117  C1141   1.446   .     S
C1117  C515    1.390   1_556 S
C1118  C1143   1.446   .     S
N1129  Zn1139  2.014   .     S
N1130  Zn1140  2.014   .     S
O1131  Zn1139  2.001   .     S
O1132  Zn1140  2.001   .     S
O1133  Zn1139  2.001   .     S
O1134  Zn1140  2.001   .     S
O1135  Zn1139  2.020   .     S
O1136  Zn1140  2.020   .     S
O1137  Zn1139  2.019   .     S
O1138  Zn1140  2.019   .     S
C1141  N1142   1.157   .     T
C1143  N1144   1.157   .     T
C1145  N1146   1.158   .     T
C1147  N1148   1.158   .     T
C1149  N1150   1.158   .     T
C1151  N1152   1.158   .     T
