data_str_m3_o1_o17_pcu_sym.196
_audit_creation_date              2020-01-03
_audit_creation_method            'Materials Studio'
_symmetry_space_group_name_H-M    'P1'
_symmetry_Int_Tables_number       1
_symmetry_cell_setting            triclinic
loop_
_symmetry_equiv_pos_as_xyz
  x,y,z
_cell_length_a                    32.3974
_cell_length_b                    29.4410
_cell_length_c                    29.8483
_cell_angle_alpha                 89.8300
_cell_angle_beta                  90.9540
_cell_angle_gamma                 90.2845
loop_
_atom_site_label
_atom_site_type_symbol
_atom_site_fract_x
_atom_site_fract_y
_atom_site_fract_z
_atom_site_U_iso_or_equiv
_atom_site_adp_type
_atom_site_occupancy
C1     C     0.08650   0.16640   0.25109   0.00000  Uiso   1.00
C2     C     0.24669   0.16667   0.25039   0.00000  Uiso   1.00
C3     C     0.09268   0.15069   0.01849   0.00000  Uiso   1.00
C4     C     0.24390   0.16797   0.48179   0.00000  Uiso   1.00
C5     C     0.01987   0.12382   0.25290   0.00000  Uiso   1.00
C6     C     0.31290   0.20646   0.24229   0.00000  Uiso   1.00
C7     C     0.31187   0.12597   0.26402   0.00000  Uiso   1.00
C8     C     0.02065   0.20742   0.25487   0.00000  Uiso   1.00
C9     C     0.29075   0.16640   0.25219   0.00000  Uiso   1.00
C10    C     0.04218   0.16570   0.25314   0.00000  Uiso   1.00
C11    C     0.16861   0.02387   0.28934   0.00000  Uiso   1.00
C12    C     0.16471   0.30945   0.21066   0.00000  Uiso   1.00
C13    C     0.16478   0.02406   0.21066   0.00000  Uiso   1.00
C14    C     0.16867   0.30926   0.28934   0.00000  Uiso   1.00
C15    C     0.16406   0.16675   0.16349   0.00000  Uiso   1.00
C16    C     0.17049   0.16677   0.33641   0.00000  Uiso   1.00
C17    C     0.20792   0.17673   0.40935   0.00000  Uiso   1.00
C18    C     0.12647   0.16806   0.09055   0.00000  Uiso   1.00
C19    C     0.17163   0.16679   0.38427   0.00000  Uiso   1.00
C20    C     0.16360   0.16675   0.11568   0.00000  Uiso   1.00
C21    C     0.13490   0.15481   0.40473   0.00000  Uiso   1.00
C22    C     0.20173   0.16303   0.09549   0.00000  Uiso   1.00
C23    C     0.13249   0.15407   0.45098   0.00000  Uiso   1.00
C24    C     0.20425   0.16251   0.04923   0.00000  Uiso   1.00
C25    C     0.16912   0.16018   0.47666   0.00000  Uiso   1.00
C26    C     0.16730   0.16016   0.02346   0.00000  Uiso   1.00
C27    C     0.20737   0.16817   0.45569   0.00000  Uiso   1.00
C28    C     0.12841   0.15949   0.04438   0.00000  Uiso   1.00
C29    C     0.09450   0.14740   0.47220   0.00000  Uiso   1.00
C30    C     0.24264   0.16431   0.02808   0.00000  Uiso   1.00
H31    H     0.10783   0.14816   0.38391   0.00000  Uiso   1.00
H32    H     0.22934   0.16231   0.11644   0.00000  Uiso   1.00
H33    H     0.06306   0.14550   0.03388   0.00000  Uiso   1.00
H34    H     0.27390   0.17002   0.46664   0.00000  Uiso   1.00
H35    H     0.17019   0.04178   0.32087   0.00000  Uiso   1.00
H36    H     0.16305   0.29152   0.17914   0.00000  Uiso   1.00
H37    H     0.16319   0.04213   0.17912   0.00000  Uiso   1.00
H38    H     0.17030   0.29120   0.32087   0.00000  Uiso   1.00
N39    N     0.16667   0.28573   0.25000   0.00000  Uiso   1.00
N40    N     0.16667   0.04760   0.25000   0.00000  Uiso   1.00
O41    O     0.10559   0.20487   0.24999   0.00000  Uiso   1.00
O42    O     0.22774   0.12846   0.25000   0.00000  Uiso   1.00
O43    O     0.22774   0.20487   0.25000   0.00000  Uiso   1.00
O44    O     0.10559   0.12846   0.24999   0.00000  Uiso   1.00
O45    O     0.16666   0.20489   0.18392   0.00000  Uiso   1.00
O46    O     0.16667   0.12844   0.31607   0.00000  Uiso   1.00
O47    O     0.16667   0.20489   0.31607   0.00000  Uiso   1.00
O48    O     0.16666   0.12844   0.18392   0.00000  Uiso   1.00
Zn49   Zn    0.16667   0.21771   0.25000   0.00000  Uiso   1.00
Zn50   Zn    0.16667   0.11563   0.25000   0.00000  Uiso   1.00
S51    S     0.25187   0.20462   0.38568   0.00000  Uiso   1.00
O52    O     0.26675   0.24078   0.41765   0.00000  Uiso   1.00
O53    O     0.28598   0.17093   0.37974   0.00000  Uiso   1.00
O54    O     0.24162   0.23001   0.33646   0.00000  Uiso   1.00
H55    H     0.26771   0.24534   0.32827   0.00000  Uiso   1.00
S56    S     0.07919   0.18570   0.11493   0.00000  Uiso   1.00
O57    O     0.05454   0.21308   0.08145   0.00000  Uiso   1.00
O58    O     0.05459   0.14460   0.12818   0.00000  Uiso   1.00
O59    O     0.08761   0.21860   0.15993   0.00000  Uiso   1.00
H60    H     0.05988   0.22900   0.16858   0.00000  Uiso   1.00
Br61   Br    0.04345   0.13623   0.44008   0.00000  Uiso   1.00
Br62   Br    0.29453   0.16432   0.06034   0.00000  Uiso   1.00
S63    S     0.04024   0.07008   0.23564   0.00000  Uiso   1.00
O64    O     0.06504   0.04971   0.27362   0.00000  Uiso   1.00
O65    O     0.00611   0.03785   0.22255   0.00000  Uiso   1.00
O66    O     0.07058   0.07646   0.19085   0.00000  Uiso   1.00
H67    H     0.07819   0.04519   0.18220   0.00000  Uiso   1.00
S68    S     0.29268   0.25211   0.20910   0.00000  Uiso   1.00
O69    O     0.26972   0.28450   0.23835   0.00000  Uiso   1.00
O70    O     0.32698   0.27729   0.18642   0.00000  Uiso   1.00
O71    O     0.26036   0.23142   0.16939   0.00000  Uiso   1.00
H72    H     0.24641   0.25839   0.15639   0.00000  Uiso   1.00
S73    S     0.28946   0.08077   0.29617   0.00000  Uiso   1.00
O74    O     0.26811   0.04751   0.26540   0.00000  Uiso   1.00
O75    O     0.32245   0.05655   0.32283   0.00000  Uiso   1.00
O76    O     0.25459   0.10100   0.33195   0.00000  Uiso   1.00
H77    H     0.24438   0.07402   0.34837   0.00000  Uiso   1.00
S78    S     0.04097   0.25835   0.27935   0.00000  Uiso   1.00
O79    O     0.06437   0.28492   0.24489   0.00000  Uiso   1.00
O80    O     0.00662   0.28719   0.29667   0.00000  Uiso   1.00
O81    O     0.07279   0.24525   0.32257   0.00000  Uiso   1.00
H82    H     0.08541   0.27453   0.33184   0.00000  Uiso   1.00
C83    C     0.41984   0.16640   0.25109   0.00000  Uiso   1.00
C84    C     0.58002   0.16667   0.25039   0.00000  Uiso   1.00
C85    C     0.42601   0.15069   0.01849   0.00000  Uiso   1.00
C86    C     0.57723   0.16797   0.48179   0.00000  Uiso   1.00
C87    C     0.35320   0.12382   0.25290   0.00000  Uiso   1.00
C88    C     0.64623   0.20646   0.24229   0.00000  Uiso   1.00
C89    C     0.64520   0.12597   0.26402   0.00000  Uiso   1.00
C90    C     0.35398   0.20742   0.25487   0.00000  Uiso   1.00
C91    C     0.62409   0.16640   0.25219   0.00000  Uiso   1.00
C92    C     0.37551   0.16570   0.25314   0.00000  Uiso   1.00
C93    C     0.50195   0.02387   0.28934   0.00000  Uiso   1.00
C94    C     0.49804   0.30945   0.21066   0.00000  Uiso   1.00
C95    C     0.49812   0.02406   0.21066   0.00000  Uiso   1.00
C96    C     0.50200   0.30926   0.28934   0.00000  Uiso   1.00
C97    C     0.49739   0.16675   0.16349   0.00000  Uiso   1.00
C98    C     0.50382   0.16677   0.33641   0.00000  Uiso   1.00
C99    C     0.54126   0.17673   0.40935   0.00000  Uiso   1.00
C100   C     0.45980   0.16806   0.09055   0.00000  Uiso   1.00
C101   C     0.50497   0.16679   0.38427   0.00000  Uiso   1.00
C102   C     0.49694   0.16675   0.11568   0.00000  Uiso   1.00
C103   C     0.46823   0.15481   0.40473   0.00000  Uiso   1.00
C104   C     0.53507   0.16303   0.09549   0.00000  Uiso   1.00
C105   C     0.46583   0.15407   0.45098   0.00000  Uiso   1.00
C106   C     0.53758   0.16251   0.04923   0.00000  Uiso   1.00
C107   C     0.50245   0.16018   0.47666   0.00000  Uiso   1.00
C108   C     0.50064   0.16016   0.02346   0.00000  Uiso   1.00
C109   C     0.54070   0.16817   0.45569   0.00000  Uiso   1.00
C110   C     0.46174   0.15949   0.04438   0.00000  Uiso   1.00
C111   C     0.42783   0.14740   0.47220   0.00000  Uiso   1.00
C112   C     0.57597   0.16431   0.02808   0.00000  Uiso   1.00
H113   H     0.44116   0.14816   0.38391   0.00000  Uiso   1.00
H114   H     0.56267   0.16231   0.11644   0.00000  Uiso   1.00
H115   H     0.39640   0.14550   0.03388   0.00000  Uiso   1.00
H116   H     0.60724   0.17002   0.46664   0.00000  Uiso   1.00
H117   H     0.50353   0.04178   0.32087   0.00000  Uiso   1.00
H118   H     0.49638   0.29152   0.17914   0.00000  Uiso   1.00
H119   H     0.49652   0.04213   0.17912   0.00000  Uiso   1.00
H120   H     0.50364   0.29120   0.32087   0.00000  Uiso   1.00
N121   N     0.50000   0.28573   0.25000   0.00000  Uiso   1.00
N122   N     0.50000   0.04760   0.25000   0.00000  Uiso   1.00
O123   O     0.43892   0.20487   0.24999   0.00000  Uiso   1.00
O124   O     0.56108   0.12846   0.25000   0.00000  Uiso   1.00
O125   O     0.56108   0.20487   0.25000   0.00000  Uiso   1.00
O126   O     0.43892   0.12846   0.24999   0.00000  Uiso   1.00
O127   O     0.49999   0.20489   0.18392   0.00000  Uiso   1.00
O128   O     0.50001   0.12844   0.31607   0.00000  Uiso   1.00
O129   O     0.50001   0.20489   0.31607   0.00000  Uiso   1.00
O130   O     0.49999   0.12844   0.18392   0.00000  Uiso   1.00
Zn131  Zn    0.50000   0.21771   0.25000   0.00000  Uiso   1.00
Zn132  Zn    0.50000   0.11563   0.25000   0.00000  Uiso   1.00
S133   S     0.58520   0.20462   0.38568   0.00000  Uiso   1.00
O134   O     0.60008   0.24078   0.41765   0.00000  Uiso   1.00
O135   O     0.61931   0.17093   0.37974   0.00000  Uiso   1.00
O136   O     0.57495   0.23001   0.33646   0.00000  Uiso   1.00
H137   H     0.60105   0.24534   0.32827   0.00000  Uiso   1.00
S138   S     0.41252   0.18570   0.11493   0.00000  Uiso   1.00
O139   O     0.38787   0.21308   0.08145   0.00000  Uiso   1.00
O140   O     0.38793   0.14460   0.12818   0.00000  Uiso   1.00
O141   O     0.42094   0.21860   0.15993   0.00000  Uiso   1.00
H142   H     0.39321   0.22900   0.16858   0.00000  Uiso   1.00
Br143  Br    0.37679   0.13623   0.44008   0.00000  Uiso   1.00
Br144  Br    0.62786   0.16432   0.06034   0.00000  Uiso   1.00
S145   S     0.37358   0.07008   0.23564   0.00000  Uiso   1.00
O146   O     0.39837   0.04971   0.27362   0.00000  Uiso   1.00
O147   O     0.33945   0.03785   0.22255   0.00000  Uiso   1.00
O148   O     0.40391   0.07646   0.19085   0.00000  Uiso   1.00
H149   H     0.41152   0.04519   0.18220   0.00000  Uiso   1.00
S150   S     0.62602   0.25211   0.20910   0.00000  Uiso   1.00
O151   O     0.60305   0.28450   0.23835   0.00000  Uiso   1.00
O152   O     0.66031   0.27729   0.18642   0.00000  Uiso   1.00
O153   O     0.59369   0.23142   0.16939   0.00000  Uiso   1.00
H154   H     0.57975   0.25839   0.15639   0.00000  Uiso   1.00
S155   S     0.62280   0.08077   0.29617   0.00000  Uiso   1.00
O156   O     0.60145   0.04751   0.26540   0.00000  Uiso   1.00
O157   O     0.65578   0.05655   0.32283   0.00000  Uiso   1.00
O158   O     0.58792   0.10100   0.33195   0.00000  Uiso   1.00
H159   H     0.57771   0.07402   0.34837   0.00000  Uiso   1.00
S160   S     0.37431   0.25835   0.27935   0.00000  Uiso   1.00
O161   O     0.39771   0.28492   0.24489   0.00000  Uiso   1.00
O162   O     0.33995   0.28719   0.29667   0.00000  Uiso   1.00
O163   O     0.40612   0.24525   0.32257   0.00000  Uiso   1.00
H164   H     0.41875   0.27453   0.33184   0.00000  Uiso   1.00
C165   C     0.75317   0.16640   0.25109   0.00000  Uiso   1.00
C166   C     0.91336   0.16667   0.25039   0.00000  Uiso   1.00
C167   C     0.75935   0.15069   0.01849   0.00000  Uiso   1.00
C168   C     0.91056   0.16797   0.48179   0.00000  Uiso   1.00
C169   C     0.68654   0.12382   0.25290   0.00000  Uiso   1.00
C170   C     0.97957   0.20646   0.24229   0.00000  Uiso   1.00
C171   C     0.97854   0.12597   0.26402   0.00000  Uiso   1.00
C172   C     0.68731   0.20742   0.25487   0.00000  Uiso   1.00
C173   C     0.95742   0.16640   0.25219   0.00000  Uiso   1.00
C174   C     0.70885   0.16570   0.25314   0.00000  Uiso   1.00
C175   C     0.83528   0.02387   0.28934   0.00000  Uiso   1.00
C176   C     0.83137   0.30945   0.21066   0.00000  Uiso   1.00
C177   C     0.83145   0.02406   0.21066   0.00000  Uiso   1.00
C178   C     0.83534   0.30926   0.28934   0.00000  Uiso   1.00
C179   C     0.83072   0.16675   0.16349   0.00000  Uiso   1.00
C180   C     0.83715   0.16677   0.33641   0.00000  Uiso   1.00
C181   C     0.87459   0.17673   0.40935   0.00000  Uiso   1.00
C182   C     0.79314   0.16806   0.09055   0.00000  Uiso   1.00
C183   C     0.83830   0.16679   0.38427   0.00000  Uiso   1.00
C184   C     0.83027   0.16675   0.11568   0.00000  Uiso   1.00
C185   C     0.80156   0.15481   0.40473   0.00000  Uiso   1.00
C186   C     0.86840   0.16303   0.09549   0.00000  Uiso   1.00
C187   C     0.79916   0.15407   0.45098   0.00000  Uiso   1.00
C188   C     0.87091   0.16251   0.04923   0.00000  Uiso   1.00
C189   C     0.83578   0.16018   0.47666   0.00000  Uiso   1.00
C190   C     0.83397   0.16016   0.02346   0.00000  Uiso   1.00
C191   C     0.87404   0.16817   0.45569   0.00000  Uiso   1.00
C192   C     0.79508   0.15949   0.04438   0.00000  Uiso   1.00
C193   C     0.76116   0.14740   0.47220   0.00000  Uiso   1.00
C194   C     0.90930   0.16431   0.02808   0.00000  Uiso   1.00
H195   H     0.77449   0.14816   0.38391   0.00000  Uiso   1.00
H196   H     0.89600   0.16231   0.11644   0.00000  Uiso   1.00
H197   H     0.72973   0.14550   0.03388   0.00000  Uiso   1.00
H198   H     0.94057   0.17002   0.46664   0.00000  Uiso   1.00
H199   H     0.83686   0.04178   0.32087   0.00000  Uiso   1.00
H200   H     0.82972   0.29152   0.17914   0.00000  Uiso   1.00
H201   H     0.82986   0.04213   0.17912   0.00000  Uiso   1.00
H202   H     0.83697   0.29120   0.32087   0.00000  Uiso   1.00
N203   N     0.83333   0.28573   0.25000   0.00000  Uiso   1.00
N204   N     0.83333   0.04760   0.25000   0.00000  Uiso   1.00
O205   O     0.77226   0.20487   0.24999   0.00000  Uiso   1.00
O206   O     0.89441   0.12846   0.25000   0.00000  Uiso   1.00
O207   O     0.89441   0.20487   0.25000   0.00000  Uiso   1.00
O208   O     0.77226   0.12846   0.24999   0.00000  Uiso   1.00
O209   O     0.83333   0.20489   0.18392   0.00000  Uiso   1.00
O210   O     0.83334   0.12844   0.31607   0.00000  Uiso   1.00
O211   O     0.83334   0.20489   0.31607   0.00000  Uiso   1.00
O212   O     0.83333   0.12844   0.18392   0.00000  Uiso   1.00
Zn213  Zn    0.83333   0.21771   0.25000   0.00000  Uiso   1.00
Zn214  Zn    0.83333   0.11563   0.25000   0.00000  Uiso   1.00
S215   S     0.91854   0.20462   0.38568   0.00000  Uiso   1.00
O216   O     0.93341   0.24078   0.41765   0.00000  Uiso   1.00
O217   O     0.95264   0.17093   0.37974   0.00000  Uiso   1.00
O218   O     0.90828   0.23001   0.33646   0.00000  Uiso   1.00
H219   H     0.93438   0.24534   0.32827   0.00000  Uiso   1.00
S220   S     0.74586   0.18570   0.11493   0.00000  Uiso   1.00
O221   O     0.72121   0.21308   0.08145   0.00000  Uiso   1.00
O222   O     0.72126   0.14460   0.12818   0.00000  Uiso   1.00
O223   O     0.75428   0.21860   0.15993   0.00000  Uiso   1.00
H224   H     0.72655   0.22900   0.16858   0.00000  Uiso   1.00
Br225  Br    0.71012   0.13623   0.44008   0.00000  Uiso   1.00
Br226  Br    0.96119   0.16432   0.06034   0.00000  Uiso   1.00
S227   S     0.70691   0.07008   0.23564   0.00000  Uiso   1.00
O228   O     0.73171   0.04971   0.27362   0.00000  Uiso   1.00
O229   O     0.67278   0.03785   0.22255   0.00000  Uiso   1.00
O230   O     0.73724   0.07646   0.19085   0.00000  Uiso   1.00
H231   H     0.74485   0.04519   0.18220   0.00000  Uiso   1.00
S232   S     0.95935   0.25211   0.20910   0.00000  Uiso   1.00
O233   O     0.93638   0.28450   0.23835   0.00000  Uiso   1.00
O234   O     0.99365   0.27729   0.18642   0.00000  Uiso   1.00
O235   O     0.92702   0.23142   0.16939   0.00000  Uiso   1.00
H236   H     0.91308   0.25839   0.15639   0.00000  Uiso   1.00
S237   S     0.95613   0.08077   0.29617   0.00000  Uiso   1.00
O238   O     0.93478   0.04751   0.26540   0.00000  Uiso   1.00
O239   O     0.98911   0.05655   0.32283   0.00000  Uiso   1.00
O240   O     0.92125   0.10100   0.33195   0.00000  Uiso   1.00
H241   H     0.91105   0.07402   0.34837   0.00000  Uiso   1.00
S242   S     0.70764   0.25835   0.27935   0.00000  Uiso   1.00
O243   O     0.73104   0.28492   0.24489   0.00000  Uiso   1.00
O244   O     0.67328   0.28719   0.29667   0.00000  Uiso   1.00
O245   O     0.73946   0.24525   0.32257   0.00000  Uiso   1.00
H246   H     0.75208   0.27453   0.33184   0.00000  Uiso   1.00
C247   C     0.08650   0.49973   0.25109   0.00000  Uiso   1.00
C248   C     0.24669   0.50000   0.25039   0.00000  Uiso   1.00
C249   C     0.09268   0.48402   0.01849   0.00000  Uiso   1.00
C250   C     0.24390   0.50131   0.48179   0.00000  Uiso   1.00
C251   C     0.01987   0.45715   0.25290   0.00000  Uiso   1.00
C252   C     0.31290   0.53979   0.24229   0.00000  Uiso   1.00
C253   C     0.31187   0.45931   0.26402   0.00000  Uiso   1.00
C254   C     0.02065   0.54075   0.25487   0.00000  Uiso   1.00
C255   C     0.29075   0.49973   0.25219   0.00000  Uiso   1.00
C256   C     0.04218   0.49903   0.25314   0.00000  Uiso   1.00
C257   C     0.16861   0.35720   0.28934   0.00000  Uiso   1.00
C258   C     0.16471   0.64279   0.21066   0.00000  Uiso   1.00
C259   C     0.16478   0.35739   0.21066   0.00000  Uiso   1.00
C260   C     0.16867   0.64260   0.28934   0.00000  Uiso   1.00
C261   C     0.16406   0.50009   0.16349   0.00000  Uiso   1.00
C262   C     0.17049   0.50010   0.33641   0.00000  Uiso   1.00
C263   C     0.20792   0.51006   0.40935   0.00000  Uiso   1.00
C264   C     0.12647   0.50139   0.09055   0.00000  Uiso   1.00
C265   C     0.17163   0.50012   0.38427   0.00000  Uiso   1.00
C266   C     0.16360   0.50009   0.11568   0.00000  Uiso   1.00
C267   C     0.13490   0.48815   0.40473   0.00000  Uiso   1.00
C268   C     0.20173   0.49636   0.09549   0.00000  Uiso   1.00
C269   C     0.13249   0.48740   0.45098   0.00000  Uiso   1.00
C270   C     0.20425   0.49584   0.04923   0.00000  Uiso   1.00
C271   C     0.16912   0.49351   0.47666   0.00000  Uiso   1.00
C272   C     0.16730   0.49349   0.02346   0.00000  Uiso   1.00
C273   C     0.20737   0.50150   0.45569   0.00000  Uiso   1.00
C274   C     0.12841   0.49283   0.04438   0.00000  Uiso   1.00
C275   C     0.09450   0.48074   0.47220   0.00000  Uiso   1.00
C276   C     0.24264   0.49764   0.02808   0.00000  Uiso   1.00
H277   H     0.10783   0.48149   0.38391   0.00000  Uiso   1.00
H278   H     0.22934   0.49564   0.11644   0.00000  Uiso   1.00
H279   H     0.06306   0.47883   0.03388   0.00000  Uiso   1.00
H280   H     0.27390   0.50335   0.46664   0.00000  Uiso   1.00
H281   H     0.17019   0.37512   0.32087   0.00000  Uiso   1.00
H282   H     0.16305   0.62486   0.17914   0.00000  Uiso   1.00
H283   H     0.16319   0.37546   0.17912   0.00000  Uiso   1.00
H284   H     0.17030   0.62453   0.32087   0.00000  Uiso   1.00
N285   N     0.16667   0.61907   0.25000   0.00000  Uiso   1.00
N286   N     0.16667   0.38093   0.25000   0.00000  Uiso   1.00
O287   O     0.10559   0.53821   0.24999   0.00000  Uiso   1.00
O288   O     0.22774   0.46179   0.25000   0.00000  Uiso   1.00
O289   O     0.22774   0.53821   0.25000   0.00000  Uiso   1.00
O290   O     0.10559   0.46179   0.24999   0.00000  Uiso   1.00
O291   O     0.16666   0.53823   0.18392   0.00000  Uiso   1.00
O292   O     0.16667   0.46177   0.31607   0.00000  Uiso   1.00
O293   O     0.16667   0.53823   0.31607   0.00000  Uiso   1.00
O294   O     0.16666   0.46177   0.18392   0.00000  Uiso   1.00
Zn295  Zn    0.16667   0.55104   0.25000   0.00000  Uiso   1.00
Zn296  Zn    0.16667   0.44896   0.25000   0.00000  Uiso   1.00
S297   S     0.25187   0.53796   0.38568   0.00000  Uiso   1.00
O298   O     0.26675   0.57412   0.41765   0.00000  Uiso   1.00
O299   O     0.28598   0.50426   0.37974   0.00000  Uiso   1.00
O300   O     0.24162   0.56334   0.33646   0.00000  Uiso   1.00
H301   H     0.26771   0.57867   0.32827   0.00000  Uiso   1.00
S302   S     0.07919   0.51903   0.11493   0.00000  Uiso   1.00
O303   O     0.05454   0.54641   0.08145   0.00000  Uiso   1.00
O304   O     0.05459   0.47793   0.12818   0.00000  Uiso   1.00
O305   O     0.08761   0.55193   0.15993   0.00000  Uiso   1.00
H306   H     0.05988   0.56233   0.16858   0.00000  Uiso   1.00
Br307  Br    0.04345   0.46956   0.44008   0.00000  Uiso   1.00
Br308  Br    0.29453   0.49765   0.06034   0.00000  Uiso   1.00
S309   S     0.04024   0.40342   0.23564   0.00000  Uiso   1.00
O310   O     0.06504   0.38304   0.27362   0.00000  Uiso   1.00
O311   O     0.00611   0.37118   0.22255   0.00000  Uiso   1.00
O312   O     0.07058   0.40979   0.19085   0.00000  Uiso   1.00
H313   H     0.07819   0.37852   0.18220   0.00000  Uiso   1.00
S314   S     0.29268   0.58544   0.20910   0.00000  Uiso   1.00
O315   O     0.26972   0.61784   0.23835   0.00000  Uiso   1.00
O316   O     0.32698   0.61063   0.18642   0.00000  Uiso   1.00
O317   O     0.26036   0.56475   0.16939   0.00000  Uiso   1.00
H318   H     0.24641   0.59172   0.15639   0.00000  Uiso   1.00
S319   S     0.28946   0.41410   0.29617   0.00000  Uiso   1.00
O320   O     0.26811   0.38084   0.26540   0.00000  Uiso   1.00
O321   O     0.32245   0.38988   0.32283   0.00000  Uiso   1.00
O322   O     0.25459   0.43434   0.33195   0.00000  Uiso   1.00
H323   H     0.24438   0.40736   0.34837   0.00000  Uiso   1.00
S324   S     0.04097   0.59169   0.27935   0.00000  Uiso   1.00
O325   O     0.06437   0.61826   0.24489   0.00000  Uiso   1.00
O326   O     0.00662   0.62052   0.29667   0.00000  Uiso   1.00
O327   O     0.07279   0.57858   0.32257   0.00000  Uiso   1.00
H328   H     0.08541   0.60786   0.33184   0.00000  Uiso   1.00
C329   C     0.41984   0.49973   0.25109   0.00000  Uiso   1.00
C330   C     0.58002   0.50000   0.25039   0.00000  Uiso   1.00
C331   C     0.42601   0.48402   0.01849   0.00000  Uiso   1.00
C332   C     0.57723   0.50131   0.48179   0.00000  Uiso   1.00
C333   C     0.35320   0.45715   0.25290   0.00000  Uiso   1.00
C334   C     0.64623   0.53979   0.24229   0.00000  Uiso   1.00
C335   C     0.64520   0.45931   0.26402   0.00000  Uiso   1.00
C336   C     0.35398   0.54075   0.25487   0.00000  Uiso   1.00
C337   C     0.62409   0.49973   0.25219   0.00000  Uiso   1.00
C338   C     0.37551   0.49903   0.25314   0.00000  Uiso   1.00
C339   C     0.50195   0.35720   0.28934   0.00000  Uiso   1.00
C340   C     0.49804   0.64279   0.21066   0.00000  Uiso   1.00
C341   C     0.49812   0.35739   0.21066   0.00000  Uiso   1.00
C342   C     0.50200   0.64260   0.28934   0.00000  Uiso   1.00
C343   C     0.49739   0.50009   0.16349   0.00000  Uiso   1.00
C344   C     0.50382   0.50010   0.33641   0.00000  Uiso   1.00
C345   C     0.54126   0.51006   0.40935   0.00000  Uiso   1.00
C346   C     0.45980   0.50139   0.09055   0.00000  Uiso   1.00
C347   C     0.50497   0.50012   0.38427   0.00000  Uiso   1.00
C348   C     0.49694   0.50009   0.11568   0.00000  Uiso   1.00
C349   C     0.46823   0.48815   0.40473   0.00000  Uiso   1.00
C350   C     0.53507   0.49636   0.09549   0.00000  Uiso   1.00
C351   C     0.46583   0.48740   0.45098   0.00000  Uiso   1.00
C352   C     0.53758   0.49584   0.04923   0.00000  Uiso   1.00
C353   C     0.50245   0.49351   0.47666   0.00000  Uiso   1.00
C354   C     0.50064   0.49349   0.02346   0.00000  Uiso   1.00
C355   C     0.54070   0.50150   0.45569   0.00000  Uiso   1.00
C356   C     0.46174   0.49283   0.04438   0.00000  Uiso   1.00
C357   C     0.42783   0.48074   0.47220   0.00000  Uiso   1.00
C358   C     0.57597   0.49764   0.02808   0.00000  Uiso   1.00
H359   H     0.44116   0.48149   0.38391   0.00000  Uiso   1.00
H360   H     0.56267   0.49564   0.11644   0.00000  Uiso   1.00
H361   H     0.39640   0.47883   0.03388   0.00000  Uiso   1.00
H362   H     0.60724   0.50335   0.46664   0.00000  Uiso   1.00
H363   H     0.50353   0.37512   0.32087   0.00000  Uiso   1.00
H364   H     0.49638   0.62486   0.17914   0.00000  Uiso   1.00
H365   H     0.49652   0.37546   0.17912   0.00000  Uiso   1.00
H366   H     0.50364   0.62453   0.32087   0.00000  Uiso   1.00
N367   N     0.50000   0.61907   0.25000   0.00000  Uiso   1.00
N368   N     0.50000   0.38093   0.25000   0.00000  Uiso   1.00
O369   O     0.43892   0.53821   0.24999   0.00000  Uiso   1.00
O370   O     0.56108   0.46179   0.25000   0.00000  Uiso   1.00
O371   O     0.56108   0.53821   0.25000   0.00000  Uiso   1.00
O372   O     0.43892   0.46179   0.24999   0.00000  Uiso   1.00
O373   O     0.49999   0.53823   0.18392   0.00000  Uiso   1.00
O374   O     0.50001   0.46177   0.31607   0.00000  Uiso   1.00
O375   O     0.50001   0.53823   0.31607   0.00000  Uiso   1.00
O376   O     0.49999   0.46177   0.18392   0.00000  Uiso   1.00
Zn377  Zn    0.50000   0.55104   0.25000   0.00000  Uiso   1.00
Zn378  Zn    0.50000   0.44896   0.25000   0.00000  Uiso   1.00
S379   S     0.58520   0.53796   0.38568   0.00000  Uiso   1.00
O380   O     0.60008   0.57412   0.41765   0.00000  Uiso   1.00
O381   O     0.61931   0.50426   0.37974   0.00000  Uiso   1.00
O382   O     0.57495   0.56334   0.33646   0.00000  Uiso   1.00
H383   H     0.60105   0.57867   0.32827   0.00000  Uiso   1.00
S384   S     0.41252   0.51903   0.11493   0.00000  Uiso   1.00
O385   O     0.38787   0.54641   0.08145   0.00000  Uiso   1.00
O386   O     0.38793   0.47793   0.12818   0.00000  Uiso   1.00
O387   O     0.42094   0.55193   0.15993   0.00000  Uiso   1.00
H388   H     0.39321   0.56233   0.16858   0.00000  Uiso   1.00
Br389  Br    0.37679   0.46956   0.44008   0.00000  Uiso   1.00
Br390  Br    0.62786   0.49765   0.06034   0.00000  Uiso   1.00
S391   S     0.37358   0.40342   0.23564   0.00000  Uiso   1.00
O392   O     0.39837   0.38304   0.27362   0.00000  Uiso   1.00
O393   O     0.33945   0.37118   0.22255   0.00000  Uiso   1.00
O394   O     0.40391   0.40979   0.19085   0.00000  Uiso   1.00
H395   H     0.41152   0.37852   0.18220   0.00000  Uiso   1.00
S396   S     0.62602   0.58544   0.20910   0.00000  Uiso   1.00
O397   O     0.60305   0.61784   0.23835   0.00000  Uiso   1.00
O398   O     0.66031   0.61063   0.18642   0.00000  Uiso   1.00
O399   O     0.59369   0.56475   0.16939   0.00000  Uiso   1.00
H400   H     0.57975   0.59172   0.15639   0.00000  Uiso   1.00
S401   S     0.62280   0.41410   0.29617   0.00000  Uiso   1.00
O402   O     0.60145   0.38084   0.26540   0.00000  Uiso   1.00
O403   O     0.65578   0.38988   0.32283   0.00000  Uiso   1.00
O404   O     0.58792   0.43434   0.33195   0.00000  Uiso   1.00
H405   H     0.57771   0.40736   0.34837   0.00000  Uiso   1.00
S406   S     0.37431   0.59169   0.27935   0.00000  Uiso   1.00
O407   O     0.39771   0.61826   0.24489   0.00000  Uiso   1.00
O408   O     0.33995   0.62052   0.29667   0.00000  Uiso   1.00
O409   O     0.40612   0.57858   0.32257   0.00000  Uiso   1.00
H410   H     0.41875   0.60786   0.33184   0.00000  Uiso   1.00
C411   C     0.75317   0.49973   0.25109   0.00000  Uiso   1.00
C412   C     0.91336   0.50000   0.25039   0.00000  Uiso   1.00
C413   C     0.75935   0.48402   0.01849   0.00000  Uiso   1.00
C414   C     0.91056   0.50131   0.48179   0.00000  Uiso   1.00
C415   C     0.68654   0.45715   0.25290   0.00000  Uiso   1.00
C416   C     0.97957   0.53979   0.24229   0.00000  Uiso   1.00
C417   C     0.97854   0.45931   0.26402   0.00000  Uiso   1.00
C418   C     0.68731   0.54075   0.25487   0.00000  Uiso   1.00
C419   C     0.95742   0.49973   0.25219   0.00000  Uiso   1.00
C420   C     0.70885   0.49903   0.25314   0.00000  Uiso   1.00
C421   C     0.83528   0.35720   0.28934   0.00000  Uiso   1.00
C422   C     0.83137   0.64279   0.21066   0.00000  Uiso   1.00
C423   C     0.83145   0.35739   0.21066   0.00000  Uiso   1.00
C424   C     0.83534   0.64260   0.28934   0.00000  Uiso   1.00
C425   C     0.83072   0.50009   0.16349   0.00000  Uiso   1.00
C426   C     0.83715   0.50010   0.33641   0.00000  Uiso   1.00
C427   C     0.87459   0.51006   0.40935   0.00000  Uiso   1.00
C428   C     0.79314   0.50139   0.09055   0.00000  Uiso   1.00
C429   C     0.83830   0.50012   0.38427   0.00000  Uiso   1.00
C430   C     0.83027   0.50009   0.11568   0.00000  Uiso   1.00
C431   C     0.80156   0.48815   0.40473   0.00000  Uiso   1.00
C432   C     0.86840   0.49636   0.09549   0.00000  Uiso   1.00
C433   C     0.79916   0.48740   0.45098   0.00000  Uiso   1.00
C434   C     0.87091   0.49584   0.04923   0.00000  Uiso   1.00
C435   C     0.83578   0.49351   0.47666   0.00000  Uiso   1.00
C436   C     0.83397   0.49349   0.02346   0.00000  Uiso   1.00
C437   C     0.87404   0.50150   0.45569   0.00000  Uiso   1.00
C438   C     0.79508   0.49283   0.04438   0.00000  Uiso   1.00
C439   C     0.76116   0.48074   0.47220   0.00000  Uiso   1.00
C440   C     0.90930   0.49764   0.02808   0.00000  Uiso   1.00
H441   H     0.77449   0.48149   0.38391   0.00000  Uiso   1.00
H442   H     0.89600   0.49564   0.11644   0.00000  Uiso   1.00
H443   H     0.72973   0.47883   0.03388   0.00000  Uiso   1.00
H444   H     0.94057   0.50335   0.46664   0.00000  Uiso   1.00
H445   H     0.83686   0.37512   0.32087   0.00000  Uiso   1.00
H446   H     0.82972   0.62486   0.17914   0.00000  Uiso   1.00
H447   H     0.82986   0.37546   0.17912   0.00000  Uiso   1.00
H448   H     0.83697   0.62453   0.32087   0.00000  Uiso   1.00
N449   N     0.83333   0.61907   0.25000   0.00000  Uiso   1.00
N450   N     0.83333   0.38093   0.25000   0.00000  Uiso   1.00
O451   O     0.77226   0.53821   0.24999   0.00000  Uiso   1.00
O452   O     0.89441   0.46179   0.25000   0.00000  Uiso   1.00
O453   O     0.89441   0.53821   0.25000   0.00000  Uiso   1.00
O454   O     0.77226   0.46179   0.24999   0.00000  Uiso   1.00
O455   O     0.83333   0.53823   0.18392   0.00000  Uiso   1.00
O456   O     0.83334   0.46177   0.31607   0.00000  Uiso   1.00
O457   O     0.83334   0.53823   0.31607   0.00000  Uiso   1.00
O458   O     0.83333   0.46177   0.18392   0.00000  Uiso   1.00
Zn459  Zn    0.83333   0.55104   0.25000   0.00000  Uiso   1.00
Zn460  Zn    0.83333   0.44896   0.25000   0.00000  Uiso   1.00
S461   S     0.91854   0.53796   0.38568   0.00000  Uiso   1.00
O462   O     0.93341   0.57412   0.41765   0.00000  Uiso   1.00
O463   O     0.95264   0.50426   0.37974   0.00000  Uiso   1.00
O464   O     0.90828   0.56334   0.33646   0.00000  Uiso   1.00
H465   H     0.93438   0.57867   0.32827   0.00000  Uiso   1.00
S466   S     0.74586   0.51903   0.11493   0.00000  Uiso   1.00
O467   O     0.72121   0.54641   0.08145   0.00000  Uiso   1.00
O468   O     0.72126   0.47793   0.12818   0.00000  Uiso   1.00
O469   O     0.75428   0.55193   0.15993   0.00000  Uiso   1.00
H470   H     0.72655   0.56233   0.16858   0.00000  Uiso   1.00
Br471  Br    0.71012   0.46956   0.44008   0.00000  Uiso   1.00
Br472  Br    0.96119   0.49765   0.06034   0.00000  Uiso   1.00
S473   S     0.70691   0.40342   0.23564   0.00000  Uiso   1.00
O474   O     0.73171   0.38304   0.27362   0.00000  Uiso   1.00
O475   O     0.67278   0.37118   0.22255   0.00000  Uiso   1.00
O476   O     0.73724   0.40979   0.19085   0.00000  Uiso   1.00
H477   H     0.74485   0.37852   0.18220   0.00000  Uiso   1.00
S478   S     0.95935   0.58544   0.20910   0.00000  Uiso   1.00
O479   O     0.93638   0.61784   0.23835   0.00000  Uiso   1.00
O480   O     0.99365   0.61063   0.18642   0.00000  Uiso   1.00
O481   O     0.92702   0.56475   0.16939   0.00000  Uiso   1.00
H482   H     0.91308   0.59172   0.15639   0.00000  Uiso   1.00
S483   S     0.95613   0.41410   0.29617   0.00000  Uiso   1.00
O484   O     0.93478   0.38084   0.26540   0.00000  Uiso   1.00
O485   O     0.98911   0.38988   0.32283   0.00000  Uiso   1.00
O486   O     0.92125   0.43434   0.33195   0.00000  Uiso   1.00
H487   H     0.91105   0.40736   0.34837   0.00000  Uiso   1.00
S488   S     0.70764   0.59169   0.27935   0.00000  Uiso   1.00
O489   O     0.73104   0.61826   0.24489   0.00000  Uiso   1.00
O490   O     0.67328   0.62052   0.29667   0.00000  Uiso   1.00
O491   O     0.73946   0.57858   0.32257   0.00000  Uiso   1.00
H492   H     0.75208   0.60786   0.33184   0.00000  Uiso   1.00
C493   C     0.08650   0.83306   0.25109   0.00000  Uiso   1.00
C494   C     0.24669   0.83333   0.25039   0.00000  Uiso   1.00
C495   C     0.09268   0.81735   0.01849   0.00000  Uiso   1.00
C496   C     0.24390   0.83464   0.48179   0.00000  Uiso   1.00
C497   C     0.01987   0.79049   0.25290   0.00000  Uiso   1.00
C498   C     0.31290   0.87313   0.24229   0.00000  Uiso   1.00
C499   C     0.31187   0.79264   0.26402   0.00000  Uiso   1.00
C500   C     0.02065   0.87408   0.25487   0.00000  Uiso   1.00
C501   C     0.29075   0.83306   0.25219   0.00000  Uiso   1.00
C502   C     0.04218   0.83237   0.25314   0.00000  Uiso   1.00
C503   C     0.16861   0.69053   0.28934   0.00000  Uiso   1.00
C504   C     0.16471   0.97612   0.21066   0.00000  Uiso   1.00
C505   C     0.16478   0.69073   0.21066   0.00000  Uiso   1.00
C506   C     0.16867   0.97593   0.28934   0.00000  Uiso   1.00
C507   C     0.16406   0.83342   0.16349   0.00000  Uiso   1.00
C508   C     0.17049   0.83344   0.33641   0.00000  Uiso   1.00
C509   C     0.20792   0.84340   0.40935   0.00000  Uiso   1.00
C510   C     0.12647   0.83472   0.09055   0.00000  Uiso   1.00
C511   C     0.17163   0.83345   0.38427   0.00000  Uiso   1.00
C512   C     0.16360   0.83342   0.11568   0.00000  Uiso   1.00
C513   C     0.13490   0.82148   0.40473   0.00000  Uiso   1.00
C514   C     0.20173   0.82969   0.09549   0.00000  Uiso   1.00
C515   C     0.13249   0.82073   0.45098   0.00000  Uiso   1.00
C516   C     0.20425   0.82918   0.04923   0.00000  Uiso   1.00
C517   C     0.16912   0.82685   0.47666   0.00000  Uiso   1.00
C518   C     0.16730   0.82683   0.02346   0.00000  Uiso   1.00
C519   C     0.20737   0.83484   0.45569   0.00000  Uiso   1.00
C520   C     0.12841   0.82616   0.04438   0.00000  Uiso   1.00
C521   C     0.09450   0.81407   0.47220   0.00000  Uiso   1.00
C522   C     0.24264   0.83097   0.02808   0.00000  Uiso   1.00
H523   H     0.10783   0.81482   0.38391   0.00000  Uiso   1.00
H524   H     0.22934   0.82897   0.11644   0.00000  Uiso   1.00
H525   H     0.06306   0.81216   0.03388   0.00000  Uiso   1.00
H526   H     0.27390   0.83668   0.46664   0.00000  Uiso   1.00
H527   H     0.17019   0.70845   0.32087   0.00000  Uiso   1.00
H528   H     0.16305   0.95819   0.17914   0.00000  Uiso   1.00
H529   H     0.16319   0.70879   0.17912   0.00000  Uiso   1.00
H530   H     0.17030   0.95787   0.32087   0.00000  Uiso   1.00
N531   N     0.16667   0.95240   0.25000   0.00000  Uiso   1.00
N532   N     0.16667   0.71427   0.25000   0.00000  Uiso   1.00
O533   O     0.10559   0.87154   0.24999   0.00000  Uiso   1.00
O534   O     0.22774   0.79513   0.25000   0.00000  Uiso   1.00
O535   O     0.22774   0.87154   0.25000   0.00000  Uiso   1.00
O536   O     0.10559   0.79513   0.24999   0.00000  Uiso   1.00
O537   O     0.16666   0.87156   0.18392   0.00000  Uiso   1.00
O538   O     0.16667   0.79511   0.31607   0.00000  Uiso   1.00
O539   O     0.16667   0.87156   0.31607   0.00000  Uiso   1.00
O540   O     0.16666   0.79511   0.18392   0.00000  Uiso   1.00
Zn541  Zn    0.16667   0.88437   0.25000   0.00000  Uiso   1.00
Zn542  Zn    0.16667   0.78229   0.25000   0.00000  Uiso   1.00
S543   S     0.25187   0.87129   0.38568   0.00000  Uiso   1.00
O544   O     0.26675   0.90745   0.41765   0.00000  Uiso   1.00
O545   O     0.28598   0.83759   0.37974   0.00000  Uiso   1.00
O546   O     0.24162   0.89667   0.33646   0.00000  Uiso   1.00
H547   H     0.26771   0.91200   0.32827   0.00000  Uiso   1.00
S548   S     0.07919   0.85237   0.11493   0.00000  Uiso   1.00
O549   O     0.05454   0.87975   0.08145   0.00000  Uiso   1.00
O550   O     0.05459   0.81127   0.12818   0.00000  Uiso   1.00
O551   O     0.08761   0.88527   0.15993   0.00000  Uiso   1.00
H552   H     0.05988   0.89566   0.16858   0.00000  Uiso   1.00
Br553  Br    0.04345   0.80290   0.44008   0.00000  Uiso   1.00
Br554  Br    0.29453   0.83098   0.06034   0.00000  Uiso   1.00
S555   S     0.04024   0.73675   0.23564   0.00000  Uiso   1.00
O556   O     0.06504   0.71638   0.27362   0.00000  Uiso   1.00
O557   O     0.00611   0.70451   0.22255   0.00000  Uiso   1.00
O558   O     0.07058   0.74313   0.19085   0.00000  Uiso   1.00
H559   H     0.07819   0.71185   0.18220   0.00000  Uiso   1.00
S560   S     0.29268   0.91878   0.20910   0.00000  Uiso   1.00
O561   O     0.26972   0.95117   0.23835   0.00000  Uiso   1.00
O562   O     0.32698   0.94396   0.18642   0.00000  Uiso   1.00
O563   O     0.26036   0.89808   0.16939   0.00000  Uiso   1.00
H564   H     0.24641   0.92506   0.15639   0.00000  Uiso   1.00
S565   S     0.28946   0.74744   0.29617   0.00000  Uiso   1.00
O566   O     0.26811   0.71418   0.26540   0.00000  Uiso   1.00
O567   O     0.32245   0.72321   0.32283   0.00000  Uiso   1.00
O568   O     0.25459   0.76767   0.33195   0.00000  Uiso   1.00
H569   H     0.24438   0.74069   0.34837   0.00000  Uiso   1.00
S570   S     0.04097   0.92502   0.27935   0.00000  Uiso   1.00
O571   O     0.06437   0.95159   0.24489   0.00000  Uiso   1.00
O572   O     0.00662   0.95386   0.29667   0.00000  Uiso   1.00
O573   O     0.07279   0.91191   0.32257   0.00000  Uiso   1.00
H574   H     0.08541   0.94119   0.33184   0.00000  Uiso   1.00
C575   C     0.41984   0.83306   0.25109   0.00000  Uiso   1.00
C576   C     0.58002   0.83333   0.25039   0.00000  Uiso   1.00
C577   C     0.42601   0.81735   0.01849   0.00000  Uiso   1.00
C578   C     0.57723   0.83464   0.48179   0.00000  Uiso   1.00
C579   C     0.35320   0.79049   0.25290   0.00000  Uiso   1.00
C580   C     0.64623   0.87313   0.24229   0.00000  Uiso   1.00
C581   C     0.64520   0.79264   0.26402   0.00000  Uiso   1.00
C582   C     0.35398   0.87408   0.25487   0.00000  Uiso   1.00
C583   C     0.62409   0.83306   0.25219   0.00000  Uiso   1.00
C584   C     0.37551   0.83237   0.25314   0.00000  Uiso   1.00
C585   C     0.50195   0.69053   0.28934   0.00000  Uiso   1.00
C586   C     0.49804   0.97612   0.21066   0.00000  Uiso   1.00
C587   C     0.49812   0.69073   0.21066   0.00000  Uiso   1.00
C588   C     0.50200   0.97593   0.28934   0.00000  Uiso   1.00
C589   C     0.49739   0.83342   0.16349   0.00000  Uiso   1.00
C590   C     0.50382   0.83344   0.33641   0.00000  Uiso   1.00
C591   C     0.54126   0.84340   0.40935   0.00000  Uiso   1.00
C592   C     0.45980   0.83472   0.09055   0.00000  Uiso   1.00
C593   C     0.50497   0.83345   0.38427   0.00000  Uiso   1.00
C594   C     0.49694   0.83342   0.11568   0.00000  Uiso   1.00
C595   C     0.46823   0.82148   0.40473   0.00000  Uiso   1.00
C596   C     0.53507   0.82969   0.09549   0.00000  Uiso   1.00
C597   C     0.46583   0.82073   0.45098   0.00000  Uiso   1.00
C598   C     0.53758   0.82918   0.04923   0.00000  Uiso   1.00
C599   C     0.50245   0.82685   0.47666   0.00000  Uiso   1.00
C600   C     0.50064   0.82683   0.02346   0.00000  Uiso   1.00
C601   C     0.54070   0.83484   0.45569   0.00000  Uiso   1.00
C602   C     0.46174   0.82616   0.04438   0.00000  Uiso   1.00
C603   C     0.42783   0.81407   0.47220   0.00000  Uiso   1.00
C604   C     0.57597   0.83097   0.02808   0.00000  Uiso   1.00
H605   H     0.44116   0.81482   0.38391   0.00000  Uiso   1.00
H606   H     0.56267   0.82897   0.11644   0.00000  Uiso   1.00
H607   H     0.39640   0.81216   0.03388   0.00000  Uiso   1.00
H608   H     0.60724   0.83668   0.46664   0.00000  Uiso   1.00
H609   H     0.50353   0.70845   0.32087   0.00000  Uiso   1.00
H610   H     0.49638   0.95819   0.17914   0.00000  Uiso   1.00
H611   H     0.49652   0.70879   0.17912   0.00000  Uiso   1.00
H612   H     0.50364   0.95787   0.32087   0.00000  Uiso   1.00
N613   N     0.50000   0.95240   0.25000   0.00000  Uiso   1.00
N614   N     0.50000   0.71427   0.25000   0.00000  Uiso   1.00
O615   O     0.43892   0.87154   0.24999   0.00000  Uiso   1.00
O616   O     0.56108   0.79513   0.25000   0.00000  Uiso   1.00
O617   O     0.56108   0.87154   0.25000   0.00000  Uiso   1.00
O618   O     0.43892   0.79513   0.24999   0.00000  Uiso   1.00
O619   O     0.49999   0.87156   0.18392   0.00000  Uiso   1.00
O620   O     0.50001   0.79511   0.31607   0.00000  Uiso   1.00
O621   O     0.50001   0.87156   0.31607   0.00000  Uiso   1.00
O622   O     0.49999   0.79511   0.18392   0.00000  Uiso   1.00
Zn623  Zn    0.50000   0.88437   0.25000   0.00000  Uiso   1.00
Zn624  Zn    0.50000   0.78229   0.25000   0.00000  Uiso   1.00
S625   S     0.58520   0.87129   0.38568   0.00000  Uiso   1.00
O626   O     0.60008   0.90745   0.41765   0.00000  Uiso   1.00
O627   O     0.61931   0.83759   0.37974   0.00000  Uiso   1.00
O628   O     0.57495   0.89667   0.33646   0.00000  Uiso   1.00
H629   H     0.60105   0.91200   0.32827   0.00000  Uiso   1.00
S630   S     0.41252   0.85237   0.11493   0.00000  Uiso   1.00
O631   O     0.38787   0.87975   0.08145   0.00000  Uiso   1.00
O632   O     0.38793   0.81127   0.12818   0.00000  Uiso   1.00
O633   O     0.42094   0.88527   0.15993   0.00000  Uiso   1.00
H634   H     0.39321   0.89566   0.16858   0.00000  Uiso   1.00
Br635  Br    0.37679   0.80290   0.44008   0.00000  Uiso   1.00
Br636  Br    0.62786   0.83098   0.06034   0.00000  Uiso   1.00
S637   S     0.37358   0.73675   0.23564   0.00000  Uiso   1.00
O638   O     0.39837   0.71638   0.27362   0.00000  Uiso   1.00
O639   O     0.33945   0.70451   0.22255   0.00000  Uiso   1.00
O640   O     0.40391   0.74313   0.19085   0.00000  Uiso   1.00
H641   H     0.41152   0.71185   0.18220   0.00000  Uiso   1.00
S642   S     0.62602   0.91878   0.20910   0.00000  Uiso   1.00
O643   O     0.60305   0.95117   0.23835   0.00000  Uiso   1.00
O644   O     0.66031   0.94396   0.18642   0.00000  Uiso   1.00
O645   O     0.59369   0.89808   0.16939   0.00000  Uiso   1.00
H646   H     0.57975   0.92506   0.15639   0.00000  Uiso   1.00
S647   S     0.62280   0.74744   0.29617   0.00000  Uiso   1.00
O648   O     0.60145   0.71418   0.26540   0.00000  Uiso   1.00
O649   O     0.65578   0.72321   0.32283   0.00000  Uiso   1.00
O650   O     0.58792   0.76767   0.33195   0.00000  Uiso   1.00
H651   H     0.57771   0.74069   0.34837   0.00000  Uiso   1.00
S652   S     0.37431   0.92502   0.27935   0.00000  Uiso   1.00
O653   O     0.39771   0.95159   0.24489   0.00000  Uiso   1.00
O654   O     0.33995   0.95386   0.29667   0.00000  Uiso   1.00
O655   O     0.40612   0.91191   0.32257   0.00000  Uiso   1.00
H656   H     0.41875   0.94119   0.33184   0.00000  Uiso   1.00
C657   C     0.75317   0.83306   0.25109   0.00000  Uiso   1.00
C658   C     0.91336   0.83333   0.25039   0.00000  Uiso   1.00
C659   C     0.75935   0.81735   0.01849   0.00000  Uiso   1.00
C660   C     0.91056   0.83464   0.48179   0.00000  Uiso   1.00
C661   C     0.68654   0.79049   0.25290   0.00000  Uiso   1.00
C662   C     0.97957   0.87313   0.24229   0.00000  Uiso   1.00
C663   C     0.97854   0.79264   0.26402   0.00000  Uiso   1.00
C664   C     0.68731   0.87408   0.25487   0.00000  Uiso   1.00
C665   C     0.95742   0.83306   0.25219   0.00000  Uiso   1.00
C666   C     0.70885   0.83237   0.25314   0.00000  Uiso   1.00
C667   C     0.83528   0.69053   0.28934   0.00000  Uiso   1.00
C668   C     0.83137   0.97612   0.21066   0.00000  Uiso   1.00
C669   C     0.83145   0.69073   0.21066   0.00000  Uiso   1.00
C670   C     0.83534   0.97593   0.28934   0.00000  Uiso   1.00
C671   C     0.83072   0.83342   0.16349   0.00000  Uiso   1.00
C672   C     0.83715   0.83344   0.33641   0.00000  Uiso   1.00
C673   C     0.87459   0.84340   0.40935   0.00000  Uiso   1.00
C674   C     0.79314   0.83472   0.09055   0.00000  Uiso   1.00
C675   C     0.83830   0.83345   0.38427   0.00000  Uiso   1.00
C676   C     0.83027   0.83342   0.11568   0.00000  Uiso   1.00
C677   C     0.80156   0.82148   0.40473   0.00000  Uiso   1.00
C678   C     0.86840   0.82969   0.09549   0.00000  Uiso   1.00
C679   C     0.79916   0.82073   0.45098   0.00000  Uiso   1.00
C680   C     0.87091   0.82918   0.04923   0.00000  Uiso   1.00
C681   C     0.83578   0.82685   0.47666   0.00000  Uiso   1.00
C682   C     0.83397   0.82683   0.02346   0.00000  Uiso   1.00
C683   C     0.87404   0.83484   0.45569   0.00000  Uiso   1.00
C684   C     0.79508   0.82616   0.04438   0.00000  Uiso   1.00
C685   C     0.76116   0.81407   0.47220   0.00000  Uiso   1.00
C686   C     0.90930   0.83097   0.02808   0.00000  Uiso   1.00
H687   H     0.77449   0.81482   0.38391   0.00000  Uiso   1.00
H688   H     0.89600   0.82897   0.11644   0.00000  Uiso   1.00
H689   H     0.72973   0.81216   0.03388   0.00000  Uiso   1.00
H690   H     0.94057   0.83668   0.46664   0.00000  Uiso   1.00
H691   H     0.83686   0.70845   0.32087   0.00000  Uiso   1.00
H692   H     0.82972   0.95819   0.17914   0.00000  Uiso   1.00
H693   H     0.82986   0.70879   0.17912   0.00000  Uiso   1.00
H694   H     0.83697   0.95787   0.32087   0.00000  Uiso   1.00
N695   N     0.83333   0.95240   0.25000   0.00000  Uiso   1.00
N696   N     0.83333   0.71427   0.25000   0.00000  Uiso   1.00
O697   O     0.77226   0.87154   0.24999   0.00000  Uiso   1.00
O698   O     0.89441   0.79513   0.25000   0.00000  Uiso   1.00
O699   O     0.89441   0.87154   0.25000   0.00000  Uiso   1.00
O700   O     0.77226   0.79513   0.24999   0.00000  Uiso   1.00
O701   O     0.83333   0.87156   0.18392   0.00000  Uiso   1.00
O702   O     0.83334   0.79511   0.31607   0.00000  Uiso   1.00
O703   O     0.83334   0.87156   0.31607   0.00000  Uiso   1.00
O704   O     0.83333   0.79511   0.18392   0.00000  Uiso   1.00
Zn705  Zn    0.83333   0.88437   0.25000   0.00000  Uiso   1.00
Zn706  Zn    0.83333   0.78229   0.25000   0.00000  Uiso   1.00
S707   S     0.91854   0.87129   0.38568   0.00000  Uiso   1.00
O708   O     0.93341   0.90745   0.41765   0.00000  Uiso   1.00
O709   O     0.95264   0.83759   0.37974   0.00000  Uiso   1.00
O710   O     0.90828   0.89667   0.33646   0.00000  Uiso   1.00
H711   H     0.93438   0.91200   0.32827   0.00000  Uiso   1.00
S712   S     0.74586   0.85237   0.11493   0.00000  Uiso   1.00
O713   O     0.72121   0.87975   0.08145   0.00000  Uiso   1.00
O714   O     0.72126   0.81127   0.12818   0.00000  Uiso   1.00
O715   O     0.75428   0.88527   0.15993   0.00000  Uiso   1.00
H716   H     0.72655   0.89566   0.16858   0.00000  Uiso   1.00
Br717  Br    0.71012   0.80290   0.44008   0.00000  Uiso   1.00
Br718  Br    0.96119   0.83098   0.06034   0.00000  Uiso   1.00
S719   S     0.70691   0.73675   0.23564   0.00000  Uiso   1.00
O720   O     0.73171   0.71638   0.27362   0.00000  Uiso   1.00
O721   O     0.67278   0.70451   0.22255   0.00000  Uiso   1.00
O722   O     0.73724   0.74313   0.19085   0.00000  Uiso   1.00
H723   H     0.74485   0.71185   0.18220   0.00000  Uiso   1.00
S724   S     0.95935   0.91878   0.20910   0.00000  Uiso   1.00
O725   O     0.93638   0.95117   0.23835   0.00000  Uiso   1.00
O726   O     0.99365   0.94396   0.18642   0.00000  Uiso   1.00
O727   O     0.92702   0.89808   0.16939   0.00000  Uiso   1.00
H728   H     0.91308   0.92506   0.15639   0.00000  Uiso   1.00
S729   S     0.95613   0.74744   0.29617   0.00000  Uiso   1.00
O730   O     0.93478   0.71418   0.26540   0.00000  Uiso   1.00
O731   O     0.98911   0.72321   0.32283   0.00000  Uiso   1.00
O732   O     0.92125   0.76767   0.33195   0.00000  Uiso   1.00
H733   H     0.91105   0.74069   0.34837   0.00000  Uiso   1.00
S734   S     0.70764   0.92502   0.27935   0.00000  Uiso   1.00
O735   O     0.73104   0.95159   0.24489   0.00000  Uiso   1.00
O736   O     0.67328   0.95386   0.29667   0.00000  Uiso   1.00
O737   O     0.73946   0.91191   0.32257   0.00000  Uiso   1.00
H738   H     0.75208   0.94119   0.33184   0.00000  Uiso   1.00
C739   C     0.08650   0.16640   0.75109   0.00000  Uiso   1.00
C740   C     0.24669   0.16667   0.75039   0.00000  Uiso   1.00
C741   C     0.09268   0.15069   0.51849   0.00000  Uiso   1.00
C742   C     0.24390   0.16797   0.98179   0.00000  Uiso   1.00
C743   C     0.01987   0.12382   0.75290   0.00000  Uiso   1.00
C744   C     0.31290   0.20646   0.74229   0.00000  Uiso   1.00
C745   C     0.31187   0.12597   0.76402   0.00000  Uiso   1.00
C746   C     0.02065   0.20742   0.75487   0.00000  Uiso   1.00
C747   C     0.29075   0.16640   0.75219   0.00000  Uiso   1.00
C748   C     0.04218   0.16570   0.75314   0.00000  Uiso   1.00
C749   C     0.16861   0.02387   0.78934   0.00000  Uiso   1.00
C750   C     0.16471   0.30945   0.71066   0.00000  Uiso   1.00
C751   C     0.16478   0.02406   0.71066   0.00000  Uiso   1.00
C752   C     0.16867   0.30926   0.78934   0.00000  Uiso   1.00
C753   C     0.16406   0.16675   0.66349   0.00000  Uiso   1.00
C754   C     0.17049   0.16677   0.83641   0.00000  Uiso   1.00
C755   C     0.20792   0.17673   0.90935   0.00000  Uiso   1.00
C756   C     0.12647   0.16806   0.59055   0.00000  Uiso   1.00
C757   C     0.17163   0.16679   0.88427   0.00000  Uiso   1.00
C758   C     0.16360   0.16675   0.61568   0.00000  Uiso   1.00
C759   C     0.13490   0.15481   0.90473   0.00000  Uiso   1.00
C760   C     0.20173   0.16303   0.59549   0.00000  Uiso   1.00
C761   C     0.13249   0.15407   0.95098   0.00000  Uiso   1.00
C762   C     0.20425   0.16251   0.54923   0.00000  Uiso   1.00
C763   C     0.16912   0.16018   0.97666   0.00000  Uiso   1.00
C764   C     0.16730   0.16016   0.52346   0.00000  Uiso   1.00
C765   C     0.20737   0.16817   0.95569   0.00000  Uiso   1.00
C766   C     0.12841   0.15949   0.54438   0.00000  Uiso   1.00
C767   C     0.09450   0.14740   0.97220   0.00000  Uiso   1.00
C768   C     0.24264   0.16431   0.52808   0.00000  Uiso   1.00
H769   H     0.10783   0.14816   0.88391   0.00000  Uiso   1.00
H770   H     0.22934   0.16231   0.61644   0.00000  Uiso   1.00
H771   H     0.06306   0.14550   0.53388   0.00000  Uiso   1.00
H772   H     0.27390   0.17002   0.96664   0.00000  Uiso   1.00
H773   H     0.17019   0.04178   0.82087   0.00000  Uiso   1.00
H774   H     0.16305   0.29152   0.67914   0.00000  Uiso   1.00
H775   H     0.16319   0.04213   0.67912   0.00000  Uiso   1.00
H776   H     0.17030   0.29120   0.82087   0.00000  Uiso   1.00
N777   N     0.16667   0.28573   0.75000   0.00000  Uiso   1.00
N778   N     0.16667   0.04760   0.75000   0.00000  Uiso   1.00
O779   O     0.10559   0.20487   0.74999   0.00000  Uiso   1.00
O780   O     0.22774   0.12846   0.75000   0.00000  Uiso   1.00
O781   O     0.22774   0.20487   0.75000   0.00000  Uiso   1.00
O782   O     0.10559   0.12846   0.74999   0.00000  Uiso   1.00
O783   O     0.16666   0.20489   0.68392   0.00000  Uiso   1.00
O784   O     0.16667   0.12844   0.81607   0.00000  Uiso   1.00
O785   O     0.16667   0.20489   0.81607   0.00000  Uiso   1.00
O786   O     0.16666   0.12844   0.68392   0.00000  Uiso   1.00
Zn787  Zn    0.16667   0.21771   0.75000   0.00000  Uiso   1.00
Zn788  Zn    0.16667   0.11563   0.75000   0.00000  Uiso   1.00
S789   S     0.25187   0.20462   0.88568   0.00000  Uiso   1.00
O790   O     0.26675   0.24078   0.91765   0.00000  Uiso   1.00
O791   O     0.28598   0.17093   0.87974   0.00000  Uiso   1.00
O792   O     0.24162   0.23001   0.83646   0.00000  Uiso   1.00
H793   H     0.26771   0.24534   0.82827   0.00000  Uiso   1.00
S794   S     0.07919   0.18570   0.61493   0.00000  Uiso   1.00
O795   O     0.05454   0.21308   0.58145   0.00000  Uiso   1.00
O796   O     0.05459   0.14460   0.62818   0.00000  Uiso   1.00
O797   O     0.08761   0.21860   0.65993   0.00000  Uiso   1.00
H798   H     0.05988   0.22900   0.66858   0.00000  Uiso   1.00
Br799  Br    0.04345   0.13623   0.94008   0.00000  Uiso   1.00
Br800  Br    0.29453   0.16432   0.56034   0.00000  Uiso   1.00
S801   S     0.04024   0.07008   0.73564   0.00000  Uiso   1.00
O802   O     0.06504   0.04971   0.77362   0.00000  Uiso   1.00
O803   O     0.00611   0.03785   0.72255   0.00000  Uiso   1.00
O804   O     0.07058   0.07646   0.69085   0.00000  Uiso   1.00
H805   H     0.07819   0.04519   0.68220   0.00000  Uiso   1.00
S806   S     0.29268   0.25211   0.70910   0.00000  Uiso   1.00
O807   O     0.26972   0.28450   0.73835   0.00000  Uiso   1.00
O808   O     0.32698   0.27729   0.68642   0.00000  Uiso   1.00
O809   O     0.26036   0.23142   0.66939   0.00000  Uiso   1.00
H810   H     0.24641   0.25839   0.65639   0.00000  Uiso   1.00
S811   S     0.28946   0.08077   0.79617   0.00000  Uiso   1.00
O812   O     0.26811   0.04751   0.76540   0.00000  Uiso   1.00
O813   O     0.32245   0.05655   0.82283   0.00000  Uiso   1.00
O814   O     0.25459   0.10100   0.83195   0.00000  Uiso   1.00
H815   H     0.24438   0.07402   0.84837   0.00000  Uiso   1.00
S816   S     0.04097   0.25835   0.77935   0.00000  Uiso   1.00
O817   O     0.06437   0.28492   0.74489   0.00000  Uiso   1.00
O818   O     0.00662   0.28719   0.79667   0.00000  Uiso   1.00
O819   O     0.07279   0.24525   0.82257   0.00000  Uiso   1.00
H820   H     0.08541   0.27453   0.83184   0.00000  Uiso   1.00
C821   C     0.41984   0.16640   0.75109   0.00000  Uiso   1.00
C822   C     0.58002   0.16667   0.75039   0.00000  Uiso   1.00
C823   C     0.42601   0.15069   0.51849   0.00000  Uiso   1.00
C824   C     0.57723   0.16797   0.98179   0.00000  Uiso   1.00
C825   C     0.35320   0.12382   0.75290   0.00000  Uiso   1.00
C826   C     0.64623   0.20646   0.74229   0.00000  Uiso   1.00
C827   C     0.64520   0.12597   0.76402   0.00000  Uiso   1.00
C828   C     0.35398   0.20742   0.75487   0.00000  Uiso   1.00
C829   C     0.62409   0.16640   0.75219   0.00000  Uiso   1.00
C830   C     0.37551   0.16570   0.75314   0.00000  Uiso   1.00
C831   C     0.50195   0.02387   0.78934   0.00000  Uiso   1.00
C832   C     0.49804   0.30945   0.71066   0.00000  Uiso   1.00
C833   C     0.49812   0.02406   0.71066   0.00000  Uiso   1.00
C834   C     0.50200   0.30926   0.78934   0.00000  Uiso   1.00
C835   C     0.49739   0.16675   0.66349   0.00000  Uiso   1.00
C836   C     0.50382   0.16677   0.83641   0.00000  Uiso   1.00
C837   C     0.54126   0.17673   0.90935   0.00000  Uiso   1.00
C838   C     0.45980   0.16806   0.59055   0.00000  Uiso   1.00
C839   C     0.50497   0.16679   0.88427   0.00000  Uiso   1.00
C840   C     0.49694   0.16675   0.61568   0.00000  Uiso   1.00
C841   C     0.46823   0.15481   0.90473   0.00000  Uiso   1.00
C842   C     0.53507   0.16303   0.59549   0.00000  Uiso   1.00
C843   C     0.46583   0.15407   0.95098   0.00000  Uiso   1.00
C844   C     0.53758   0.16251   0.54923   0.00000  Uiso   1.00
C845   C     0.50245   0.16018   0.97666   0.00000  Uiso   1.00
C846   C     0.50064   0.16016   0.52346   0.00000  Uiso   1.00
C847   C     0.54070   0.16817   0.95569   0.00000  Uiso   1.00
C848   C     0.46174   0.15949   0.54438   0.00000  Uiso   1.00
C849   C     0.42783   0.14740   0.97220   0.00000  Uiso   1.00
C850   C     0.57597   0.16431   0.52808   0.00000  Uiso   1.00
H851   H     0.44116   0.14816   0.88391   0.00000  Uiso   1.00
H852   H     0.56267   0.16231   0.61644   0.00000  Uiso   1.00
H853   H     0.39640   0.14550   0.53388   0.00000  Uiso   1.00
H854   H     0.60724   0.17002   0.96664   0.00000  Uiso   1.00
H855   H     0.50353   0.04178   0.82087   0.00000  Uiso   1.00
H856   H     0.49638   0.29152   0.67914   0.00000  Uiso   1.00
H857   H     0.49652   0.04213   0.67912   0.00000  Uiso   1.00
H858   H     0.50364   0.29120   0.82087   0.00000  Uiso   1.00
N859   N     0.50000   0.28573   0.75000   0.00000  Uiso   1.00
N860   N     0.50000   0.04760   0.75000   0.00000  Uiso   1.00
O861   O     0.43892   0.20487   0.74999   0.00000  Uiso   1.00
O862   O     0.56108   0.12846   0.75000   0.00000  Uiso   1.00
O863   O     0.56108   0.20487   0.75000   0.00000  Uiso   1.00
O864   O     0.43892   0.12846   0.74999   0.00000  Uiso   1.00
O865   O     0.49999   0.20489   0.68392   0.00000  Uiso   1.00
O866   O     0.50001   0.12844   0.81607   0.00000  Uiso   1.00
O867   O     0.50001   0.20489   0.81607   0.00000  Uiso   1.00
O868   O     0.49999   0.12844   0.68392   0.00000  Uiso   1.00
Zn869  Zn    0.50000   0.21771   0.75000   0.00000  Uiso   1.00
Zn870  Zn    0.50000   0.11563   0.75000   0.00000  Uiso   1.00
S871   S     0.58520   0.20462   0.88568   0.00000  Uiso   1.00
O872   O     0.60008   0.24078   0.91765   0.00000  Uiso   1.00
O873   O     0.61931   0.17093   0.87974   0.00000  Uiso   1.00
O874   O     0.57495   0.23001   0.83646   0.00000  Uiso   1.00
H875   H     0.60105   0.24534   0.82827   0.00000  Uiso   1.00
S876   S     0.41252   0.18570   0.61493   0.00000  Uiso   1.00
O877   O     0.38787   0.21308   0.58145   0.00000  Uiso   1.00
O878   O     0.38793   0.14460   0.62818   0.00000  Uiso   1.00
O879   O     0.42094   0.21860   0.65993   0.00000  Uiso   1.00
H880   H     0.39321   0.22900   0.66858   0.00000  Uiso   1.00
Br881  Br    0.37679   0.13623   0.94008   0.00000  Uiso   1.00
Br882  Br    0.62786   0.16432   0.56034   0.00000  Uiso   1.00
S883   S     0.37358   0.07008   0.73564   0.00000  Uiso   1.00
O884   O     0.39837   0.04971   0.77362   0.00000  Uiso   1.00
O885   O     0.33945   0.03785   0.72255   0.00000  Uiso   1.00
O886   O     0.40391   0.07646   0.69085   0.00000  Uiso   1.00
H887   H     0.41152   0.04519   0.68220   0.00000  Uiso   1.00
S888   S     0.62602   0.25211   0.70910   0.00000  Uiso   1.00
O889   O     0.60305   0.28450   0.73835   0.00000  Uiso   1.00
O890   O     0.66031   0.27729   0.68642   0.00000  Uiso   1.00
O891   O     0.59369   0.23142   0.66939   0.00000  Uiso   1.00
H892   H     0.57975   0.25839   0.65639   0.00000  Uiso   1.00
S893   S     0.62280   0.08077   0.79617   0.00000  Uiso   1.00
O894   O     0.60145   0.04751   0.76540   0.00000  Uiso   1.00
O895   O     0.65578   0.05655   0.82283   0.00000  Uiso   1.00
O896   O     0.58792   0.10100   0.83195   0.00000  Uiso   1.00
H897   H     0.57771   0.07402   0.84837   0.00000  Uiso   1.00
S898   S     0.37431   0.25835   0.77935   0.00000  Uiso   1.00
O899   O     0.39771   0.28492   0.74489   0.00000  Uiso   1.00
O900   O     0.33995   0.28719   0.79667   0.00000  Uiso   1.00
O901   O     0.40612   0.24525   0.82257   0.00000  Uiso   1.00
H902   H     0.41875   0.27453   0.83184   0.00000  Uiso   1.00
C903   C     0.75317   0.16640   0.75109   0.00000  Uiso   1.00
C904   C     0.91336   0.16667   0.75039   0.00000  Uiso   1.00
C905   C     0.75935   0.15069   0.51849   0.00000  Uiso   1.00
C906   C     0.91056   0.16797   0.98179   0.00000  Uiso   1.00
C907   C     0.68654   0.12382   0.75290   0.00000  Uiso   1.00
C908   C     0.97957   0.20646   0.74229   0.00000  Uiso   1.00
C909   C     0.97854   0.12597   0.76402   0.00000  Uiso   1.00
C910   C     0.68731   0.20742   0.75487   0.00000  Uiso   1.00
C911   C     0.95742   0.16640   0.75219   0.00000  Uiso   1.00
C912   C     0.70885   0.16570   0.75314   0.00000  Uiso   1.00
C913   C     0.83528   0.02387   0.78934   0.00000  Uiso   1.00
C914   C     0.83137   0.30945   0.71066   0.00000  Uiso   1.00
C915   C     0.83145   0.02406   0.71066   0.00000  Uiso   1.00
C916   C     0.83534   0.30926   0.78934   0.00000  Uiso   1.00
C917   C     0.83072   0.16675   0.66349   0.00000  Uiso   1.00
C918   C     0.83715   0.16677   0.83641   0.00000  Uiso   1.00
C919   C     0.87459   0.17673   0.90935   0.00000  Uiso   1.00
C920   C     0.79314   0.16806   0.59055   0.00000  Uiso   1.00
C921   C     0.83830   0.16679   0.88427   0.00000  Uiso   1.00
C922   C     0.83027   0.16675   0.61568   0.00000  Uiso   1.00
C923   C     0.80156   0.15481   0.90473   0.00000  Uiso   1.00
C924   C     0.86840   0.16303   0.59549   0.00000  Uiso   1.00
C925   C     0.79916   0.15407   0.95098   0.00000  Uiso   1.00
C926   C     0.87091   0.16251   0.54923   0.00000  Uiso   1.00
C927   C     0.83578   0.16018   0.97666   0.00000  Uiso   1.00
C928   C     0.83397   0.16016   0.52346   0.00000  Uiso   1.00
C929   C     0.87404   0.16817   0.95569   0.00000  Uiso   1.00
C930   C     0.79508   0.15949   0.54438   0.00000  Uiso   1.00
C931   C     0.76116   0.14740   0.97220   0.00000  Uiso   1.00
C932   C     0.90930   0.16431   0.52808   0.00000  Uiso   1.00
H933   H     0.77449   0.14816   0.88391   0.00000  Uiso   1.00
H934   H     0.89600   0.16231   0.61644   0.00000  Uiso   1.00
H935   H     0.72973   0.14550   0.53388   0.00000  Uiso   1.00
H936   H     0.94057   0.17002   0.96664   0.00000  Uiso   1.00
H937   H     0.83686   0.04178   0.82087   0.00000  Uiso   1.00
H938   H     0.82972   0.29152   0.67914   0.00000  Uiso   1.00
H939   H     0.82986   0.04213   0.67912   0.00000  Uiso   1.00
H940   H     0.83697   0.29120   0.82087   0.00000  Uiso   1.00
N941   N     0.83333   0.28573   0.75000   0.00000  Uiso   1.00
N942   N     0.83333   0.04760   0.75000   0.00000  Uiso   1.00
O943   O     0.77226   0.20487   0.74999   0.00000  Uiso   1.00
O944   O     0.89441   0.12846   0.75000   0.00000  Uiso   1.00
O945   O     0.89441   0.20487   0.75000   0.00000  Uiso   1.00
O946   O     0.77226   0.12846   0.74999   0.00000  Uiso   1.00
O947   O     0.83333   0.20489   0.68392   0.00000  Uiso   1.00
O948   O     0.83334   0.12844   0.81607   0.00000  Uiso   1.00
O949   O     0.83334   0.20489   0.81607   0.00000  Uiso   1.00
O950   O     0.83333   0.12844   0.68392   0.00000  Uiso   1.00
Zn951  Zn    0.83333   0.21771   0.75000   0.00000  Uiso   1.00
Zn952  Zn    0.83333   0.11563   0.75000   0.00000  Uiso   1.00
S953   S     0.91854   0.20462   0.88568   0.00000  Uiso   1.00
O954   O     0.93341   0.24078   0.91765   0.00000  Uiso   1.00
O955   O     0.95264   0.17093   0.87974   0.00000  Uiso   1.00
O956   O     0.90828   0.23001   0.83646   0.00000  Uiso   1.00
H957   H     0.93438   0.24534   0.82827   0.00000  Uiso   1.00
S958   S     0.74586   0.18570   0.61493   0.00000  Uiso   1.00
O959   O     0.72121   0.21308   0.58145   0.00000  Uiso   1.00
O960   O     0.72126   0.14460   0.62818   0.00000  Uiso   1.00
O961   O     0.75428   0.21860   0.65993   0.00000  Uiso   1.00
H962   H     0.72655   0.22900   0.66858   0.00000  Uiso   1.00
Br963  Br    0.71012   0.13623   0.94008   0.00000  Uiso   1.00
Br964  Br    0.96119   0.16432   0.56034   0.00000  Uiso   1.00
S965   S     0.70691   0.07008   0.73564   0.00000  Uiso   1.00
O966   O     0.73171   0.04971   0.77362   0.00000  Uiso   1.00
O967   O     0.67278   0.03785   0.72255   0.00000  Uiso   1.00
O968   O     0.73724   0.07646   0.69085   0.00000  Uiso   1.00
H969   H     0.74485   0.04519   0.68220   0.00000  Uiso   1.00
S970   S     0.95935   0.25211   0.70910   0.00000  Uiso   1.00
O971   O     0.93638   0.28450   0.73835   0.00000  Uiso   1.00
O972   O     0.99365   0.27729   0.68642   0.00000  Uiso   1.00
O973   O     0.92702   0.23142   0.66939   0.00000  Uiso   1.00
H974   H     0.91308   0.25839   0.65639   0.00000  Uiso   1.00
S975   S     0.95613   0.08077   0.79617   0.00000  Uiso   1.00
O976   O     0.93478   0.04751   0.76540   0.00000  Uiso   1.00
O977   O     0.98911   0.05655   0.82283   0.00000  Uiso   1.00
O978   O     0.92125   0.10100   0.83195   0.00000  Uiso   1.00
H979   H     0.91105   0.07402   0.84837   0.00000  Uiso   1.00
S980   S     0.70764   0.25835   0.77935   0.00000  Uiso   1.00
O981   O     0.73104   0.28492   0.74489   0.00000  Uiso   1.00
O982   O     0.67328   0.28719   0.79667   0.00000  Uiso   1.00
O983   O     0.73946   0.24525   0.82257   0.00000  Uiso   1.00
H984   H     0.75208   0.27453   0.83184   0.00000  Uiso   1.00
C985   C     0.08650   0.49973   0.75109   0.00000  Uiso   1.00
C986   C     0.24669   0.50000   0.75039   0.00000  Uiso   1.00
C987   C     0.09268   0.48402   0.51849   0.00000  Uiso   1.00
C988   C     0.24390   0.50131   0.98179   0.00000  Uiso   1.00
C989   C     0.01987   0.45715   0.75290   0.00000  Uiso   1.00
C990   C     0.31290   0.53979   0.74229   0.00000  Uiso   1.00
C991   C     0.31187   0.45931   0.76402   0.00000  Uiso   1.00
C992   C     0.02065   0.54075   0.75487   0.00000  Uiso   1.00
C993   C     0.29075   0.49973   0.75219   0.00000  Uiso   1.00
C994   C     0.04218   0.49903   0.75314   0.00000  Uiso   1.00
C995   C     0.16861   0.35720   0.78934   0.00000  Uiso   1.00
C996   C     0.16471   0.64279   0.71066   0.00000  Uiso   1.00
C997   C     0.16478   0.35739   0.71066   0.00000  Uiso   1.00
C998   C     0.16867   0.64260   0.78934   0.00000  Uiso   1.00
C999   C     0.16406   0.50009   0.66349   0.00000  Uiso   1.00
C1000  C     0.17049   0.50010   0.83641   0.00000  Uiso   1.00
C1001  C     0.20792   0.51006   0.90935   0.00000  Uiso   1.00
C1002  C     0.12647   0.50139   0.59055   0.00000  Uiso   1.00
C1003  C     0.17163   0.50012   0.88427   0.00000  Uiso   1.00
C1004  C     0.16360   0.50009   0.61568   0.00000  Uiso   1.00
C1005  C     0.13490   0.48815   0.90473   0.00000  Uiso   1.00
C1006  C     0.20173   0.49636   0.59549   0.00000  Uiso   1.00
C1007  C     0.13249   0.48740   0.95098   0.00000  Uiso   1.00
C1008  C     0.20425   0.49584   0.54923   0.00000  Uiso   1.00
C1009  C     0.16912   0.49351   0.97666   0.00000  Uiso   1.00
C1010  C     0.16730   0.49349   0.52346   0.00000  Uiso   1.00
C1011  C     0.20737   0.50150   0.95569   0.00000  Uiso   1.00
C1012  C     0.12841   0.49283   0.54438   0.00000  Uiso   1.00
C1013  C     0.09450   0.48074   0.97220   0.00000  Uiso   1.00
C1014  C     0.24264   0.49764   0.52808   0.00000  Uiso   1.00
H1015  H     0.10783   0.48149   0.88391   0.00000  Uiso   1.00
H1016  H     0.22934   0.49564   0.61644   0.00000  Uiso   1.00
H1017  H     0.06306   0.47883   0.53388   0.00000  Uiso   1.00
H1018  H     0.27390   0.50335   0.96664   0.00000  Uiso   1.00
H1019  H     0.17019   0.37512   0.82087   0.00000  Uiso   1.00
H1020  H     0.16305   0.62486   0.67914   0.00000  Uiso   1.00
H1021  H     0.16319   0.37546   0.67912   0.00000  Uiso   1.00
H1022  H     0.17030   0.62453   0.82087   0.00000  Uiso   1.00
N1023  N     0.16667   0.61907   0.75000   0.00000  Uiso   1.00
N1024  N     0.16667   0.38093   0.75000   0.00000  Uiso   1.00
O1025  O     0.10559   0.53821   0.74999   0.00000  Uiso   1.00
O1026  O     0.22774   0.46179   0.75000   0.00000  Uiso   1.00
O1027  O     0.22774   0.53821   0.75000   0.00000  Uiso   1.00
O1028  O     0.10559   0.46179   0.74999   0.00000  Uiso   1.00
O1029  O     0.16666   0.53823   0.68392   0.00000  Uiso   1.00
O1030  O     0.16667   0.46177   0.81607   0.00000  Uiso   1.00
O1031  O     0.16667   0.53823   0.81607   0.00000  Uiso   1.00
O1032  O     0.16666   0.46177   0.68392   0.00000  Uiso   1.00
Zn1033 Zn    0.16667   0.55104   0.75000   0.00000  Uiso   1.00
Zn1034 Zn    0.16667   0.44896   0.75000   0.00000  Uiso   1.00
S1035  S     0.25187   0.53796   0.88568   0.00000  Uiso   1.00
O1036  O     0.26675   0.57412   0.91765   0.00000  Uiso   1.00
O1037  O     0.28598   0.50426   0.87974   0.00000  Uiso   1.00
O1038  O     0.24162   0.56334   0.83646   0.00000  Uiso   1.00
H1039  H     0.26771   0.57867   0.82827   0.00000  Uiso   1.00
S1040  S     0.07919   0.51903   0.61493   0.00000  Uiso   1.00
O1041  O     0.05454   0.54641   0.58145   0.00000  Uiso   1.00
O1042  O     0.05459   0.47793   0.62818   0.00000  Uiso   1.00
O1043  O     0.08761   0.55193   0.65993   0.00000  Uiso   1.00
H1044  H     0.05988   0.56233   0.66858   0.00000  Uiso   1.00
Br1045 Br    0.04345   0.46956   0.94008   0.00000  Uiso   1.00
Br1046 Br    0.29453   0.49765   0.56034   0.00000  Uiso   1.00
S1047  S     0.04024   0.40342   0.73564   0.00000  Uiso   1.00
O1048  O     0.06504   0.38304   0.77362   0.00000  Uiso   1.00
O1049  O     0.00611   0.37118   0.72255   0.00000  Uiso   1.00
O1050  O     0.07058   0.40979   0.69085   0.00000  Uiso   1.00
H1051  H     0.07819   0.37852   0.68220   0.00000  Uiso   1.00
S1052  S     0.29268   0.58544   0.70910   0.00000  Uiso   1.00
O1053  O     0.26972   0.61784   0.73835   0.00000  Uiso   1.00
O1054  O     0.32698   0.61063   0.68642   0.00000  Uiso   1.00
O1055  O     0.26036   0.56475   0.66939   0.00000  Uiso   1.00
H1056  H     0.24641   0.59172   0.65639   0.00000  Uiso   1.00
S1057  S     0.28946   0.41410   0.79617   0.00000  Uiso   1.00
O1058  O     0.26811   0.38084   0.76540   0.00000  Uiso   1.00
O1059  O     0.32245   0.38988   0.82283   0.00000  Uiso   1.00
O1060  O     0.25459   0.43434   0.83195   0.00000  Uiso   1.00
H1061  H     0.24438   0.40736   0.84837   0.00000  Uiso   1.00
S1062  S     0.04097   0.59169   0.77935   0.00000  Uiso   1.00
O1063  O     0.06437   0.61826   0.74489   0.00000  Uiso   1.00
O1064  O     0.00662   0.62052   0.79667   0.00000  Uiso   1.00
O1065  O     0.07279   0.57858   0.82257   0.00000  Uiso   1.00
H1066  H     0.08541   0.60786   0.83184   0.00000  Uiso   1.00
C1067  C     0.41984   0.49973   0.75109   0.00000  Uiso   1.00
C1068  C     0.58002   0.50000   0.75039   0.00000  Uiso   1.00
C1069  C     0.42601   0.48402   0.51849   0.00000  Uiso   1.00
C1070  C     0.57723   0.50131   0.98179   0.00000  Uiso   1.00
C1071  C     0.35320   0.45715   0.75290   0.00000  Uiso   1.00
C1072  C     0.64623   0.53979   0.74229   0.00000  Uiso   1.00
C1073  C     0.64520   0.45931   0.76402   0.00000  Uiso   1.00
C1074  C     0.35398   0.54075   0.75487   0.00000  Uiso   1.00
C1075  C     0.62409   0.49973   0.75219   0.00000  Uiso   1.00
C1076  C     0.37551   0.49903   0.75314   0.00000  Uiso   1.00
C1077  C     0.50195   0.35720   0.78934   0.00000  Uiso   1.00
C1078  C     0.49804   0.64279   0.71066   0.00000  Uiso   1.00
C1079  C     0.49812   0.35739   0.71066   0.00000  Uiso   1.00
C1080  C     0.50200   0.64260   0.78934   0.00000  Uiso   1.00
C1081  C     0.49739   0.50009   0.66349   0.00000  Uiso   1.00
C1082  C     0.50382   0.50010   0.83641   0.00000  Uiso   1.00
C1083  C     0.54126   0.51006   0.90935   0.00000  Uiso   1.00
C1084  C     0.45980   0.50139   0.59055   0.00000  Uiso   1.00
C1085  C     0.50497   0.50012   0.88427   0.00000  Uiso   1.00
C1086  C     0.49694   0.50009   0.61568   0.00000  Uiso   1.00
C1087  C     0.46823   0.48815   0.90473   0.00000  Uiso   1.00
C1088  C     0.53507   0.49636   0.59549   0.00000  Uiso   1.00
C1089  C     0.46583   0.48740   0.95098   0.00000  Uiso   1.00
C1090  C     0.53758   0.49584   0.54923   0.00000  Uiso   1.00
C1091  C     0.50245   0.49351   0.97666   0.00000  Uiso   1.00
C1092  C     0.50064   0.49349   0.52346   0.00000  Uiso   1.00
C1093  C     0.54070   0.50150   0.95569   0.00000  Uiso   1.00
C1094  C     0.46174   0.49283   0.54438   0.00000  Uiso   1.00
C1095  C     0.42783   0.48074   0.97220   0.00000  Uiso   1.00
C1096  C     0.57597   0.49764   0.52808   0.00000  Uiso   1.00
H1097  H     0.44116   0.48149   0.88391   0.00000  Uiso   1.00
H1098  H     0.56267   0.49564   0.61644   0.00000  Uiso   1.00
H1099  H     0.39640   0.47883   0.53388   0.00000  Uiso   1.00
H1100  H     0.60724   0.50335   0.96664   0.00000  Uiso   1.00
H1101  H     0.50353   0.37512   0.82087   0.00000  Uiso   1.00
H1102  H     0.49638   0.62486   0.67914   0.00000  Uiso   1.00
H1103  H     0.49652   0.37546   0.67912   0.00000  Uiso   1.00
H1104  H     0.50364   0.62453   0.82087   0.00000  Uiso   1.00
N1105  N     0.50000   0.61907   0.75000   0.00000  Uiso   1.00
N1106  N     0.50000   0.38093   0.75000   0.00000  Uiso   1.00
O1107  O     0.43892   0.53821   0.74999   0.00000  Uiso   1.00
O1108  O     0.56108   0.46179   0.75000   0.00000  Uiso   1.00
O1109  O     0.56108   0.53821   0.75000   0.00000  Uiso   1.00
O1110  O     0.43892   0.46179   0.74999   0.00000  Uiso   1.00
O1111  O     0.49999   0.53823   0.68392   0.00000  Uiso   1.00
O1112  O     0.50001   0.46177   0.81607   0.00000  Uiso   1.00
O1113  O     0.50001   0.53823   0.81607   0.00000  Uiso   1.00
O1114  O     0.49999   0.46177   0.68392   0.00000  Uiso   1.00
Zn1115 Zn    0.50000   0.55104   0.75000   0.00000  Uiso   1.00
Zn1116 Zn    0.50000   0.44896   0.75000   0.00000  Uiso   1.00
S1117  S     0.58520   0.53796   0.88568   0.00000  Uiso   1.00
O1118  O     0.60008   0.57412   0.91765   0.00000  Uiso   1.00
O1119  O     0.61931   0.50426   0.87974   0.00000  Uiso   1.00
O1120  O     0.57495   0.56334   0.83646   0.00000  Uiso   1.00
H1121  H     0.60105   0.57867   0.82827   0.00000  Uiso   1.00
S1122  S     0.41252   0.51903   0.61493   0.00000  Uiso   1.00
O1123  O     0.38787   0.54641   0.58145   0.00000  Uiso   1.00
O1124  O     0.38793   0.47793   0.62818   0.00000  Uiso   1.00
O1125  O     0.42094   0.55193   0.65993   0.00000  Uiso   1.00
H1126  H     0.39321   0.56233   0.66858   0.00000  Uiso   1.00
Br1127 Br    0.37679   0.46956   0.94008   0.00000  Uiso   1.00
Br1128 Br    0.62786   0.49765   0.56034   0.00000  Uiso   1.00
S1129  S     0.37358   0.40342   0.73564   0.00000  Uiso   1.00
O1130  O     0.39837   0.38304   0.77362   0.00000  Uiso   1.00
O1131  O     0.33945   0.37118   0.72255   0.00000  Uiso   1.00
O1132  O     0.40391   0.40979   0.69085   0.00000  Uiso   1.00
H1133  H     0.41152   0.37852   0.68220   0.00000  Uiso   1.00
S1134  S     0.62602   0.58544   0.70910   0.00000  Uiso   1.00
O1135  O     0.60305   0.61784   0.73835   0.00000  Uiso   1.00
O1136  O     0.66031   0.61063   0.68642   0.00000  Uiso   1.00
O1137  O     0.59369   0.56475   0.66939   0.00000  Uiso   1.00
H1138  H     0.57975   0.59172   0.65639   0.00000  Uiso   1.00
S1139  S     0.62280   0.41410   0.79617   0.00000  Uiso   1.00
O1140  O     0.60145   0.38084   0.76540   0.00000  Uiso   1.00
O1141  O     0.65578   0.38988   0.82283   0.00000  Uiso   1.00
O1142  O     0.58792   0.43434   0.83195   0.00000  Uiso   1.00
H1143  H     0.57771   0.40736   0.84837   0.00000  Uiso   1.00
S1144  S     0.37431   0.59169   0.77935   0.00000  Uiso   1.00
O1145  O     0.39771   0.61826   0.74489   0.00000  Uiso   1.00
O1146  O     0.33995   0.62052   0.79667   0.00000  Uiso   1.00
O1147  O     0.40612   0.57858   0.82257   0.00000  Uiso   1.00
H1148  H     0.41875   0.60786   0.83184   0.00000  Uiso   1.00
C1149  C     0.75317   0.49973   0.75109   0.00000  Uiso   1.00
C1150  C     0.91336   0.50000   0.75039   0.00000  Uiso   1.00
C1151  C     0.75935   0.48402   0.51849   0.00000  Uiso   1.00
C1152  C     0.91056   0.50131   0.98179   0.00000  Uiso   1.00
C1153  C     0.68654   0.45715   0.75290   0.00000  Uiso   1.00
C1154  C     0.97957   0.53979   0.74229   0.00000  Uiso   1.00
C1155  C     0.97854   0.45931   0.76402   0.00000  Uiso   1.00
C1156  C     0.68731   0.54075   0.75487   0.00000  Uiso   1.00
C1157  C     0.95742   0.49973   0.75219   0.00000  Uiso   1.00
C1158  C     0.70885   0.49903   0.75314   0.00000  Uiso   1.00
C1159  C     0.83528   0.35720   0.78934   0.00000  Uiso   1.00
C1160  C     0.83137   0.64279   0.71066   0.00000  Uiso   1.00
C1161  C     0.83145   0.35739   0.71066   0.00000  Uiso   1.00
C1162  C     0.83534   0.64260   0.78934   0.00000  Uiso   1.00
C1163  C     0.83072   0.50009   0.66349   0.00000  Uiso   1.00
C1164  C     0.83715   0.50010   0.83641   0.00000  Uiso   1.00
C1165  C     0.87459   0.51006   0.90935   0.00000  Uiso   1.00
C1166  C     0.79314   0.50139   0.59055   0.00000  Uiso   1.00
C1167  C     0.83830   0.50012   0.88427   0.00000  Uiso   1.00
C1168  C     0.83027   0.50009   0.61568   0.00000  Uiso   1.00
C1169  C     0.80156   0.48815   0.90473   0.00000  Uiso   1.00
C1170  C     0.86840   0.49636   0.59549   0.00000  Uiso   1.00
C1171  C     0.79916   0.48740   0.95098   0.00000  Uiso   1.00
C1172  C     0.87091   0.49584   0.54923   0.00000  Uiso   1.00
C1173  C     0.83578   0.49351   0.97666   0.00000  Uiso   1.00
C1174  C     0.83397   0.49349   0.52346   0.00000  Uiso   1.00
C1175  C     0.87404   0.50150   0.95569   0.00000  Uiso   1.00
C1176  C     0.79508   0.49283   0.54438   0.00000  Uiso   1.00
C1177  C     0.76116   0.48074   0.97220   0.00000  Uiso   1.00
C1178  C     0.90930   0.49764   0.52808   0.00000  Uiso   1.00
H1179  H     0.77449   0.48149   0.88391   0.00000  Uiso   1.00
H1180  H     0.89600   0.49564   0.61644   0.00000  Uiso   1.00
H1181  H     0.72973   0.47883   0.53388   0.00000  Uiso   1.00
H1182  H     0.94057   0.50335   0.96664   0.00000  Uiso   1.00
H1183  H     0.83686   0.37512   0.82087   0.00000  Uiso   1.00
H1184  H     0.82972   0.62486   0.67914   0.00000  Uiso   1.00
H1185  H     0.82986   0.37546   0.67912   0.00000  Uiso   1.00
H1186  H     0.83697   0.62453   0.82087   0.00000  Uiso   1.00
N1187  N     0.83333   0.61907   0.75000   0.00000  Uiso   1.00
N1188  N     0.83333   0.38093   0.75000   0.00000  Uiso   1.00
O1189  O     0.77226   0.53821   0.74999   0.00000  Uiso   1.00
O1190  O     0.89441   0.46179   0.75000   0.00000  Uiso   1.00
O1191  O     0.89441   0.53821   0.75000   0.00000  Uiso   1.00
O1192  O     0.77226   0.46179   0.74999   0.00000  Uiso   1.00
O1193  O     0.83333   0.53823   0.68392   0.00000  Uiso   1.00
O1194  O     0.83334   0.46177   0.81607   0.00000  Uiso   1.00
O1195  O     0.83334   0.53823   0.81607   0.00000  Uiso   1.00
O1196  O     0.83333   0.46177   0.68392   0.00000  Uiso   1.00
Zn1197 Zn    0.83333   0.55104   0.75000   0.00000  Uiso   1.00
Zn1198 Zn    0.83333   0.44896   0.75000   0.00000  Uiso   1.00
S1199  S     0.91854   0.53796   0.88568   0.00000  Uiso   1.00
O1200  O     0.93341   0.57412   0.91765   0.00000  Uiso   1.00
O1201  O     0.95264   0.50426   0.87974   0.00000  Uiso   1.00
O1202  O     0.90828   0.56334   0.83646   0.00000  Uiso   1.00
H1203  H     0.93438   0.57867   0.82827   0.00000  Uiso   1.00
S1204  S     0.74586   0.51903   0.61493   0.00000  Uiso   1.00
O1205  O     0.72121   0.54641   0.58145   0.00000  Uiso   1.00
O1206  O     0.72126   0.47793   0.62818   0.00000  Uiso   1.00
O1207  O     0.75428   0.55193   0.65993   0.00000  Uiso   1.00
H1208  H     0.72655   0.56233   0.66858   0.00000  Uiso   1.00
Br1209 Br    0.71012   0.46956   0.94008   0.00000  Uiso   1.00
Br1210 Br    0.96119   0.49765   0.56034   0.00000  Uiso   1.00
S1211  S     0.70691   0.40342   0.73564   0.00000  Uiso   1.00
O1212  O     0.73171   0.38304   0.77362   0.00000  Uiso   1.00
O1213  O     0.67278   0.37118   0.72255   0.00000  Uiso   1.00
O1214  O     0.73724   0.40979   0.69085   0.00000  Uiso   1.00
H1215  H     0.74485   0.37852   0.68220   0.00000  Uiso   1.00
S1216  S     0.95935   0.58544   0.70910   0.00000  Uiso   1.00
O1217  O     0.93638   0.61784   0.73835   0.00000  Uiso   1.00
O1218  O     0.99365   0.61063   0.68642   0.00000  Uiso   1.00
O1219  O     0.92702   0.56475   0.66939   0.00000  Uiso   1.00
H1220  H     0.91308   0.59172   0.65639   0.00000  Uiso   1.00
S1221  S     0.95613   0.41410   0.79617   0.00000  Uiso   1.00
O1222  O     0.93478   0.38084   0.76540   0.00000  Uiso   1.00
O1223  O     0.98911   0.38988   0.82283   0.00000  Uiso   1.00
O1224  O     0.92125   0.43434   0.83195   0.00000  Uiso   1.00
H1225  H     0.91105   0.40736   0.84837   0.00000  Uiso   1.00
S1226  S     0.70764   0.59169   0.77935   0.00000  Uiso   1.00
O1227  O     0.73104   0.61826   0.74489   0.00000  Uiso   1.00
O1228  O     0.67328   0.62052   0.79667   0.00000  Uiso   1.00
O1229  O     0.73946   0.57858   0.82257   0.00000  Uiso   1.00
H1230  H     0.75208   0.60786   0.83184   0.00000  Uiso   1.00
C1231  C     0.08650   0.83306   0.75109   0.00000  Uiso   1.00
C1232  C     0.24669   0.83333   0.75039   0.00000  Uiso   1.00
C1233  C     0.09268   0.81735   0.51849   0.00000  Uiso   1.00
C1234  C     0.24390   0.83464   0.98179   0.00000  Uiso   1.00
C1235  C     0.01987   0.79049   0.75290   0.00000  Uiso   1.00
C1236  C     0.31290   0.87313   0.74229   0.00000  Uiso   1.00
C1237  C     0.31187   0.79264   0.76402   0.00000  Uiso   1.00
C1238  C     0.02065   0.87408   0.75487   0.00000  Uiso   1.00
C1239  C     0.29075   0.83306   0.75219   0.00000  Uiso   1.00
C1240  C     0.04218   0.83237   0.75314   0.00000  Uiso   1.00
C1241  C     0.16861   0.69053   0.78934   0.00000  Uiso   1.00
C1242  C     0.16471   0.97612   0.71066   0.00000  Uiso   1.00
C1243  C     0.16478   0.69073   0.71066   0.00000  Uiso   1.00
C1244  C     0.16867   0.97593   0.78934   0.00000  Uiso   1.00
C1245  C     0.16406   0.83342   0.66349   0.00000  Uiso   1.00
C1246  C     0.17049   0.83344   0.83641   0.00000  Uiso   1.00
C1247  C     0.20792   0.84340   0.90935   0.00000  Uiso   1.00
C1248  C     0.12647   0.83472   0.59055   0.00000  Uiso   1.00
C1249  C     0.17163   0.83345   0.88427   0.00000  Uiso   1.00
C1250  C     0.16360   0.83342   0.61568   0.00000  Uiso   1.00
C1251  C     0.13490   0.82148   0.90473   0.00000  Uiso   1.00
C1252  C     0.20173   0.82969   0.59549   0.00000  Uiso   1.00
C1253  C     0.13249   0.82073   0.95098   0.00000  Uiso   1.00
C1254  C     0.20425   0.82918   0.54923   0.00000  Uiso   1.00
C1255  C     0.16912   0.82685   0.97666   0.00000  Uiso   1.00
C1256  C     0.16730   0.82683   0.52346   0.00000  Uiso   1.00
C1257  C     0.20737   0.83484   0.95569   0.00000  Uiso   1.00
C1258  C     0.12841   0.82616   0.54438   0.00000  Uiso   1.00
C1259  C     0.09450   0.81407   0.97220   0.00000  Uiso   1.00
C1260  C     0.24264   0.83097   0.52808   0.00000  Uiso   1.00
H1261  H     0.10783   0.81482   0.88391   0.00000  Uiso   1.00
H1262  H     0.22934   0.82897   0.61644   0.00000  Uiso   1.00
H1263  H     0.06306   0.81216   0.53388   0.00000  Uiso   1.00
H1264  H     0.27390   0.83668   0.96664   0.00000  Uiso   1.00
H1265  H     0.17019   0.70845   0.82087   0.00000  Uiso   1.00
H1266  H     0.16305   0.95819   0.67914   0.00000  Uiso   1.00
H1267  H     0.16319   0.70879   0.67912   0.00000  Uiso   1.00
H1268  H     0.17030   0.95787   0.82087   0.00000  Uiso   1.00
N1269  N     0.16667   0.95240   0.75000   0.00000  Uiso   1.00
N1270  N     0.16667   0.71427   0.75000   0.00000  Uiso   1.00
O1271  O     0.10559   0.87154   0.74999   0.00000  Uiso   1.00
O1272  O     0.22774   0.79513   0.75000   0.00000  Uiso   1.00
O1273  O     0.22774   0.87154   0.75000   0.00000  Uiso   1.00
O1274  O     0.10559   0.79513   0.74999   0.00000  Uiso   1.00
O1275  O     0.16666   0.87156   0.68392   0.00000  Uiso   1.00
O1276  O     0.16667   0.79511   0.81607   0.00000  Uiso   1.00
O1277  O     0.16667   0.87156   0.81607   0.00000  Uiso   1.00
O1278  O     0.16666   0.79511   0.68392   0.00000  Uiso   1.00
Zn1279 Zn    0.16667   0.88437   0.75000   0.00000  Uiso   1.00
Zn1280 Zn    0.16667   0.78229   0.75000   0.00000  Uiso   1.00
S1281  S     0.25187   0.87129   0.88568   0.00000  Uiso   1.00
O1282  O     0.26675   0.90745   0.91765   0.00000  Uiso   1.00
O1283  O     0.28598   0.83759   0.87974   0.00000  Uiso   1.00
O1284  O     0.24162   0.89667   0.83646   0.00000  Uiso   1.00
H1285  H     0.26771   0.91200   0.82827   0.00000  Uiso   1.00
S1286  S     0.07919   0.85237   0.61493   0.00000  Uiso   1.00
O1287  O     0.05454   0.87975   0.58145   0.00000  Uiso   1.00
O1288  O     0.05459   0.81127   0.62818   0.00000  Uiso   1.00
O1289  O     0.08761   0.88527   0.65993   0.00000  Uiso   1.00
H1290  H     0.05988   0.89566   0.66858   0.00000  Uiso   1.00
Br1291 Br    0.04345   0.80290   0.94008   0.00000  Uiso   1.00
Br1292 Br    0.29453   0.83098   0.56034   0.00000  Uiso   1.00
S1293  S     0.04024   0.73675   0.73564   0.00000  Uiso   1.00
O1294  O     0.06504   0.71638   0.77362   0.00000  Uiso   1.00
O1295  O     0.00611   0.70451   0.72255   0.00000  Uiso   1.00
O1296  O     0.07058   0.74313   0.69085   0.00000  Uiso   1.00
H1297  H     0.07819   0.71185   0.68220   0.00000  Uiso   1.00
S1298  S     0.29268   0.91878   0.70910   0.00000  Uiso   1.00
O1299  O     0.26972   0.95117   0.73835   0.00000  Uiso   1.00
O1300  O     0.32698   0.94396   0.68642   0.00000  Uiso   1.00
O1301  O     0.26036   0.89808   0.66939   0.00000  Uiso   1.00
H1302  H     0.24641   0.92506   0.65639   0.00000  Uiso   1.00
S1303  S     0.28946   0.74744   0.79617   0.00000  Uiso   1.00
O1304  O     0.26811   0.71418   0.76540   0.00000  Uiso   1.00
O1305  O     0.32245   0.72321   0.82283   0.00000  Uiso   1.00
O1306  O     0.25459   0.76767   0.83195   0.00000  Uiso   1.00
H1307  H     0.24438   0.74069   0.84837   0.00000  Uiso   1.00
S1308  S     0.04097   0.92502   0.77935   0.00000  Uiso   1.00
O1309  O     0.06437   0.95159   0.74489   0.00000  Uiso   1.00
O1310  O     0.00662   0.95386   0.79667   0.00000  Uiso   1.00
O1311  O     0.07279   0.91191   0.82257   0.00000  Uiso   1.00
H1312  H     0.08541   0.94119   0.83184   0.00000  Uiso   1.00
C1313  C     0.41984   0.83306   0.75109   0.00000  Uiso   1.00
C1314  C     0.58002   0.83333   0.75039   0.00000  Uiso   1.00
C1315  C     0.42601   0.81735   0.51849   0.00000  Uiso   1.00
C1316  C     0.57723   0.83464   0.98179   0.00000  Uiso   1.00
C1317  C     0.35320   0.79049   0.75290   0.00000  Uiso   1.00
C1318  C     0.64623   0.87313   0.74229   0.00000  Uiso   1.00
C1319  C     0.64520   0.79264   0.76402   0.00000  Uiso   1.00
C1320  C     0.35398   0.87408   0.75487   0.00000  Uiso   1.00
C1321  C     0.62409   0.83306   0.75219   0.00000  Uiso   1.00
C1322  C     0.37551   0.83237   0.75314   0.00000  Uiso   1.00
C1323  C     0.50195   0.69053   0.78934   0.00000  Uiso   1.00
C1324  C     0.49804   0.97612   0.71066   0.00000  Uiso   1.00
C1325  C     0.49812   0.69073   0.71066   0.00000  Uiso   1.00
C1326  C     0.50200   0.97593   0.78934   0.00000  Uiso   1.00
C1327  C     0.49739   0.83342   0.66349   0.00000  Uiso   1.00
C1328  C     0.50382   0.83344   0.83641   0.00000  Uiso   1.00
C1329  C     0.54126   0.84340   0.90935   0.00000  Uiso   1.00
C1330  C     0.45980   0.83472   0.59055   0.00000  Uiso   1.00
C1331  C     0.50497   0.83345   0.88427   0.00000  Uiso   1.00
C1332  C     0.49694   0.83342   0.61568   0.00000  Uiso   1.00
C1333  C     0.46823   0.82148   0.90473   0.00000  Uiso   1.00
C1334  C     0.53507   0.82969   0.59549   0.00000  Uiso   1.00
C1335  C     0.46583   0.82073   0.95098   0.00000  Uiso   1.00
C1336  C     0.53758   0.82918   0.54923   0.00000  Uiso   1.00
C1337  C     0.50245   0.82685   0.97666   0.00000  Uiso   1.00
C1338  C     0.50064   0.82683   0.52346   0.00000  Uiso   1.00
C1339  C     0.54070   0.83484   0.95569   0.00000  Uiso   1.00
C1340  C     0.46174   0.82616   0.54438   0.00000  Uiso   1.00
C1341  C     0.42783   0.81407   0.97220   0.00000  Uiso   1.00
C1342  C     0.57597   0.83097   0.52808   0.00000  Uiso   1.00
H1343  H     0.44116   0.81482   0.88391   0.00000  Uiso   1.00
H1344  H     0.56267   0.82897   0.61644   0.00000  Uiso   1.00
H1345  H     0.39640   0.81216   0.53388   0.00000  Uiso   1.00
H1346  H     0.60724   0.83668   0.96664   0.00000  Uiso   1.00
H1347  H     0.50353   0.70845   0.82087   0.00000  Uiso   1.00
H1348  H     0.49638   0.95819   0.67914   0.00000  Uiso   1.00
H1349  H     0.49652   0.70879   0.67912   0.00000  Uiso   1.00
H1350  H     0.50364   0.95787   0.82087   0.00000  Uiso   1.00
N1351  N     0.50000   0.95240   0.75000   0.00000  Uiso   1.00
N1352  N     0.50000   0.71427   0.75000   0.00000  Uiso   1.00
O1353  O     0.43892   0.87154   0.74999   0.00000  Uiso   1.00
O1354  O     0.56108   0.79513   0.75000   0.00000  Uiso   1.00
O1355  O     0.56108   0.87154   0.75000   0.00000  Uiso   1.00
O1356  O     0.43892   0.79513   0.74999   0.00000  Uiso   1.00
O1357  O     0.49999   0.87156   0.68392   0.00000  Uiso   1.00
O1358  O     0.50001   0.79511   0.81607   0.00000  Uiso   1.00
O1359  O     0.50001   0.87156   0.81607   0.00000  Uiso   1.00
O1360  O     0.49999   0.79511   0.68392   0.00000  Uiso   1.00
Zn1361 Zn    0.50000   0.88437   0.75000   0.00000  Uiso   1.00
Zn1362 Zn    0.50000   0.78229   0.75000   0.00000  Uiso   1.00
S1363  S     0.58520   0.87129   0.88568   0.00000  Uiso   1.00
O1364  O     0.60008   0.90745   0.91765   0.00000  Uiso   1.00
O1365  O     0.61931   0.83759   0.87974   0.00000  Uiso   1.00
O1366  O     0.57495   0.89667   0.83646   0.00000  Uiso   1.00
H1367  H     0.60105   0.91200   0.82827   0.00000  Uiso   1.00
S1368  S     0.41252   0.85237   0.61493   0.00000  Uiso   1.00
O1369  O     0.38787   0.87975   0.58145   0.00000  Uiso   1.00
O1370  O     0.38793   0.81127   0.62818   0.00000  Uiso   1.00
O1371  O     0.42094   0.88527   0.65993   0.00000  Uiso   1.00
H1372  H     0.39321   0.89566   0.66858   0.00000  Uiso   1.00
Br1373 Br    0.37679   0.80290   0.94008   0.00000  Uiso   1.00
Br1374 Br    0.62786   0.83098   0.56034   0.00000  Uiso   1.00
S1375  S     0.37358   0.73675   0.73564   0.00000  Uiso   1.00
O1376  O     0.39837   0.71638   0.77362   0.00000  Uiso   1.00
O1377  O     0.33945   0.70451   0.72255   0.00000  Uiso   1.00
O1378  O     0.40391   0.74313   0.69085   0.00000  Uiso   1.00
H1379  H     0.41152   0.71185   0.68220   0.00000  Uiso   1.00
S1380  S     0.62602   0.91878   0.70910   0.00000  Uiso   1.00
O1381  O     0.60305   0.95117   0.73835   0.00000  Uiso   1.00
O1382  O     0.66031   0.94396   0.68642   0.00000  Uiso   1.00
O1383  O     0.59369   0.89808   0.66939   0.00000  Uiso   1.00
H1384  H     0.57975   0.92506   0.65639   0.00000  Uiso   1.00
S1385  S     0.62280   0.74744   0.79617   0.00000  Uiso   1.00
O1386  O     0.60145   0.71418   0.76540   0.00000  Uiso   1.00
O1387  O     0.65578   0.72321   0.82283   0.00000  Uiso   1.00
O1388  O     0.58792   0.76767   0.83195   0.00000  Uiso   1.00
H1389  H     0.57771   0.74069   0.84837   0.00000  Uiso   1.00
S1390  S     0.37431   0.92502   0.77935   0.00000  Uiso   1.00
O1391  O     0.39771   0.95159   0.74489   0.00000  Uiso   1.00
O1392  O     0.33995   0.95386   0.79667   0.00000  Uiso   1.00
O1393  O     0.40612   0.91191   0.82257   0.00000  Uiso   1.00
H1394  H     0.41875   0.94119   0.83184   0.00000  Uiso   1.00
C1395  C     0.75317   0.83306   0.75109   0.00000  Uiso   1.00
C1396  C     0.91336   0.83333   0.75039   0.00000  Uiso   1.00
C1397  C     0.75935   0.81735   0.51849   0.00000  Uiso   1.00
C1398  C     0.91056   0.83464   0.98179   0.00000  Uiso   1.00
C1399  C     0.68654   0.79049   0.75290   0.00000  Uiso   1.00
C1400  C     0.97957   0.87313   0.74229   0.00000  Uiso   1.00
C1401  C     0.97854   0.79264   0.76402   0.00000  Uiso   1.00
C1402  C     0.68731   0.87408   0.75487   0.00000  Uiso   1.00
C1403  C     0.95742   0.83306   0.75219   0.00000  Uiso   1.00
C1404  C     0.70885   0.83237   0.75314   0.00000  Uiso   1.00
C1405  C     0.83528   0.69053   0.78934   0.00000  Uiso   1.00
C1406  C     0.83137   0.97612   0.71066   0.00000  Uiso   1.00
C1407  C     0.83145   0.69073   0.71066   0.00000  Uiso   1.00
C1408  C     0.83534   0.97593   0.78934   0.00000  Uiso   1.00
C1409  C     0.83072   0.83342   0.66349   0.00000  Uiso   1.00
C1410  C     0.83715   0.83344   0.83641   0.00000  Uiso   1.00
C1411  C     0.87459   0.84340   0.90935   0.00000  Uiso   1.00
C1412  C     0.79314   0.83472   0.59055   0.00000  Uiso   1.00
C1413  C     0.83830   0.83345   0.88427   0.00000  Uiso   1.00
C1414  C     0.83027   0.83342   0.61568   0.00000  Uiso   1.00
C1415  C     0.80156   0.82148   0.90473   0.00000  Uiso   1.00
C1416  C     0.86840   0.82969   0.59549   0.00000  Uiso   1.00
C1417  C     0.79916   0.82073   0.95098   0.00000  Uiso   1.00
C1418  C     0.87091   0.82918   0.54923   0.00000  Uiso   1.00
C1419  C     0.83578   0.82685   0.97666   0.00000  Uiso   1.00
C1420  C     0.83397   0.82683   0.52346   0.00000  Uiso   1.00
C1421  C     0.87404   0.83484   0.95569   0.00000  Uiso   1.00
C1422  C     0.79508   0.82616   0.54438   0.00000  Uiso   1.00
C1423  C     0.76116   0.81407   0.97220   0.00000  Uiso   1.00
C1424  C     0.90930   0.83097   0.52808   0.00000  Uiso   1.00
H1425  H     0.77449   0.81482   0.88391   0.00000  Uiso   1.00
H1426  H     0.89600   0.82897   0.61644   0.00000  Uiso   1.00
H1427  H     0.72973   0.81216   0.53388   0.00000  Uiso   1.00
H1428  H     0.94057   0.83668   0.96664   0.00000  Uiso   1.00
H1429  H     0.83686   0.70845   0.82087   0.00000  Uiso   1.00
H1430  H     0.82972   0.95819   0.67914   0.00000  Uiso   1.00
H1431  H     0.82986   0.70879   0.67912   0.00000  Uiso   1.00
H1432  H     0.83697   0.95787   0.82087   0.00000  Uiso   1.00
N1433  N     0.83333   0.95240   0.75000   0.00000  Uiso   1.00
N1434  N     0.83333   0.71427   0.75000   0.00000  Uiso   1.00
O1435  O     0.77226   0.87154   0.74999   0.00000  Uiso   1.00
O1436  O     0.89441   0.79513   0.75000   0.00000  Uiso   1.00
O1437  O     0.89441   0.87154   0.75000   0.00000  Uiso   1.00
O1438  O     0.77226   0.79513   0.74999   0.00000  Uiso   1.00
O1439  O     0.83333   0.87156   0.68392   0.00000  Uiso   1.00
O1440  O     0.83334   0.79511   0.81607   0.00000  Uiso   1.00
O1441  O     0.83334   0.87156   0.81607   0.00000  Uiso   1.00
O1442  O     0.83333   0.79511   0.68392   0.00000  Uiso   1.00
Zn1443 Zn    0.83333   0.88437   0.75000   0.00000  Uiso   1.00
Zn1444 Zn    0.83333   0.78229   0.75000   0.00000  Uiso   1.00
S1445  S     0.91854   0.87129   0.88568   0.00000  Uiso   1.00
O1446  O     0.93341   0.90745   0.91765   0.00000  Uiso   1.00
O1447  O     0.95264   0.83759   0.87974   0.00000  Uiso   1.00
O1448  O     0.90828   0.89667   0.83646   0.00000  Uiso   1.00
H1449  H     0.93438   0.91200   0.82827   0.00000  Uiso   1.00
S1450  S     0.74586   0.85237   0.61493   0.00000  Uiso   1.00
O1451  O     0.72121   0.87975   0.58145   0.00000  Uiso   1.00
O1452  O     0.72126   0.81127   0.62818   0.00000  Uiso   1.00
O1453  O     0.75428   0.88527   0.65993   0.00000  Uiso   1.00
H1454  H     0.72655   0.89566   0.66858   0.00000  Uiso   1.00
Br1455 Br    0.71012   0.80290   0.94008   0.00000  Uiso   1.00
Br1456 Br    0.96119   0.83098   0.56034   0.00000  Uiso   1.00
S1457  S     0.70691   0.73675   0.73564   0.00000  Uiso   1.00
O1458  O     0.73171   0.71638   0.77362   0.00000  Uiso   1.00
O1459  O     0.67278   0.70451   0.72255   0.00000  Uiso   1.00
O1460  O     0.73724   0.74313   0.69085   0.00000  Uiso   1.00
H1461  H     0.74485   0.71185   0.68220   0.00000  Uiso   1.00
S1462  S     0.95935   0.91878   0.70910   0.00000  Uiso   1.00
O1463  O     0.93638   0.95117   0.73835   0.00000  Uiso   1.00
O1464  O     0.99365   0.94396   0.68642   0.00000  Uiso   1.00
O1465  O     0.92702   0.89808   0.66939   0.00000  Uiso   1.00
H1466  H     0.91308   0.92506   0.65639   0.00000  Uiso   1.00
S1467  S     0.95613   0.74744   0.79617   0.00000  Uiso   1.00
O1468  O     0.93478   0.71418   0.76540   0.00000  Uiso   1.00
O1469  O     0.98911   0.72321   0.82283   0.00000  Uiso   1.00
O1470  O     0.92125   0.76767   0.83195   0.00000  Uiso   1.00
H1471  H     0.91105   0.74069   0.84837   0.00000  Uiso   1.00
S1472  S     0.70764   0.92502   0.77935   0.00000  Uiso   1.00
O1473  O     0.73104   0.95159   0.74489   0.00000  Uiso   1.00
O1474  O     0.67328   0.95386   0.79667   0.00000  Uiso   1.00
O1475  O     0.73946   0.91191   0.82257   0.00000  Uiso   1.00
H1476  H     0.75208   0.94119   0.83184   0.00000  Uiso   1.00
loop_
_geom_bond_atom_site_label_1
_geom_bond_atom_site_label_2
_geom_bond_distance
_geom_bond_site_symmetry_2
_ccdc_geom_bond_type
C1     O44     1.280   .     A
C1     O41     1.288   .     A
C1     C10     1.438   .     S
C2     O43     1.284   .     A
C2     O42     1.279   .     A
C2     C9      1.428   .     S
C3     C28     1.405   .     A
C3     H33     1.081   .     S
C3     C767    1.387   1_554 S
C4     H34     1.080   .     S
C4     C27     1.406   .     A
C4     C768    1.387   .     S
C5     S63     1.797   .     S
C5     C10     1.426   .     A
C5     C171    1.387   1_455 S
C6     C9      1.411   .     A
C6     S68     1.788   .     S
C6     C90     1.377   .     S
C7     S73     1.796   .     S
C7     C9      1.416   .     A
C7     C87     1.387   .     S
C8     S78     1.788   .     S
C8     C10     1.417   .     A
C8     C170    1.377   1_455 S
C11    H35     1.080   .     S
C11    N40     1.365   .     A
C11    C506    1.411   1_545 S
C12    H36     1.080   .     S
C12    N39     1.365   .     A
C12    C259    1.411   .     S
C13    N40     1.366   .     A
C13    H37     1.080   .     S
C13    C504    1.411   1_545 S
C14    N39     1.366   .     A
C14    H38     1.080   .     S
C14    C257    1.411   .     S
C15    O48     1.283   .     A
C15    C20     1.427   .     S
C15    O45     1.281   .     A
C16    C19     1.428   .     S
C16    O47     1.280   .     A
C16    O46     1.287   .     A
C17    S51     1.794   .     S
C17    C27     1.406   .     A
C17    C19     1.413   .     A
C18    S56     1.787   .     S
C18    C28     1.404   .     A
C18    C20     1.408   .     A
C19    C21     1.390   .     A
C20    C22     1.388   .     A
C21    H31     1.084   .     S
C21    C23     1.384   .     A
C22    H32     1.083   .     S
C22    C24     1.385   .     A
C23    C29     1.406   .     A
C23    C25     1.413   .     A
C24    C26     1.413   .     A
C24    C30     1.405   .     A
C25    C27     1.416   .     A
C25    C764    1.399   .     S
C26    C28     1.416   .     A
C26    C763    1.399   1_554 S
C29    Br61    1.925   .     S
C29    C741    1.387   .     S
C30    Br62    1.923   .     S
C30    C742    1.387   1_554 S
N39    Zn49    2.003   .     S
N40    Zn50    2.003   .     S
O41    Zn49    2.013   .     S
O42    Zn50    2.013   .     S
O43    Zn49    2.016   .     S
O44    Zn50    2.016   .     S
O45    Zn49    2.009   .     S
O46    Zn50    2.009   .     S
O47    Zn49    2.007   .     S
O48    Zn50    2.007   .     S
S51    O52     1.504   .     D
S51    O53     1.502   .     D
S51    O54     1.675   .     S
O54    H55     0.990   .     S
S56    O57     1.504   .     D
S56    O59     1.676   .     S
S56    O58     1.501   .     D
O59    H60     0.989   .     S
S63    O65     1.501   .     D
S63    O66     1.682   .     S
S63    O64     1.503   .     D
O66    H67     0.990   .     S
S68    O69     1.503   .     D
S68    O71     1.682   .     S
S68    O70     1.502   .     D
O71    H72     0.991   .     S
S73    O74     1.503   .     D
S73    O75     1.503   .     D
S73    O76     1.680   .     S
O76    H77     0.990   .     S
S78    O80     1.503   .     D
S78    O79     1.503   .     D
S78    O81     1.683   .     S
O81    H82     0.991   .     S
C83    O126    1.280   .     A
C83    O123    1.288   .     A
C83    C92     1.438   .     S
C84    O125    1.284   .     A
C84    O124    1.279   .     A
C84    C91     1.428   .     S
C85    C110    1.405   .     A
C85    H115    1.081   .     S
C85    C849    1.387   1_554 S
C86    H116    1.080   .     S
C86    C109    1.406   .     A
C86    C850    1.387   .     S
C87    S145    1.797   .     S
C87    C92     1.426   .     A
C88    C91     1.411   .     A
C88    S150    1.788   .     S
C88    C172    1.377   .     S
C89    S155    1.796   .     S
C89    C91     1.416   .     A
C89    C169    1.387   .     S
C90    S160    1.788   .     S
C90    C92     1.417   .     A
C93    H117    1.080   .     S
C93    N122    1.365   .     A
C93    C588    1.411   1_545 S
C94    H118    1.080   .     S
C94    N121    1.365   .     A
C94    C341    1.411   .     S
C95    N122    1.366   .     A
C95    H119    1.080   .     S
C95    C586    1.411   1_545 S
C96    N121    1.366   .     A
C96    H120    1.080   .     S
C96    C339    1.411   .     S
C97    O130    1.283   .     A
C97    C102    1.427   .     S
C97    O127    1.281   .     A
C98    C101    1.428   .     S
C98    O129    1.280   .     A
C98    O128    1.287   .     A
C99    S133    1.794   .     S
C99    C109    1.406   .     A
C99    C101    1.413   .     A
C100   S138    1.787   .     S
C100   C110    1.404   .     A
C100   C102    1.408   .     A
C101   C103    1.390   .     A
C102   C104    1.388   .     A
C103   H113    1.084   .     S
C103   C105    1.384   .     A
C104   H114    1.083   .     S
C104   C106    1.385   .     A
C105   C111    1.406   .     A
C105   C107    1.413   .     A
C106   C108    1.413   .     A
C106   C112    1.405   .     A
C107   C109    1.416   .     A
C107   C846    1.399   .     S
C108   C110    1.416   .     A
C108   C845    1.399   1_554 S
C111   Br143   1.925   .     S
C111   C823    1.387   .     S
C112   Br144   1.923   .     S
C112   C824    1.387   1_554 S
N121   Zn131   2.003   .     S
N122   Zn132   2.003   .     S
O123   Zn131   2.013   .     S
O124   Zn132   2.013   .     S
O125   Zn131   2.016   .     S
O126   Zn132   2.016   .     S
O127   Zn131   2.009   .     S
O128   Zn132   2.009   .     S
O129   Zn131   2.007   .     S
O130   Zn132   2.007   .     S
S133   O134    1.504   .     D
S133   O135    1.502   .     D
S133   O136    1.675   .     S
O136   H137    0.990   .     S
S138   O139    1.504   .     D
S138   O141    1.676   .     S
S138   O140    1.501   .     D
O141   H142    0.989   .     S
S145   O147    1.501   .     D
S145   O148    1.682   .     S
S145   O146    1.503   .     D
O148   H149    0.990   .     S
S150   O151    1.503   .     D
S150   O153    1.682   .     S
S150   O152    1.502   .     D
O153   H154    0.991   .     S
S155   O156    1.503   .     D
S155   O157    1.503   .     D
S155   O158    1.680   .     S
O158   H159    0.990   .     S
S160   O162    1.503   .     D
S160   O161    1.503   .     D
S160   O163    1.683   .     S
O163   H164    0.991   .     S
C165   O208    1.280   .     A
C165   O205    1.288   .     A
C165   C174    1.438   .     S
C166   O207    1.284   .     A
C166   O206    1.279   .     A
C166   C173    1.428   .     S
C167   C192    1.405   .     A
C167   H197    1.081   .     S
C167   C931    1.387   1_554 S
C168   H198    1.080   .     S
C168   C191    1.406   .     A
C168   C932    1.387   .     S
C169   S227    1.797   .     S
C169   C174    1.426   .     A
C170   C173    1.411   .     A
C170   S232    1.788   .     S
C170   C8      1.377   1_655 S
C171   S237    1.796   .     S
C171   C173    1.416   .     A
C171   C5      1.387   1_655 S
C172   S242    1.788   .     S
C172   C174    1.417   .     A
C175   H199    1.080   .     S
C175   N204    1.365   .     A
C175   C670    1.411   1_545 S
C176   H200    1.080   .     S
C176   N203    1.365   .     A
C176   C423    1.411   .     S
C177   N204    1.366   .     A
C177   H201    1.080   .     S
C177   C668    1.411   1_545 S
C178   N203    1.366   .     A
C178   H202    1.080   .     S
C178   C421    1.411   .     S
C179   O212    1.283   .     A
C179   C184    1.427   .     S
C179   O209    1.281   .     A
C180   C183    1.428   .     S
C180   O211    1.280   .     A
C180   O210    1.287   .     A
C181   S215    1.794   .     S
C181   C191    1.406   .     A
C181   C183    1.413   .     A
C182   S220    1.787   .     S
C182   C192    1.404   .     A
C182   C184    1.408   .     A
C183   C185    1.390   .     A
C184   C186    1.388   .     A
C185   H195    1.084   .     S
C185   C187    1.384   .     A
C186   H196    1.083   .     S
C186   C188    1.385   .     A
C187   C193    1.406   .     A
C187   C189    1.413   .     A
C188   C190    1.413   .     A
C188   C194    1.405   .     A
C189   C191    1.416   .     A
C189   C928    1.399   .     S
C190   C192    1.416   .     A
C190   C927    1.399   1_554 S
C193   Br225   1.925   .     S
C193   C905    1.387   .     S
C194   Br226   1.923   .     S
C194   C906    1.387   1_554 S
N203   Zn213   2.003   .     S
N204   Zn214   2.003   .     S
O205   Zn213   2.013   .     S
O206   Zn214   2.013   .     S
O207   Zn213   2.016   .     S
O208   Zn214   2.016   .     S
O209   Zn213   2.009   .     S
O210   Zn214   2.009   .     S
O211   Zn213   2.007   .     S
O212   Zn214   2.007   .     S
S215   O216    1.504   .     D
S215   O217    1.502   .     D
S215   O218    1.675   .     S
O218   H219    0.990   .     S
S220   O221    1.504   .     D
S220   O223    1.676   .     S
S220   O222    1.501   .     D
O223   H224    0.989   .     S
S227   O229    1.501   .     D
S227   O230    1.682   .     S
S227   O228    1.503   .     D
O230   H231    0.990   .     S
S232   O233    1.503   .     D
S232   O235    1.682   .     S
S232   O234    1.502   .     D
O235   H236    0.991   .     S
S237   O238    1.503   .     D
S237   O239    1.503   .     D
S237   O240    1.680   .     S
O240   H241    0.990   .     S
S242   O244    1.503   .     D
S242   O243    1.503   .     D
S242   O245    1.683   .     S
O245   H246    0.991   .     S
C247   O290    1.280   .     A
C247   O287    1.288   .     A
C247   C256    1.438   .     S
C248   O289    1.284   .     A
C248   O288    1.279   .     A
C248   C255    1.428   .     S
C249   C274    1.405   .     A
C249   H279    1.081   .     S
C249   C1013   1.387   1_554 S
C250   H280    1.080   .     S
C250   C273    1.406   .     A
C250   C1014   1.387   .     S
C251   S309    1.797   .     S
C251   C256    1.426   .     A
C251   C417    1.387   1_455 S
C252   C255    1.411   .     A
C252   S314    1.788   .     S
C252   C336    1.377   .     S
C253   S319    1.796   .     S
C253   C255    1.416   .     A
C253   C333    1.387   .     S
C254   S324    1.788   .     S
C254   C256    1.417   .     A
C254   C416    1.377   1_455 S
C257   H281    1.080   .     S
C257   N286    1.365   .     A
C258   H282    1.080   .     S
C258   N285    1.365   .     A
C258   C505    1.411   .     S
C259   N286    1.366   .     A
C259   H283    1.080   .     S
C260   N285    1.366   .     A
C260   H284    1.080   .     S
C260   C503    1.411   .     S
C261   O294    1.283   .     A
C261   C266    1.427   .     S
C261   O291    1.281   .     A
C262   C265    1.428   .     S
C262   O293    1.280   .     A
C262   O292    1.287   .     A
C263   S297    1.794   .     S
C263   C273    1.406   .     A
C263   C265    1.413   .     A
C264   S302    1.787   .     S
C264   C274    1.404   .     A
C264   C266    1.408   .     A
C265   C267    1.390   .     A
C266   C268    1.388   .     A
C267   H277    1.084   .     S
C267   C269    1.384   .     A
C268   H278    1.083   .     S
C268   C270    1.385   .     A
C269   C275    1.406   .     A
C269   C271    1.413   .     A
C270   C272    1.413   .     A
C270   C276    1.405   .     A
C271   C273    1.416   .     A
C271   C1010   1.399   .     S
C272   C274    1.416   .     A
C272   C1009   1.399   1_554 S
C275   Br307   1.925   .     S
C275   C987    1.387   .     S
C276   Br308   1.923   .     S
C276   C988    1.387   1_554 S
N285   Zn295   2.003   .     S
N286   Zn296   2.003   .     S
O287   Zn295   2.013   .     S
O288   Zn296   2.013   .     S
O289   Zn295   2.016   .     S
O290   Zn296   2.016   .     S
O291   Zn295   2.009   .     S
O292   Zn296   2.009   .     S
O293   Zn295   2.007   .     S
O294   Zn296   2.007   .     S
S297   O298    1.504   .     D
S297   O299    1.502   .     D
S297   O300    1.675   .     S
O300   H301    0.990   .     S
S302   O303    1.504   .     D
S302   O305    1.676   .     S
S302   O304    1.501   .     D
O305   H306    0.989   .     S
S309   O311    1.501   .     D
S309   O312    1.682   .     S
S309   O310    1.503   .     D
O312   H313    0.990   .     S
S314   O315    1.503   .     D
S314   O317    1.682   .     S
S314   O316    1.502   .     D
O317   H318    0.991   .     S
S319   O320    1.503   .     D
S319   O321    1.503   .     D
S319   O322    1.680   .     S
O322   H323    0.990   .     S
S324   O326    1.503   .     D
S324   O325    1.503   .     D
S324   O327    1.683   .     S
O327   H328    0.991   .     S
C329   O372    1.280   .     A
C329   O369    1.288   .     A
C329   C338    1.438   .     S
C330   O371    1.284   .     A
C330   O370    1.279   .     A
C330   C337    1.428   .     S
C331   C356    1.405   .     A
C331   H361    1.081   .     S
C331   C1095   1.387   1_554 S
C332   H362    1.080   .     S
C332   C355    1.406   .     A
C332   C1096   1.387   .     S
C333   S391    1.797   .     S
C333   C338    1.426   .     A
C334   C337    1.411   .     A
C334   S396    1.788   .     S
C334   C418    1.377   .     S
C335   S401    1.796   .     S
C335   C337    1.416   .     A
C335   C415    1.387   .     S
C336   S406    1.788   .     S
C336   C338    1.417   .     A
C339   H363    1.080   .     S
C339   N368    1.365   .     A
C340   H364    1.080   .     S
C340   N367    1.365   .     A
C340   C587    1.411   .     S
C341   N368    1.366   .     A
C341   H365    1.080   .     S
C342   N367    1.366   .     A
C342   H366    1.080   .     S
C342   C585    1.411   .     S
C343   O376    1.283   .     A
C343   C348    1.427   .     S
C343   O373    1.281   .     A
C344   C347    1.428   .     S
C344   O375    1.280   .     A
C344   O374    1.287   .     A
C345   S379    1.794   .     S
C345   C355    1.406   .     A
C345   C347    1.413   .     A
C346   S384    1.787   .     S
C346   C356    1.404   .     A
C346   C348    1.408   .     A
C347   C349    1.390   .     A
C348   C350    1.388   .     A
C349   H359    1.084   .     S
C349   C351    1.384   .     A
C350   H360    1.083   .     S
C350   C352    1.385   .     A
C351   C357    1.406   .     A
C351   C353    1.413   .     A
C352   C354    1.413   .     A
C352   C358    1.405   .     A
C353   C355    1.416   .     A
C353   C1092   1.399   .     S
C354   C356    1.416   .     A
C354   C1091   1.399   1_554 S
C357   Br389   1.925   .     S
C357   C1069   1.387   .     S
C358   Br390   1.923   .     S
C358   C1070   1.387   1_554 S
N367   Zn377   2.003   .     S
N368   Zn378   2.003   .     S
O369   Zn377   2.013   .     S
O370   Zn378   2.013   .     S
O371   Zn377   2.016   .     S
O372   Zn378   2.016   .     S
O373   Zn377   2.009   .     S
O374   Zn378   2.009   .     S
O375   Zn377   2.007   .     S
O376   Zn378   2.007   .     S
S379   O380    1.504   .     D
S379   O381    1.502   .     D
S379   O382    1.675   .     S
O382   H383    0.990   .     S
S384   O385    1.504   .     D
S384   O387    1.676   .     S
S384   O386    1.501   .     D
O387   H388    0.989   .     S
S391   O393    1.501   .     D
S391   O394    1.682   .     S
S391   O392    1.503   .     D
O394   H395    0.990   .     S
S396   O397    1.503   .     D
S396   O399    1.682   .     S
S396   O398    1.502   .     D
O399   H400    0.991   .     S
S401   O402    1.503   .     D
S401   O403    1.503   .     D
S401   O404    1.680   .     S
O404   H405    0.990   .     S
S406   O408    1.503   .     D
S406   O407    1.503   .     D
S406   O409    1.683   .     S
O409   H410    0.991   .     S
C411   O454    1.280   .     A
C411   O451    1.288   .     A
C411   C420    1.438   .     S
C412   O453    1.284   .     A
C412   O452    1.279   .     A
C412   C419    1.428   .     S
C413   C438    1.405   .     A
C413   H443    1.081   .     S
C413   C1177   1.387   1_554 S
C414   H444    1.080   .     S
C414   C437    1.406   .     A
C414   C1178   1.387   .     S
C415   S473    1.797   .     S
C415   C420    1.426   .     A
C416   C419    1.411   .     A
C416   S478    1.788   .     S
C416   C254    1.377   1_655 S
C417   S483    1.796   .     S
C417   C419    1.416   .     A
C417   C251    1.387   1_655 S
C418   S488    1.788   .     S
C418   C420    1.417   .     A
C421   H445    1.080   .     S
C421   N450    1.365   .     A
C422   H446    1.080   .     S
C422   N449    1.365   .     A
C422   C669    1.411   .     S
C423   N450    1.366   .     A
C423   H447    1.080   .     S
C424   N449    1.366   .     A
C424   H448    1.080   .     S
C424   C667    1.411   .     S
C425   O458    1.283   .     A
C425   C430    1.427   .     S
C425   O455    1.281   .     A
C426   C429    1.428   .     S
C426   O457    1.280   .     A
C426   O456    1.287   .     A
C427   S461    1.794   .     S
C427   C437    1.406   .     A
C427   C429    1.413   .     A
C428   S466    1.787   .     S
C428   C438    1.404   .     A
C428   C430    1.408   .     A
C429   C431    1.390   .     A
C430   C432    1.388   .     A
C431   H441    1.084   .     S
C431   C433    1.384   .     A
C432   H442    1.083   .     S
C432   C434    1.385   .     A
C433   C439    1.406   .     A
C433   C435    1.413   .     A
C434   C436    1.413   .     A
C434   C440    1.405   .     A
C435   C437    1.416   .     A
C435   C1174   1.399   .     S
C436   C438    1.416   .     A
C436   C1173   1.399   1_554 S
C439   Br471   1.925   .     S
C439   C1151   1.387   .     S
C440   Br472   1.923   .     S
C440   C1152   1.387   1_554 S
N449   Zn459   2.003   .     S
N450   Zn460   2.003   .     S
O451   Zn459   2.013   .     S
O452   Zn460   2.013   .     S
O453   Zn459   2.016   .     S
O454   Zn460   2.016   .     S
O455   Zn459   2.009   .     S
O456   Zn460   2.009   .     S
O457   Zn459   2.007   .     S
O458   Zn460   2.007   .     S
S461   O462    1.504   .     D
S461   O463    1.502   .     D
S461   O464    1.675   .     S
O464   H465    0.990   .     S
S466   O467    1.504   .     D
S466   O469    1.676   .     S
S466   O468    1.501   .     D
O469   H470    0.989   .     S
S473   O475    1.501   .     D
S473   O476    1.682   .     S
S473   O474    1.503   .     D
O476   H477    0.990   .     S
S478   O479    1.503   .     D
S478   O481    1.682   .     S
S478   O480    1.502   .     D
O481   H482    0.991   .     S
S483   O484    1.503   .     D
S483   O485    1.503   .     D
S483   O486    1.680   .     S
O486   H487    0.990   .     S
S488   O490    1.503   .     D
S488   O489    1.503   .     D
S488   O491    1.683   .     S
O491   H492    0.991   .     S
C493   O536    1.280   .     A
C493   O533    1.288   .     A
C493   C502    1.438   .     S
C494   O535    1.284   .     A
C494   O534    1.279   .     A
C494   C501    1.428   .     S
C495   C520    1.405   .     A
C495   H525    1.081   .     S
C495   C1259   1.387   1_554 S
C496   H526    1.080   .     S
C496   C519    1.406   .     A
C496   C1260   1.387   .     S
C497   S555    1.797   .     S
C497   C502    1.426   .     A
C497   C663    1.387   1_455 S
C498   C501    1.411   .     A
C498   S560    1.788   .     S
C498   C582    1.377   .     S
C499   S565    1.796   .     S
C499   C501    1.416   .     A
C499   C579    1.387   .     S
C500   S570    1.788   .     S
C500   C502    1.417   .     A
C500   C662    1.377   1_455 S
C503   H527    1.080   .     S
C503   N532    1.365   .     A
C504   H528    1.080   .     S
C504   N531    1.365   .     A
C504   C13     1.411   1_565 S
C505   N532    1.366   .     A
C505   H529    1.080   .     S
C506   N531    1.366   .     A
C506   H530    1.080   .     S
C506   C11     1.411   1_565 S
C507   O540    1.283   .     A
C507   C512    1.427   .     S
C507   O537    1.281   .     A
C508   C511    1.428   .     S
C508   O539    1.280   .     A
C508   O538    1.287   .     A
C509   S543    1.794   .     S
C509   C519    1.406   .     A
C509   C511    1.413   .     A
C510   S548    1.787   .     S
C510   C520    1.404   .     A
C510   C512    1.408   .     A
C511   C513    1.390   .     A
C512   C514    1.388   .     A
C513   H523    1.084   .     S
C513   C515    1.384   .     A
C514   H524    1.083   .     S
C514   C516    1.385   .     A
C515   C521    1.406   .     A
C515   C517    1.413   .     A
C516   C518    1.413   .     A
C516   C522    1.405   .     A
C517   C519    1.416   .     A
C517   C1256   1.399   .     S
C518   C520    1.416   .     A
C518   C1255   1.399   1_554 S
C521   Br553   1.925   .     S
C521   C1233   1.387   .     S
C522   Br554   1.923   .     S
C522   C1234   1.387   1_554 S
N531   Zn541   2.003   .     S
N532   Zn542   2.003   .     S
O533   Zn541   2.013   .     S
O534   Zn542   2.013   .     S
O535   Zn541   2.016   .     S
O536   Zn542   2.016   .     S
O537   Zn541   2.009   .     S
O538   Zn542   2.009   .     S
O539   Zn541   2.007   .     S
O540   Zn542   2.007   .     S
S543   O544    1.504   .     D
S543   O545    1.502   .     D
S543   O546    1.675   .     S
O546   H547    0.990   .     S
S548   O549    1.504   .     D
S548   O551    1.676   .     S
S548   O550    1.501   .     D
O551   H552    0.989   .     S
S555   O557    1.501   .     D
S555   O558    1.682   .     S
S555   O556    1.503   .     D
O558   H559    0.990   .     S
S560   O561    1.503   .     D
S560   O563    1.682   .     S
S560   O562    1.502   .     D
O563   H564    0.991   .     S
S565   O566    1.503   .     D
S565   O567    1.503   .     D
S565   O568    1.680   .     S
O568   H569    0.990   .     S
S570   O572    1.503   .     D
S570   O571    1.503   .     D
S570   O573    1.683   .     S
O573   H574    0.991   .     S
C575   O618    1.280   .     A
C575   O615    1.288   .     A
C575   C584    1.438   .     S
C576   O617    1.284   .     A
C576   O616    1.279   .     A
C576   C583    1.428   .     S
C577   C602    1.405   .     A
C577   H607    1.081   .     S
C577   C1341   1.387   1_554 S
C578   H608    1.080   .     S
C578   C601    1.406   .     A
C578   C1342   1.387   .     S
C579   S637    1.797   .     S
C579   C584    1.426   .     A
C580   C583    1.411   .     A
C580   S642    1.788   .     S
C580   C664    1.377   .     S
C581   S647    1.796   .     S
C581   C583    1.416   .     A
C581   C661    1.387   .     S
C582   S652    1.788   .     S
C582   C584    1.417   .     A
C585   H609    1.080   .     S
C585   N614    1.365   .     A
C586   H610    1.080   .     S
C586   N613    1.365   .     A
C586   C95     1.411   1_565 S
C587   N614    1.366   .     A
C587   H611    1.080   .     S
C588   N613    1.366   .     A
C588   H612    1.080   .     S
C588   C93     1.411   1_565 S
C589   O622    1.283   .     A
C589   C594    1.427   .     S
C589   O619    1.281   .     A
C590   C593    1.428   .     S
C590   O621    1.280   .     A
C590   O620    1.287   .     A
C591   S625    1.794   .     S
C591   C601    1.406   .     A
C591   C593    1.413   .     A
C592   S630    1.787   .     S
C592   C602    1.404   .     A
C592   C594    1.408   .     A
C593   C595    1.390   .     A
C594   C596    1.388   .     A
C595   H605    1.084   .     S
C595   C597    1.384   .     A
C596   H606    1.083   .     S
C596   C598    1.385   .     A
C597   C603    1.406   .     A
C597   C599    1.413   .     A
C598   C600    1.413   .     A
C598   C604    1.405   .     A
C599   C601    1.416   .     A
C599   C1338   1.399   .     S
C600   C602    1.416   .     A
C600   C1337   1.399   1_554 S
C603   Br635   1.925   .     S
C603   C1315   1.387   .     S
C604   Br636   1.923   .     S
C604   C1316   1.387   1_554 S
N613   Zn623   2.003   .     S
N614   Zn624   2.003   .     S
O615   Zn623   2.013   .     S
O616   Zn624   2.013   .     S
O617   Zn623   2.016   .     S
O618   Zn624   2.016   .     S
O619   Zn623   2.009   .     S
O620   Zn624   2.009   .     S
O621   Zn623   2.007   .     S
O622   Zn624   2.007   .     S
S625   O626    1.504   .     D
S625   O627    1.502   .     D
S625   O628    1.675   .     S
O628   H629    0.990   .     S
S630   O631    1.504   .     D
S630   O633    1.676   .     S
S630   O632    1.501   .     D
O633   H634    0.989   .     S
S637   O639    1.501   .     D
S637   O640    1.682   .     S
S637   O638    1.503   .     D
O640   H641    0.990   .     S
S642   O643    1.503   .     D
S642   O645    1.682   .     S
S642   O644    1.502   .     D
O645   H646    0.991   .     S
S647   O648    1.503   .     D
S647   O649    1.503   .     D
S647   O650    1.680   .     S
O650   H651    0.990   .     S
S652   O654    1.503   .     D
S652   O653    1.503   .     D
S652   O655    1.683   .     S
O655   H656    0.991   .     S
C657   O700    1.280   .     A
C657   O697    1.288   .     A
C657   C666    1.438   .     S
C658   O699    1.284   .     A
C658   O698    1.279   .     A
C658   C665    1.428   .     S
C659   C684    1.405   .     A
C659   H689    1.081   .     S
C659   C1423   1.387   1_554 S
C660   H690    1.080   .     S
C660   C683    1.406   .     A
C660   C1424   1.387   .     S
C661   S719    1.797   .     S
C661   C666    1.426   .     A
C662   C665    1.411   .     A
C662   S724    1.788   .     S
C662   C500    1.377   1_655 S
C663   S729    1.796   .     S
C663   C665    1.416   .     A
C663   C497    1.387   1_655 S
C664   S734    1.788   .     S
C664   C666    1.417   .     A
C667   H691    1.080   .     S
C667   N696    1.365   .     A
C668   H692    1.080   .     S
C668   N695    1.365   .     A
C668   C177    1.411   1_565 S
C669   N696    1.366   .     A
C669   H693    1.080   .     S
C670   N695    1.366   .     A
C670   H694    1.080   .     S
C670   C175    1.411   1_565 S
C671   O704    1.283   .     A
C671   C676    1.427   .     S
C671   O701    1.281   .     A
C672   C675    1.428   .     S
C672   O703    1.280   .     A
C672   O702    1.287   .     A
C673   S707    1.794   .     S
C673   C683    1.406   .     A
C673   C675    1.413   .     A
C674   S712    1.787   .     S
C674   C684    1.404   .     A
C674   C676    1.408   .     A
C675   C677    1.390   .     A
C676   C678    1.388   .     A
C677   H687    1.084   .     S
C677   C679    1.384   .     A
C678   H688    1.083   .     S
C678   C680    1.385   .     A
C679   C685    1.406   .     A
C679   C681    1.413   .     A
C680   C682    1.413   .     A
C680   C686    1.405   .     A
C681   C683    1.416   .     A
C681   C1420   1.399   .     S
C682   C684    1.416   .     A
C682   C1419   1.399   1_554 S
C685   Br717   1.925   .     S
C685   C1397   1.387   .     S
C686   Br718   1.923   .     S
C686   C1398   1.387   1_554 S
N695   Zn705   2.003   .     S
N696   Zn706   2.003   .     S
O697   Zn705   2.013   .     S
O698   Zn706   2.013   .     S
O699   Zn705   2.016   .     S
O700   Zn706   2.016   .     S
O701   Zn705   2.009   .     S
O702   Zn706   2.009   .     S
O703   Zn705   2.007   .     S
O704   Zn706   2.007   .     S
S707   O708    1.504   .     D
S707   O709    1.502   .     D
S707   O710    1.675   .     S
O710   H711    0.990   .     S
S712   O713    1.504   .     D
S712   O715    1.676   .     S
S712   O714    1.501   .     D
O715   H716    0.989   .     S
S719   O721    1.501   .     D
S719   O722    1.682   .     S
S719   O720    1.503   .     D
O722   H723    0.990   .     S
S724   O725    1.503   .     D
S724   O727    1.682   .     S
S724   O726    1.502   .     D
O727   H728    0.991   .     S
S729   O730    1.503   .     D
S729   O731    1.503   .     D
S729   O732    1.680   .     S
O732   H733    0.990   .     S
S734   O736    1.503   .     D
S734   O735    1.503   .     D
S734   O737    1.683   .     S
O737   H738    0.991   .     S
C739   O782    1.280   .     A
C739   O779    1.288   .     A
C739   C748    1.438   .     S
C740   O781    1.284   .     A
C740   O780    1.279   .     A
C740   C747    1.428   .     S
C741   C766    1.405   .     A
C741   H771    1.081   .     S
C742   H772    1.080   .     S
C742   C765    1.406   .     A
C742   C30     1.387   1_556 S
C743   S801    1.797   .     S
C743   C748    1.426   .     A
C743   C909    1.387   1_455 S
C744   C747    1.411   .     A
C744   S806    1.788   .     S
C744   C828    1.377   .     S
C745   S811    1.796   .     S
C745   C747    1.416   .     A
C745   C825    1.387   .     S
C746   S816    1.788   .     S
C746   C748    1.417   .     A
C746   C908    1.377   1_455 S
C749   H773    1.080   .     S
C749   N778    1.365   .     A
C749   C1244   1.411   1_545 S
C750   H774    1.080   .     S
C750   N777    1.365   .     A
C750   C997    1.411   .     S
C751   N778    1.366   .     A
C751   H775    1.080   .     S
C751   C1242   1.411   1_545 S
C752   N777    1.366   .     A
C752   H776    1.080   .     S
C752   C995    1.411   .     S
C753   O786    1.283   .     A
C753   C758    1.427   .     S
C753   O783    1.281   .     A
C754   C757    1.428   .     S
C754   O785    1.280   .     A
C754   O784    1.287   .     A
C755   S789    1.794   .     S
C755   C765    1.406   .     A
C755   C757    1.413   .     A
C756   S794    1.787   .     S
C756   C766    1.404   .     A
C756   C758    1.408   .     A
C757   C759    1.390   .     A
C758   C760    1.388   .     A
C759   H769    1.084   .     S
C759   C761    1.384   .     A
C760   H770    1.083   .     S
C760   C762    1.385   .     A
C761   C767    1.406   .     A
C761   C763    1.413   .     A
C762   C764    1.413   .     A
C762   C768    1.405   .     A
C763   C765    1.416   .     A
C763   C26     1.399   1_556 S
C764   C766    1.416   .     A
C767   Br799   1.925   .     S
C767   C3      1.387   1_556 S
C768   Br800   1.923   .     S
N777   Zn787   2.003   .     S
N778   Zn788   2.003   .     S
O779   Zn787   2.013   .     S
O780   Zn788   2.013   .     S
O781   Zn787   2.016   .     S
O782   Zn788   2.016   .     S
O783   Zn787   2.009   .     S
O784   Zn788   2.009   .     S
O785   Zn787   2.007   .     S
O786   Zn788   2.007   .     S
S789   O790    1.504   .     D
S789   O791    1.502   .     D
S789   O792    1.675   .     S
O792   H793    0.990   .     S
S794   O795    1.504   .     D
S794   O797    1.676   .     S
S794   O796    1.501   .     D
O797   H798    0.989   .     S
S801   O803    1.501   .     D
S801   O804    1.682   .     S
S801   O802    1.503   .     D
O804   H805    0.990   .     S
S806   O807    1.503   .     D
S806   O809    1.682   .     S
S806   O808    1.502   .     D
O809   H810    0.991   .     S
S811   O812    1.503   .     D
S811   O813    1.503   .     D
S811   O814    1.680   .     S
O814   H815    0.990   .     S
S816   O818    1.503   .     D
S816   O817    1.503   .     D
S816   O819    1.683   .     S
O819   H820    0.991   .     S
C821   O864    1.280   .     A
C821   O861    1.288   .     A
C821   C830    1.438   .     S
C822   O863    1.284   .     A
C822   O862    1.279   .     A
C822   C829    1.428   .     S
C823   C848    1.405   .     A
C823   H853    1.081   .     S
C824   H854    1.080   .     S
C824   C847    1.406   .     A
C824   C112    1.387   1_556 S
C825   S883    1.797   .     S
C825   C830    1.426   .     A
C826   C829    1.411   .     A
C826   S888    1.788   .     S
C826   C910    1.377   .     S
C827   S893    1.796   .     S
C827   C829    1.416   .     A
C827   C907    1.387   .     S
C828   S898    1.788   .     S
C828   C830    1.417   .     A
C831   H855    1.080   .     S
C831   N860    1.365   .     A
C831   C1326   1.411   1_545 S
C832   H856    1.080   .     S
C832   N859    1.365   .     A
C832   C1079   1.411   .     S
C833   N860    1.366   .     A
C833   H857    1.080   .     S
C833   C1324   1.411   1_545 S
C834   N859    1.366   .     A
C834   H858    1.080   .     S
C834   C1077   1.411   .     S
C835   O868    1.283   .     A
C835   C840    1.427   .     S
C835   O865    1.281   .     A
C836   C839    1.428   .     S
C836   O867    1.280   .     A
C836   O866    1.287   .     A
C837   S871    1.794   .     S
C837   C847    1.406   .     A
C837   C839    1.413   .     A
C838   S876    1.787   .     S
C838   C848    1.404   .     A
C838   C840    1.408   .     A
C839   C841    1.390   .     A
C840   C842    1.388   .     A
C841   H851    1.084   .     S
C841   C843    1.384   .     A
C842   H852    1.083   .     S
C842   C844    1.385   .     A
C843   C849    1.406   .     A
C843   C845    1.413   .     A
C844   C846    1.413   .     A
C844   C850    1.405   .     A
C845   C847    1.416   .     A
C845   C108    1.399   1_556 S
C846   C848    1.416   .     A
C849   Br881   1.925   .     S
C849   C85     1.387   1_556 S
C850   Br882   1.923   .     S
N859   Zn869   2.003   .     S
N860   Zn870   2.003   .     S
O861   Zn869   2.013   .     S
O862   Zn870   2.013   .     S
O863   Zn869   2.016   .     S
O864   Zn870   2.016   .     S
O865   Zn869   2.009   .     S
O866   Zn870   2.009   .     S
O867   Zn869   2.007   .     S
O868   Zn870   2.007   .     S
S871   O872    1.504   .     D
S871   O873    1.502   .     D
S871   O874    1.675   .     S
O874   H875    0.990   .     S
S876   O877    1.504   .     D
S876   O879    1.676   .     S
S876   O878    1.501   .     D
O879   H880    0.989   .     S
S883   O885    1.501   .     D
S883   O886    1.682   .     S
S883   O884    1.503   .     D
O886   H887    0.990   .     S
S888   O889    1.503   .     D
S888   O891    1.682   .     S
S888   O890    1.502   .     D
O891   H892    0.991   .     S
S893   O894    1.503   .     D
S893   O895    1.503   .     D
S893   O896    1.680   .     S
O896   H897    0.990   .     S
S898   O900    1.503   .     D
S898   O899    1.503   .     D
S898   O901    1.683   .     S
O901   H902    0.991   .     S
C903   O946    1.280   .     A
C903   O943    1.288   .     A
C903   C912    1.438   .     S
C904   O945    1.284   .     A
C904   O944    1.279   .     A
C904   C911    1.428   .     S
C905   C930    1.405   .     A
C905   H935    1.081   .     S
C906   H936    1.080   .     S
C906   C929    1.406   .     A
C906   C194    1.387   1_556 S
C907   S965    1.797   .     S
C907   C912    1.426   .     A
C908   C911    1.411   .     A
C908   S970    1.788   .     S
C908   C746    1.377   1_655 S
C909   S975    1.796   .     S
C909   C911    1.416   .     A
C909   C743    1.387   1_655 S
C910   S980    1.788   .     S
C910   C912    1.417   .     A
C913   H937    1.080   .     S
C913   N942    1.365   .     A
C913   C1408   1.411   1_545 S
C914   H938    1.080   .     S
C914   N941    1.365   .     A
C914   C1161   1.411   .     S
C915   N942    1.366   .     A
C915   H939    1.080   .     S
C915   C1406   1.411   1_545 S
C916   N941    1.366   .     A
C916   H940    1.080   .     S
C916   C1159   1.411   .     S
C917   O950    1.283   .     A
C917   C922    1.427   .     S
C917   O947    1.281   .     A
C918   C921    1.428   .     S
C918   O949    1.280   .     A
C918   O948    1.287   .     A
C919   S953    1.794   .     S
C919   C929    1.406   .     A
C919   C921    1.413   .     A
C920   S958    1.787   .     S
C920   C930    1.404   .     A
C920   C922    1.408   .     A
C921   C923    1.390   .     A
C922   C924    1.388   .     A
C923   H933    1.084   .     S
C923   C925    1.384   .     A
C924   H934    1.083   .     S
C924   C926    1.385   .     A
C925   C931    1.406   .     A
C925   C927    1.413   .     A
C926   C928    1.413   .     A
C926   C932    1.405   .     A
C927   C929    1.416   .     A
C927   C190    1.399   1_556 S
C928   C930    1.416   .     A
C931   Br963   1.925   .     S
C931   C167    1.387   1_556 S
C932   Br964   1.923   .     S
N941   Zn951   2.003   .     S
N942   Zn952   2.003   .     S
O943   Zn951   2.013   .     S
O944   Zn952   2.013   .     S
O945   Zn951   2.016   .     S
O946   Zn952   2.016   .     S
O947   Zn951   2.009   .     S
O948   Zn952   2.009   .     S
O949   Zn951   2.007   .     S
O950   Zn952   2.007   .     S
S953   O954    1.504   .     D
S953   O955    1.502   .     D
S953   O956    1.675   .     S
O956   H957    0.990   .     S
S958   O959    1.504   .     D
S958   O961    1.676   .     S
S958   O960    1.501   .     D
O961   H962    0.989   .     S
S965   O967    1.501   .     D
S965   O968    1.682   .     S
S965   O966    1.503   .     D
O968   H969    0.990   .     S
S970   O971    1.503   .     D
S970   O973    1.682   .     S
S970   O972    1.502   .     D
O973   H974    0.991   .     S
S975   O976    1.503   .     D
S975   O977    1.503   .     D
S975   O978    1.680   .     S
O978   H979    0.990   .     S
S980   O982    1.503   .     D
S980   O981    1.503   .     D
S980   O983    1.683   .     S
O983   H984    0.991   .     S
C985   O1028   1.280   .     A
C985   O1025   1.288   .     A
C985   C994    1.438   .     S
C986   O1027   1.284   .     A
C986   O1026   1.279   .     A
C986   C993    1.428   .     S
C987   C1012   1.405   .     A
C987   H1017   1.081   .     S
C988   H1018   1.080   .     S
C988   C1011   1.406   .     A
C988   C276    1.387   1_556 S
C989   S1047   1.797   .     S
C989   C994    1.426   .     A
C989   C1155   1.387   1_455 S
C990   C993    1.411   .     A
C990   S1052   1.788   .     S
C990   C1074   1.377   .     S
C991   S1057   1.796   .     S
C991   C993    1.416   .     A
C991   C1071   1.387   .     S
C992   S1062   1.788   .     S
C992   C994    1.417   .     A
C992   C1154   1.377   1_455 S
C995   H1019   1.080   .     S
C995   N1024   1.365   .     A
C996   H1020   1.080   .     S
C996   N1023   1.365   .     A
C996   C1243   1.411   .     S
C997   N1024   1.366   .     A
C997   H1021   1.080   .     S
C998   N1023   1.366   .     A
C998   H1022   1.080   .     S
C998   C1241   1.411   .     S
C999   O1032   1.283   .     A
C999   C1004   1.427   .     S
C999   O1029   1.281   .     A
C1000  C1003   1.428   .     S
C1000  O1031   1.280   .     A
C1000  O1030   1.287   .     A
C1001  S1035   1.794   .     S
C1001  C1011   1.406   .     A
C1001  C1003   1.413   .     A
C1002  S1040   1.787   .     S
C1002  C1012   1.404   .     A
C1002  C1004   1.408   .     A
C1003  C1005   1.390   .     A
C1004  C1006   1.388   .     A
C1005  H1015   1.084   .     S
C1005  C1007   1.384   .     A
C1006  H1016   1.083   .     S
C1006  C1008   1.385   .     A
C1007  C1013   1.406   .     A
C1007  C1009   1.413   .     A
C1008  C1010   1.413   .     A
C1008  C1014   1.405   .     A
C1009  C1011   1.416   .     A
C1009  C272    1.399   1_556 S
C1010  C1012   1.416   .     A
C1013  Br1045  1.925   .     S
C1013  C249    1.387   1_556 S
C1014  Br1046  1.923   .     S
N1023  Zn1033  2.003   .     S
N1024  Zn1034  2.003   .     S
O1025  Zn1033  2.013   .     S
O1026  Zn1034  2.013   .     S
O1027  Zn1033  2.016   .     S
O1028  Zn1034  2.016   .     S
O1029  Zn1033  2.009   .     S
O1030  Zn1034  2.009   .     S
O1031  Zn1033  2.007   .     S
O1032  Zn1034  2.007   .     S
S1035  O1036   1.504   .     D
S1035  O1037   1.502   .     D
S1035  O1038   1.675   .     S
O1038  H1039   0.990   .     S
S1040  O1041   1.504   .     D
S1040  O1043   1.676   .     S
S1040  O1042   1.501   .     D
O1043  H1044   0.989   .     S
S1047  O1049   1.501   .     D
S1047  O1050   1.682   .     S
S1047  O1048   1.503   .     D
O1050  H1051   0.990   .     S
S1052  O1053   1.503   .     D
S1052  O1055   1.682   .     S
S1052  O1054   1.502   .     D
O1055  H1056   0.991   .     S
S1057  O1058   1.503   .     D
S1057  O1059   1.503   .     D
S1057  O1060   1.680   .     S
O1060  H1061   0.990   .     S
S1062  O1064   1.503   .     D
S1062  O1063   1.503   .     D
S1062  O1065   1.683   .     S
O1065  H1066   0.991   .     S
C1067  O1110   1.280   .     A
C1067  O1107   1.288   .     A
C1067  C1076   1.438   .     S
C1068  O1109   1.284   .     A
C1068  O1108   1.279   .     A
C1068  C1075   1.428   .     S
C1069  C1094   1.405   .     A
C1069  H1099   1.081   .     S
C1070  H1100   1.080   .     S
C1070  C1093   1.406   .     A
C1070  C358    1.387   1_556 S
C1071  S1129   1.797   .     S
C1071  C1076   1.426   .     A
C1072  C1075   1.411   .     A
C1072  S1134   1.788   .     S
C1072  C1156   1.377   .     S
C1073  S1139   1.796   .     S
C1073  C1075   1.416   .     A
C1073  C1153   1.387   .     S
C1074  S1144   1.788   .     S
C1074  C1076   1.417   .     A
C1077  H1101   1.080   .     S
C1077  N1106   1.365   .     A
C1078  H1102   1.080   .     S
C1078  N1105   1.365   .     A
C1078  C1325   1.411   .     S
C1079  N1106   1.366   .     A
C1079  H1103   1.080   .     S
C1080  N1105   1.366   .     A
C1080  H1104   1.080   .     S
C1080  C1323   1.411   .     S
C1081  O1114   1.283   .     A
C1081  C1086   1.427   .     S
C1081  O1111   1.281   .     A
C1082  C1085   1.428   .     S
C1082  O1113   1.280   .     A
C1082  O1112   1.287   .     A
C1083  S1117   1.794   .     S
C1083  C1093   1.406   .     A
C1083  C1085   1.413   .     A
C1084  S1122   1.787   .     S
C1084  C1094   1.404   .     A
C1084  C1086   1.408   .     A
C1085  C1087   1.390   .     A
C1086  C1088   1.388   .     A
C1087  H1097   1.084   .     S
C1087  C1089   1.384   .     A
C1088  H1098   1.083   .     S
C1088  C1090   1.385   .     A
C1089  C1095   1.406   .     A
C1089  C1091   1.413   .     A
C1090  C1092   1.413   .     A
C1090  C1096   1.405   .     A
C1091  C1093   1.416   .     A
C1091  C354    1.399   1_556 S
C1092  C1094   1.416   .     A
C1095  Br1127  1.925   .     S
C1095  C331    1.387   1_556 S
C1096  Br1128  1.923   .     S
N1105  Zn1115  2.003   .     S
N1106  Zn1116  2.003   .     S
O1107  Zn1115  2.013   .     S
O1108  Zn1116  2.013   .     S
O1109  Zn1115  2.016   .     S
O1110  Zn1116  2.016   .     S
O1111  Zn1115  2.009   .     S
O1112  Zn1116  2.009   .     S
O1113  Zn1115  2.007   .     S
O1114  Zn1116  2.007   .     S
S1117  O1118   1.504   .     D
S1117  O1119   1.502   .     D
S1117  O1120   1.675   .     S
O1120  H1121   0.990   .     S
S1122  O1123   1.504   .     D
S1122  O1125   1.676   .     S
S1122  O1124   1.501   .     D
O1125  H1126   0.989   .     S
S1129  O1131   1.501   .     D
S1129  O1132   1.682   .     S
S1129  O1130   1.503   .     D
O1132  H1133   0.990   .     S
S1134  O1135   1.503   .     D
S1134  O1137   1.682   .     S
S1134  O1136   1.502   .     D
O1137  H1138   0.991   .     S
S1139  O1140   1.503   .     D
S1139  O1141   1.503   .     D
S1139  O1142   1.680   .     S
O1142  H1143   0.990   .     S
S1144  O1146   1.503   .     D
S1144  O1145   1.503   .     D
S1144  O1147   1.683   .     S
O1147  H1148   0.991   .     S
C1149  O1192   1.280   .     A
C1149  O1189   1.288   .     A
C1149  C1158   1.438   .     S
C1150  O1191   1.284   .     A
C1150  O1190   1.279   .     A
C1150  C1157   1.428   .     S
C1151  C1176   1.405   .     A
C1151  H1181   1.081   .     S
C1152  H1182   1.080   .     S
C1152  C1175   1.406   .     A
C1152  C440    1.387   1_556 S
C1153  S1211   1.797   .     S
C1153  C1158   1.426   .     A
C1154  C1157   1.411   .     A
C1154  S1216   1.788   .     S
C1154  C992    1.377   1_655 S
C1155  S1221   1.796   .     S
C1155  C1157   1.416   .     A
C1155  C989    1.387   1_655 S
C1156  S1226   1.788   .     S
C1156  C1158   1.417   .     A
C1159  H1183   1.080   .     S
C1159  N1188   1.365   .     A
C1160  H1184   1.080   .     S
C1160  N1187   1.365   .     A
C1160  C1407   1.411   .     S
C1161  N1188   1.366   .     A
C1161  H1185   1.080   .     S
C1162  N1187   1.366   .     A
C1162  H1186   1.080   .     S
C1162  C1405   1.411   .     S
C1163  O1196   1.283   .     A
C1163  C1168   1.427   .     S
C1163  O1193   1.281   .     A
C1164  C1167   1.428   .     S
C1164  O1195   1.280   .     A
C1164  O1194   1.287   .     A
C1165  S1199   1.794   .     S
C1165  C1175   1.406   .     A
C1165  C1167   1.413   .     A
C1166  S1204   1.787   .     S
C1166  C1176   1.404   .     A
C1166  C1168   1.408   .     A
C1167  C1169   1.390   .     A
C1168  C1170   1.388   .     A
C1169  H1179   1.084   .     S
C1169  C1171   1.384   .     A
C1170  H1180   1.083   .     S
C1170  C1172   1.385   .     A
C1171  C1177   1.406   .     A
C1171  C1173   1.413   .     A
C1172  C1174   1.413   .     A
C1172  C1178   1.405   .     A
C1173  C1175   1.416   .     A
C1173  C436    1.399   1_556 S
C1174  C1176   1.416   .     A
C1177  Br1209  1.925   .     S
C1177  C413    1.387   1_556 S
C1178  Br1210  1.923   .     S
N1187  Zn1197  2.003   .     S
N1188  Zn1198  2.003   .     S
O1189  Zn1197  2.013   .     S
O1190  Zn1198  2.013   .     S
O1191  Zn1197  2.016   .     S
O1192  Zn1198  2.016   .     S
O1193  Zn1197  2.009   .     S
O1194  Zn1198  2.009   .     S
O1195  Zn1197  2.007   .     S
O1196  Zn1198  2.007   .     S
S1199  O1200   1.504   .     D
S1199  O1201   1.502   .     D
S1199  O1202   1.675   .     S
O1202  H1203   0.990   .     S
S1204  O1205   1.504   .     D
S1204  O1207   1.676   .     S
S1204  O1206   1.501   .     D
O1207  H1208   0.989   .     S
S1211  O1213   1.501   .     D
S1211  O1214   1.682   .     S
S1211  O1212   1.503   .     D
O1214  H1215   0.990   .     S
S1216  O1217   1.503   .     D
S1216  O1219   1.682   .     S
S1216  O1218   1.502   .     D
O1219  H1220   0.991   .     S
S1221  O1222   1.503   .     D
S1221  O1223   1.503   .     D
S1221  O1224   1.680   .     S
O1224  H1225   0.990   .     S
S1226  O1228   1.503   .     D
S1226  O1227   1.503   .     D
S1226  O1229   1.683   .     S
O1229  H1230   0.991   .     S
C1231  O1274   1.280   .     A
C1231  O1271   1.288   .     A
C1231  C1240   1.438   .     S
C1232  O1273   1.284   .     A
C1232  O1272   1.279   .     A
C1232  C1239   1.428   .     S
C1233  C1258   1.405   .     A
C1233  H1263   1.081   .     S
C1234  H1264   1.080   .     S
C1234  C1257   1.406   .     A
C1234  C522    1.387   1_556 S
C1235  S1293   1.797   .     S
C1235  C1240   1.426   .     A
C1235  C1401   1.387   1_455 S
C1236  C1239   1.411   .     A
C1236  S1298   1.788   .     S
C1236  C1320   1.377   .     S
C1237  S1303   1.796   .     S
C1237  C1239   1.416   .     A
C1237  C1317   1.387   .     S
C1238  S1308   1.788   .     S
C1238  C1240   1.417   .     A
C1238  C1400   1.377   1_455 S
C1241  H1265   1.080   .     S
C1241  N1270   1.365   .     A
C1242  H1266   1.080   .     S
C1242  N1269   1.365   .     A
C1242  C751    1.411   1_565 S
C1243  N1270   1.366   .     A
C1243  H1267   1.080   .     S
C1244  N1269   1.366   .     A
C1244  H1268   1.080   .     S
C1244  C749    1.411   1_565 S
C1245  O1278   1.283   .     A
C1245  C1250   1.427   .     S
C1245  O1275   1.281   .     A
C1246  C1249   1.428   .     S
C1246  O1277   1.280   .     A
C1246  O1276   1.287   .     A
C1247  S1281   1.794   .     S
C1247  C1257   1.406   .     A
C1247  C1249   1.413   .     A
C1248  S1286   1.787   .     S
C1248  C1258   1.404   .     A
C1248  C1250   1.408   .     A
C1249  C1251   1.390   .     A
C1250  C1252   1.388   .     A
C1251  H1261   1.084   .     S
C1251  C1253   1.384   .     A
C1252  H1262   1.083   .     S
C1252  C1254   1.385   .     A
C1253  C1259   1.406   .     A
C1253  C1255   1.413   .     A
C1254  C1256   1.413   .     A
C1254  C1260   1.405   .     A
C1255  C1257   1.416   .     A
C1255  C518    1.399   1_556 S
C1256  C1258   1.416   .     A
C1259  Br1291  1.925   .     S
C1259  C495    1.387   1_556 S
C1260  Br1292  1.923   .     S
N1269  Zn1279  2.003   .     S
N1270  Zn1280  2.003   .     S
O1271  Zn1279  2.013   .     S
O1272  Zn1280  2.013   .     S
O1273  Zn1279  2.016   .     S
O1274  Zn1280  2.016   .     S
O1275  Zn1279  2.009   .     S
O1276  Zn1280  2.009   .     S
O1277  Zn1279  2.007   .     S
O1278  Zn1280  2.007   .     S
S1281  O1282   1.504   .     D
S1281  O1283   1.502   .     D
S1281  O1284   1.675   .     S
O1284  H1285   0.990   .     S
S1286  O1287   1.504   .     D
S1286  O1289   1.676   .     S
S1286  O1288   1.501   .     D
O1289  H1290   0.989   .     S
S1293  O1295   1.501   .     D
S1293  O1296   1.682   .     S
S1293  O1294   1.503   .     D
O1296  H1297   0.990   .     S
S1298  O1299   1.503   .     D
S1298  O1301   1.682   .     S
S1298  O1300   1.502   .     D
O1301  H1302   0.991   .     S
S1303  O1304   1.503   .     D
S1303  O1305   1.503   .     D
S1303  O1306   1.680   .     S
O1306  H1307   0.990   .     S
S1308  O1310   1.503   .     D
S1308  O1309   1.503   .     D
S1308  O1311   1.683   .     S
O1311  H1312   0.991   .     S
C1313  O1356   1.280   .     A
C1313  O1353   1.288   .     A
C1313  C1322   1.438   .     S
C1314  O1355   1.284   .     A
C1314  O1354   1.279   .     A
C1314  C1321   1.428   .     S
C1315  C1340   1.405   .     A
C1315  H1345   1.081   .     S
C1316  H1346   1.080   .     S
C1316  C1339   1.406   .     A
C1316  C604    1.387   1_556 S
C1317  S1375   1.797   .     S
C1317  C1322   1.426   .     A
C1318  C1321   1.411   .     A
C1318  S1380   1.788   .     S
C1318  C1402   1.377   .     S
C1319  S1385   1.796   .     S
C1319  C1321   1.416   .     A
C1319  C1399   1.387   .     S
C1320  S1390   1.788   .     S
C1320  C1322   1.417   .     A
C1323  H1347   1.080   .     S
C1323  N1352   1.365   .     A
C1324  H1348   1.080   .     S
C1324  N1351   1.365   .     A
C1324  C833    1.411   1_565 S
C1325  N1352   1.366   .     A
C1325  H1349   1.080   .     S
C1326  N1351   1.366   .     A
C1326  H1350   1.080   .     S
C1326  C831    1.411   1_565 S
C1327  O1360   1.283   .     A
C1327  C1332   1.427   .     S
C1327  O1357   1.281   .     A
C1328  C1331   1.428   .     S
C1328  O1359   1.280   .     A
C1328  O1358   1.287   .     A
C1329  S1363   1.794   .     S
C1329  C1339   1.406   .     A
C1329  C1331   1.413   .     A
C1330  S1368   1.787   .     S
C1330  C1340   1.404   .     A
C1330  C1332   1.408   .     A
C1331  C1333   1.390   .     A
C1332  C1334   1.388   .     A
C1333  H1343   1.084   .     S
C1333  C1335   1.384   .     A
C1334  H1344   1.083   .     S
C1334  C1336   1.385   .     A
C1335  C1341   1.406   .     A
C1335  C1337   1.413   .     A
C1336  C1338   1.413   .     A
C1336  C1342   1.405   .     A
C1337  C1339   1.416   .     A
C1337  C600    1.399   1_556 S
C1338  C1340   1.416   .     A
C1341  Br1373  1.925   .     S
C1341  C577    1.387   1_556 S
C1342  Br1374  1.923   .     S
N1351  Zn1361  2.003   .     S
N1352  Zn1362  2.003   .     S
O1353  Zn1361  2.013   .     S
O1354  Zn1362  2.013   .     S
O1355  Zn1361  2.016   .     S
O1356  Zn1362  2.016   .     S
O1357  Zn1361  2.009   .     S
O1358  Zn1362  2.009   .     S
O1359  Zn1361  2.007   .     S
O1360  Zn1362  2.007   .     S
S1363  O1364   1.504   .     D
S1363  O1365   1.502   .     D
S1363  O1366   1.675   .     S
O1366  H1367   0.990   .     S
S1368  O1369   1.504   .     D
S1368  O1371   1.676   .     S
S1368  O1370   1.501   .     D
O1371  H1372   0.989   .     S
S1375  O1377   1.501   .     D
S1375  O1378   1.682   .     S
S1375  O1376   1.503   .     D
O1378  H1379   0.990   .     S
S1380  O1381   1.503   .     D
S1380  O1383   1.682   .     S
S1380  O1382   1.502   .     D
O1383  H1384   0.991   .     S
S1385  O1386   1.503   .     D
S1385  O1387   1.503   .     D
S1385  O1388   1.680   .     S
O1388  H1389   0.990   .     S
S1390  O1392   1.503   .     D
S1390  O1391   1.503   .     D
S1390  O1393   1.683   .     S
O1393  H1394   0.991   .     S
C1395  O1438   1.280   .     A
C1395  O1435   1.288   .     A
C1395  C1404   1.438   .     S
C1396  O1437   1.284   .     A
C1396  O1436   1.279   .     A
C1396  C1403   1.428   .     S
C1397  C1422   1.405   .     A
C1397  H1427   1.081   .     S
C1398  H1428   1.080   .     S
C1398  C1421   1.406   .     A
C1398  C686    1.387   1_556 S
C1399  S1457   1.797   .     S
C1399  C1404   1.426   .     A
C1400  C1403   1.411   .     A
C1400  S1462   1.788   .     S
C1400  C1238   1.377   1_655 S
C1401  S1467   1.796   .     S
C1401  C1403   1.416   .     A
C1401  C1235   1.387   1_655 S
C1402  S1472   1.788   .     S
C1402  C1404   1.417   .     A
C1405  H1429   1.080   .     S
C1405  N1434   1.365   .     A
C1406  H1430   1.080   .     S
C1406  N1433   1.365   .     A
C1406  C915    1.411   1_565 S
C1407  N1434   1.366   .     A
C1407  H1431   1.080   .     S
C1408  N1433   1.366   .     A
C1408  H1432   1.080   .     S
C1408  C913    1.411   1_565 S
C1409  O1442   1.283   .     A
C1409  C1414   1.427   .     S
C1409  O1439   1.281   .     A
C1410  C1413   1.428   .     S
C1410  O1441   1.280   .     A
C1410  O1440   1.287   .     A
C1411  S1445   1.794   .     S
C1411  C1421   1.406   .     A
C1411  C1413   1.413   .     A
C1412  S1450   1.787   .     S
C1412  C1422   1.404   .     A
C1412  C1414   1.408   .     A
C1413  C1415   1.390   .     A
C1414  C1416   1.388   .     A
C1415  H1425   1.084   .     S
C1415  C1417   1.384   .     A
C1416  H1426   1.083   .     S
C1416  C1418   1.385   .     A
C1417  C1423   1.406   .     A
C1417  C1419   1.413   .     A
C1418  C1420   1.413   .     A
C1418  C1424   1.405   .     A
C1419  C1421   1.416   .     A
C1419  C682    1.399   1_556 S
C1420  C1422   1.416   .     A
C1423  Br1455  1.925   .     S
C1423  C659    1.387   1_556 S
C1424  Br1456  1.923   .     S
N1433  Zn1443  2.003   .     S
N1434  Zn1444  2.003   .     S
O1435  Zn1443  2.013   .     S
O1436  Zn1444  2.013   .     S
O1437  Zn1443  2.016   .     S
O1438  Zn1444  2.016   .     S
O1439  Zn1443  2.009   .     S
O1440  Zn1444  2.009   .     S
O1441  Zn1443  2.007   .     S
O1442  Zn1444  2.007   .     S
S1445  O1446   1.504   .     D
S1445  O1447   1.502   .     D
S1445  O1448   1.675   .     S
O1448  H1449   0.990   .     S
S1450  O1451   1.504   .     D
S1450  O1453   1.676   .     S
S1450  O1452   1.501   .     D
O1453  H1454   0.989   .     S
S1457  O1459   1.501   .     D
S1457  O1460   1.682   .     S
S1457  O1458   1.503   .     D
O1460  H1461   0.990   .     S
S1462  O1463   1.503   .     D
S1462  O1465   1.682   .     S
S1462  O1464   1.502   .     D
O1465  H1466   0.991   .     S
S1467  O1468   1.503   .     D
S1467  O1469   1.503   .     D
S1467  O1470   1.680   .     S
O1470  H1471   0.990   .     S
S1472  O1474   1.503   .     D
S1472  O1473   1.503   .     D
S1472  O1475   1.683   .     S
O1475  H1476   0.991   .     S
