data_str_m3_o10_o17_pcu_sym.191
_audit_creation_date              2020-01-03
_audit_creation_method            'Materials Studio'
_symmetry_space_group_name_H-M    'P1'
_symmetry_Int_Tables_number       1
_symmetry_cell_setting            triclinic
loop_
_symmetry_equiv_pos_as_xyz
  x,y,z
_cell_length_a                    23.5276
_cell_length_b                    26.5514
_cell_length_c                    29.8082
_cell_angle_alpha                 91.0815
_cell_angle_beta                  86.8321
_cell_angle_gamma                 92.7325
loop_
_atom_site_label
_atom_site_type_symbol
_atom_site_fract_x
_atom_site_fract_y
_atom_site_fract_z
_atom_site_U_iso_or_equiv
_atom_site_adp_type
_atom_site_occupancy
O1     O     0.12975   0.24619   0.25299   0.00000  Uiso   1.00
O2     O     0.20358   0.08714   0.24702   0.00000  Uiso   1.00
O3     O     0.22613   0.23721   0.24519   0.00000  Uiso   1.00
O4     O     0.10720   0.09613   0.25482   0.00000  Uiso   1.00
C5     C     0.18137   0.26447   0.24882   0.00000  Uiso   1.00
C6     C     0.15196   0.06886   0.25118   0.00000  Uiso   1.00
O7     O     0.11847   0.17117   0.31998   0.00000  Uiso   1.00
O8     O     0.21486   0.16216   0.18003   0.00000  Uiso   1.00
O9     O     0.21485   0.16219   0.31218   0.00000  Uiso   1.00
O10    O     0.11848   0.17115   0.18783   0.00000  Uiso   1.00
C11    C     0.16758   0.16564   0.33619   0.00000  Uiso   1.00
C12    C     0.16576   0.16770   0.16381   0.00000  Uiso   1.00
Zn13   Zn    0.10231   0.17266   0.25521   0.00000  Uiso   1.00
Zn14   Zn    0.23102   0.16067   0.24479   0.00000  Uiso   1.00
C15    C     0.15632   0.12234   0.09334   0.00000  Uiso   1.00
C16    C     0.17701   0.21100   0.40666   0.00000  Uiso   1.00
C17    C     0.16336   0.16808   0.11612   0.00000  Uiso   1.00
C18    C     0.16997   0.16525   0.38389   0.00000  Uiso   1.00
C19    C     0.17208   0.21345   0.09363   0.00000  Uiso   1.00
C20    C     0.16125   0.11989   0.40637   0.00000  Uiso   1.00
C21    C     0.18140   0.21227   0.04674   0.00000  Uiso   1.00
C22    C     0.15193   0.12106   0.45326   0.00000  Uiso   1.00
C23    C     0.16618   0.16701   0.02342   0.00000  Uiso   1.00
C24    C     0.16716   0.16632   0.47658   0.00000  Uiso   1.00
C25    C     0.14965   0.12249   0.04713   0.00000  Uiso   1.00
C26    C     0.18369   0.21084   0.45287   0.00000  Uiso   1.00
C27    C     0.20665   0.25375   0.02264   0.00000  Uiso   1.00
C28    C     0.12668   0.07959   0.47736   0.00000  Uiso   1.00
C29    C     0.20852   0.25260   0.47558   0.00000  Uiso   1.00
C30    C     0.12482   0.08074   0.02442   0.00000  Uiso   1.00
C31    C     0.18934   0.31819   0.24742   0.00000  Uiso   1.00
C32    C     0.14399   0.01514   0.25258   0.00000  Uiso   1.00
N33    N     0.31678   0.15265   0.23783   0.00000  Uiso   1.00
N34    N     0.01656   0.18068   0.26217   0.00000  Uiso   1.00
N35    N     0.16611   0.07681   0.11606   0.00000  Uiso   1.00
O36    O     0.13126   0.06257   0.14923   0.00000  Uiso   1.00
O37    O     0.21790   0.06162   0.11474   0.00000  Uiso   1.00
N38    N     0.16723   0.25652   0.38395   0.00000  Uiso   1.00
O39    O     0.20208   0.27077   0.35077   0.00000  Uiso   1.00
O40    O     0.11543   0.27171   0.38526   0.00000  Uiso   1.00
I41    I     0.16172   0.28092   0.13216   0.00000  Uiso   1.00
I42    I     0.17161   0.05241   0.36784   0.00000  Uiso   1.00
N43    N     0.23847   0.29308   0.04508   0.00000  Uiso   1.00
O44    O     0.27963   0.28189   0.07001   0.00000  Uiso   1.00
O45    O     0.23005   0.00678   0.03735   0.00000  Uiso   1.00
N46    N     0.09487   0.04025   0.45492   0.00000  Uiso   1.00
O47    O     0.05371   0.05145   0.43000   0.00000  Uiso   1.00
O48    O     0.10328   0.32655   0.46265   0.00000  Uiso   1.00
I49    I     0.26599   0.30529   0.44038   0.00000  Uiso   1.00
I50    I     0.06735   0.02804   0.05962   0.00000  Uiso   1.00
N51    N     0.24716   0.00397   0.24002   0.00000  Uiso   1.00
O52    O     0.27429   0.32793   0.20179   0.00000  Uiso   1.00
O53    O     0.27586   0.01909   0.27423   0.00000  Uiso   1.00
N54    N     0.08618   0.32936   0.25998   0.00000  Uiso   1.00
O55    O     0.05904   0.00540   0.29821   0.00000  Uiso   1.00
O56    O     0.05747   0.31424   0.22577   0.00000  Uiso   1.00
I57    I     0.01206   0.10603   0.18600   0.00000  Uiso   1.00
I58    I     0.32127   0.22730   0.31400   0.00000  Uiso   1.00
O59    O     0.46308   0.24619   0.25299   0.00000  Uiso   1.00
O60    O     0.53692   0.08714   0.24702   0.00000  Uiso   1.00
O61    O     0.55946   0.23721   0.24519   0.00000  Uiso   1.00
O62    O     0.44054   0.09613   0.25482   0.00000  Uiso   1.00
C63    C     0.51471   0.26447   0.24882   0.00000  Uiso   1.00
C64    C     0.48529   0.06886   0.25118   0.00000  Uiso   1.00
O65    O     0.45181   0.17117   0.31998   0.00000  Uiso   1.00
O66    O     0.54819   0.16216   0.18003   0.00000  Uiso   1.00
O67    O     0.54819   0.16219   0.31218   0.00000  Uiso   1.00
O68    O     0.45181   0.17115   0.18783   0.00000  Uiso   1.00
C69    C     0.50091   0.16564   0.33619   0.00000  Uiso   1.00
C70    C     0.49909   0.16770   0.16381   0.00000  Uiso   1.00
Zn71   Zn    0.43565   0.17266   0.25521   0.00000  Uiso   1.00
Zn72   Zn    0.56435   0.16067   0.24479   0.00000  Uiso   1.00
C73    C     0.48965   0.12234   0.09334   0.00000  Uiso   1.00
C74    C     0.51035   0.21100   0.40666   0.00000  Uiso   1.00
C75    C     0.49669   0.16808   0.11612   0.00000  Uiso   1.00
C76    C     0.50331   0.16525   0.38389   0.00000  Uiso   1.00
C77    C     0.50541   0.21345   0.09363   0.00000  Uiso   1.00
C78    C     0.49459   0.11989   0.40637   0.00000  Uiso   1.00
C79    C     0.51473   0.21227   0.04674   0.00000  Uiso   1.00
C80    C     0.48527   0.12106   0.45326   0.00000  Uiso   1.00
C81    C     0.49951   0.16701   0.02342   0.00000  Uiso   1.00
C82    C     0.50049   0.16632   0.47658   0.00000  Uiso   1.00
C83    C     0.48298   0.12249   0.04713   0.00000  Uiso   1.00
C84    C     0.51702   0.21084   0.45287   0.00000  Uiso   1.00
C85    C     0.53998   0.25375   0.02264   0.00000  Uiso   1.00
C86    C     0.46002   0.07959   0.47736   0.00000  Uiso   1.00
C87    C     0.54185   0.25260   0.47558   0.00000  Uiso   1.00
C88    C     0.45815   0.08074   0.02442   0.00000  Uiso   1.00
C89    C     0.52268   0.31819   0.24742   0.00000  Uiso   1.00
C90    C     0.47732   0.01514   0.25258   0.00000  Uiso   1.00
N91    N     0.65011   0.15265   0.23783   0.00000  Uiso   1.00
N92    N     0.34989   0.18068   0.26217   0.00000  Uiso   1.00
N93    N     0.49944   0.07681   0.11606   0.00000  Uiso   1.00
O94    O     0.46459   0.06257   0.14923   0.00000  Uiso   1.00
O95    O     0.55123   0.06162   0.11474   0.00000  Uiso   1.00
N96    N     0.50056   0.25652   0.38395   0.00000  Uiso   1.00
O97    O     0.53541   0.27077   0.35077   0.00000  Uiso   1.00
O98    O     0.44877   0.27171   0.38526   0.00000  Uiso   1.00
I99    I     0.49505   0.28092   0.13216   0.00000  Uiso   1.00
I100   I     0.50495   0.05241   0.36784   0.00000  Uiso   1.00
N101   N     0.57180   0.29308   0.04508   0.00000  Uiso   1.00
O102   O     0.61296   0.28189   0.07001   0.00000  Uiso   1.00
O103   O     0.56339   0.00678   0.03735   0.00000  Uiso   1.00
N104   N     0.42820   0.04025   0.45492   0.00000  Uiso   1.00
O105   O     0.38704   0.05145   0.43000   0.00000  Uiso   1.00
O106   O     0.43662   0.32655   0.46265   0.00000  Uiso   1.00
I107   I     0.59932   0.30529   0.44038   0.00000  Uiso   1.00
I108   I     0.40068   0.02804   0.05962   0.00000  Uiso   1.00
N109   N     0.58049   0.00397   0.24002   0.00000  Uiso   1.00
O110   O     0.60762   0.32793   0.20179   0.00000  Uiso   1.00
O111   O     0.60919   0.01909   0.27423   0.00000  Uiso   1.00
N112   N     0.41951   0.32936   0.25998   0.00000  Uiso   1.00
O113   O     0.39238   0.00540   0.29821   0.00000  Uiso   1.00
O114   O     0.39081   0.31424   0.22577   0.00000  Uiso   1.00
I115   I     0.34539   0.10603   0.18600   0.00000  Uiso   1.00
I116   I     0.65461   0.22730   0.31400   0.00000  Uiso   1.00
O117   O     0.79642   0.24619   0.25299   0.00000  Uiso   1.00
O118   O     0.87025   0.08714   0.24702   0.00000  Uiso   1.00
O119   O     0.89280   0.23721   0.24519   0.00000  Uiso   1.00
O120   O     0.77387   0.09613   0.25482   0.00000  Uiso   1.00
C121   C     0.84804   0.26447   0.24882   0.00000  Uiso   1.00
C122   C     0.81863   0.06886   0.25118   0.00000  Uiso   1.00
O123   O     0.78514   0.17117   0.31998   0.00000  Uiso   1.00
O124   O     0.88153   0.16216   0.18003   0.00000  Uiso   1.00
O125   O     0.88152   0.16219   0.31218   0.00000  Uiso   1.00
O126   O     0.78515   0.17115   0.18783   0.00000  Uiso   1.00
C127   C     0.83424   0.16564   0.33619   0.00000  Uiso   1.00
C128   C     0.83242   0.16770   0.16381   0.00000  Uiso   1.00
Zn129  Zn    0.76898   0.17266   0.25521   0.00000  Uiso   1.00
Zn130  Zn    0.89769   0.16067   0.24479   0.00000  Uiso   1.00
C131   C     0.82299   0.12234   0.09334   0.00000  Uiso   1.00
C132   C     0.84368   0.21100   0.40666   0.00000  Uiso   1.00
C133   C     0.83003   0.16808   0.11612   0.00000  Uiso   1.00
C134   C     0.83664   0.16525   0.38389   0.00000  Uiso   1.00
C135   C     0.83875   0.21345   0.09363   0.00000  Uiso   1.00
C136   C     0.82792   0.11989   0.40637   0.00000  Uiso   1.00
C137   C     0.84807   0.21227   0.04674   0.00000  Uiso   1.00
C138   C     0.81860   0.12106   0.45326   0.00000  Uiso   1.00
C139   C     0.83284   0.16701   0.02342   0.00000  Uiso   1.00
C140   C     0.83382   0.16632   0.47658   0.00000  Uiso   1.00
C141   C     0.81631   0.12249   0.04713   0.00000  Uiso   1.00
C142   C     0.85035   0.21084   0.45287   0.00000  Uiso   1.00
C143   C     0.87332   0.25375   0.02264   0.00000  Uiso   1.00
C144   C     0.79335   0.07959   0.47736   0.00000  Uiso   1.00
C145   C     0.87518   0.25260   0.47558   0.00000  Uiso   1.00
C146   C     0.79148   0.08074   0.02442   0.00000  Uiso   1.00
C147   C     0.85601   0.31819   0.24742   0.00000  Uiso   1.00
C148   C     0.81066   0.01514   0.25258   0.00000  Uiso   1.00
N149   N     0.98344   0.15265   0.23783   0.00000  Uiso   1.00
N150   N     0.68322   0.18068   0.26217   0.00000  Uiso   1.00
N151   N     0.83277   0.07681   0.11606   0.00000  Uiso   1.00
O152   O     0.79792   0.06257   0.14923   0.00000  Uiso   1.00
O153   O     0.88456   0.06162   0.11474   0.00000  Uiso   1.00
N154   N     0.83389   0.25652   0.38395   0.00000  Uiso   1.00
O155   O     0.86875   0.27077   0.35077   0.00000  Uiso   1.00
O156   O     0.78210   0.27171   0.38526   0.00000  Uiso   1.00
I157   I     0.82839   0.28092   0.13216   0.00000  Uiso   1.00
I158   I     0.83828   0.05241   0.36784   0.00000  Uiso   1.00
N159   N     0.90513   0.29308   0.04508   0.00000  Uiso   1.00
O160   O     0.94629   0.28189   0.07001   0.00000  Uiso   1.00
O161   O     0.89672   0.00678   0.03735   0.00000  Uiso   1.00
N162   N     0.76153   0.04025   0.45492   0.00000  Uiso   1.00
O163   O     0.72037   0.05145   0.43000   0.00000  Uiso   1.00
O164   O     0.76995   0.32655   0.46265   0.00000  Uiso   1.00
I165   I     0.93266   0.30529   0.44038   0.00000  Uiso   1.00
I166   I     0.73401   0.02804   0.05962   0.00000  Uiso   1.00
N167   N     0.91382   0.00397   0.24002   0.00000  Uiso   1.00
O168   O     0.94096   0.32793   0.20179   0.00000  Uiso   1.00
O169   O     0.94253   0.01909   0.27423   0.00000  Uiso   1.00
N170   N     0.75284   0.32936   0.25998   0.00000  Uiso   1.00
O171   O     0.72571   0.00540   0.29821   0.00000  Uiso   1.00
O172   O     0.72414   0.31424   0.22577   0.00000  Uiso   1.00
I173   I     0.67873   0.10603   0.18600   0.00000  Uiso   1.00
I174   I     0.98794   0.22730   0.31400   0.00000  Uiso   1.00
O175   O     0.12975   0.57952   0.25299   0.00000  Uiso   1.00
O176   O     0.20358   0.42048   0.24702   0.00000  Uiso   1.00
O177   O     0.22613   0.57054   0.24519   0.00000  Uiso   1.00
O178   O     0.10720   0.42946   0.25482   0.00000  Uiso   1.00
C179   C     0.18137   0.59781   0.24882   0.00000  Uiso   1.00
C180   C     0.15196   0.40219   0.25118   0.00000  Uiso   1.00
O181   O     0.11847   0.50450   0.31998   0.00000  Uiso   1.00
O182   O     0.21486   0.49550   0.18003   0.00000  Uiso   1.00
O183   O     0.21485   0.49552   0.31218   0.00000  Uiso   1.00
O184   O     0.11848   0.50448   0.18783   0.00000  Uiso   1.00
C185   C     0.16758   0.49897   0.33619   0.00000  Uiso   1.00
C186   C     0.16576   0.50103   0.16381   0.00000  Uiso   1.00
Zn187  Zn    0.10231   0.50600   0.25521   0.00000  Uiso   1.00
Zn188  Zn    0.23102   0.49400   0.24479   0.00000  Uiso   1.00
C189   C     0.15632   0.45567   0.09334   0.00000  Uiso   1.00
C190   C     0.17701   0.54433   0.40666   0.00000  Uiso   1.00
C191   C     0.16336   0.50142   0.11612   0.00000  Uiso   1.00
C192   C     0.16997   0.49858   0.38389   0.00000  Uiso   1.00
C193   C     0.17208   0.54678   0.09363   0.00000  Uiso   1.00
C194   C     0.16125   0.45322   0.40637   0.00000  Uiso   1.00
C195   C     0.18140   0.54561   0.04674   0.00000  Uiso   1.00
C196   C     0.15193   0.45439   0.45326   0.00000  Uiso   1.00
C197   C     0.16618   0.50035   0.02342   0.00000  Uiso   1.00
C198   C     0.16716   0.49965   0.47658   0.00000  Uiso   1.00
C199   C     0.14965   0.45583   0.04713   0.00000  Uiso   1.00
C200   C     0.18369   0.54417   0.45287   0.00000  Uiso   1.00
C201   C     0.20665   0.58708   0.02264   0.00000  Uiso   1.00
C202   C     0.12668   0.41292   0.47736   0.00000  Uiso   1.00
C203   C     0.20852   0.58593   0.47558   0.00000  Uiso   1.00
C204   C     0.12482   0.41407   0.02442   0.00000  Uiso   1.00
C205   C     0.18934   0.65153   0.24742   0.00000  Uiso   1.00
C206   C     0.14399   0.34847   0.25258   0.00000  Uiso   1.00
N207   N     0.31678   0.48598   0.23783   0.00000  Uiso   1.00
N208   N     0.01656   0.51402   0.26217   0.00000  Uiso   1.00
N209   N     0.16611   0.41015   0.11606   0.00000  Uiso   1.00
O210   O     0.13126   0.39590   0.14923   0.00000  Uiso   1.00
O211   O     0.21790   0.39495   0.11474   0.00000  Uiso   1.00
N212   N     0.16723   0.58985   0.38395   0.00000  Uiso   1.00
O213   O     0.20208   0.60410   0.35077   0.00000  Uiso   1.00
O214   O     0.11543   0.60504   0.38526   0.00000  Uiso   1.00
I215   I     0.16172   0.61425   0.13216   0.00000  Uiso   1.00
I216   I     0.17161   0.38575   0.36784   0.00000  Uiso   1.00
N217   N     0.23847   0.62642   0.04508   0.00000  Uiso   1.00
O218   O     0.27963   0.61522   0.07001   0.00000  Uiso   1.00
O219   O     0.23005   0.34012   0.03735   0.00000  Uiso   1.00
N220   N     0.09487   0.37358   0.45492   0.00000  Uiso   1.00
O221   O     0.05371   0.38478   0.43000   0.00000  Uiso   1.00
O222   O     0.10328   0.65988   0.46265   0.00000  Uiso   1.00
I223   I     0.26599   0.63863   0.44038   0.00000  Uiso   1.00
I224   I     0.06735   0.36137   0.05962   0.00000  Uiso   1.00
N225   N     0.24716   0.33731   0.24002   0.00000  Uiso   1.00
O226   O     0.27429   0.66127   0.20179   0.00000  Uiso   1.00
O227   O     0.27586   0.35242   0.27423   0.00000  Uiso   1.00
N228   N     0.08618   0.66269   0.25998   0.00000  Uiso   1.00
O229   O     0.05904   0.33873   0.29821   0.00000  Uiso   1.00
O230   O     0.05747   0.64758   0.22577   0.00000  Uiso   1.00
I231   I     0.01206   0.43936   0.18600   0.00000  Uiso   1.00
I232   I     0.32127   0.56064   0.31400   0.00000  Uiso   1.00
O233   O     0.46308   0.57952   0.25299   0.00000  Uiso   1.00
O234   O     0.53692   0.42048   0.24702   0.00000  Uiso   1.00
O235   O     0.55946   0.57054   0.24519   0.00000  Uiso   1.00
O236   O     0.44054   0.42946   0.25482   0.00000  Uiso   1.00
C237   C     0.51471   0.59781   0.24882   0.00000  Uiso   1.00
C238   C     0.48529   0.40219   0.25118   0.00000  Uiso   1.00
O239   O     0.45181   0.50450   0.31998   0.00000  Uiso   1.00
O240   O     0.54819   0.49550   0.18003   0.00000  Uiso   1.00
O241   O     0.54819   0.49552   0.31218   0.00000  Uiso   1.00
O242   O     0.45181   0.50448   0.18783   0.00000  Uiso   1.00
C243   C     0.50091   0.49897   0.33619   0.00000  Uiso   1.00
C244   C     0.49909   0.50103   0.16381   0.00000  Uiso   1.00
Zn245  Zn    0.43565   0.50600   0.25521   0.00000  Uiso   1.00
Zn246  Zn    0.56435   0.49400   0.24479   0.00000  Uiso   1.00
C247   C     0.48965   0.45567   0.09334   0.00000  Uiso   1.00
C248   C     0.51035   0.54433   0.40666   0.00000  Uiso   1.00
C249   C     0.49669   0.50142   0.11612   0.00000  Uiso   1.00
C250   C     0.50331   0.49858   0.38389   0.00000  Uiso   1.00
C251   C     0.50541   0.54678   0.09363   0.00000  Uiso   1.00
C252   C     0.49459   0.45322   0.40637   0.00000  Uiso   1.00
C253   C     0.51473   0.54561   0.04674   0.00000  Uiso   1.00
C254   C     0.48527   0.45439   0.45326   0.00000  Uiso   1.00
C255   C     0.49951   0.50035   0.02342   0.00000  Uiso   1.00
C256   C     0.50049   0.49965   0.47658   0.00000  Uiso   1.00
C257   C     0.48298   0.45583   0.04713   0.00000  Uiso   1.00
C258   C     0.51702   0.54417   0.45287   0.00000  Uiso   1.00
C259   C     0.53998   0.58708   0.02264   0.00000  Uiso   1.00
C260   C     0.46002   0.41292   0.47736   0.00000  Uiso   1.00
C261   C     0.54185   0.58593   0.47558   0.00000  Uiso   1.00
C262   C     0.45815   0.41407   0.02442   0.00000  Uiso   1.00
C263   C     0.52268   0.65153   0.24742   0.00000  Uiso   1.00
C264   C     0.47732   0.34847   0.25258   0.00000  Uiso   1.00
N265   N     0.65011   0.48598   0.23783   0.00000  Uiso   1.00
N266   N     0.34989   0.51402   0.26217   0.00000  Uiso   1.00
N267   N     0.49944   0.41015   0.11606   0.00000  Uiso   1.00
O268   O     0.46459   0.39590   0.14923   0.00000  Uiso   1.00
O269   O     0.55123   0.39495   0.11474   0.00000  Uiso   1.00
N270   N     0.50056   0.58985   0.38395   0.00000  Uiso   1.00
O271   O     0.53541   0.60410   0.35077   0.00000  Uiso   1.00
O272   O     0.44877   0.60504   0.38526   0.00000  Uiso   1.00
I273   I     0.49505   0.61425   0.13216   0.00000  Uiso   1.00
I274   I     0.50495   0.38575   0.36784   0.00000  Uiso   1.00
N275   N     0.57180   0.62642   0.04508   0.00000  Uiso   1.00
O276   O     0.61296   0.61522   0.07001   0.00000  Uiso   1.00
O277   O     0.56339   0.34012   0.03735   0.00000  Uiso   1.00
N278   N     0.42820   0.37358   0.45492   0.00000  Uiso   1.00
O279   O     0.38704   0.38478   0.43000   0.00000  Uiso   1.00
O280   O     0.43662   0.65988   0.46265   0.00000  Uiso   1.00
I281   I     0.59932   0.63863   0.44038   0.00000  Uiso   1.00
I282   I     0.40068   0.36137   0.05962   0.00000  Uiso   1.00
N283   N     0.58049   0.33731   0.24002   0.00000  Uiso   1.00
O284   O     0.60762   0.66127   0.20179   0.00000  Uiso   1.00
O285   O     0.60919   0.35242   0.27423   0.00000  Uiso   1.00
N286   N     0.41951   0.66269   0.25998   0.00000  Uiso   1.00
O287   O     0.39238   0.33873   0.29821   0.00000  Uiso   1.00
O288   O     0.39081   0.64758   0.22577   0.00000  Uiso   1.00
I289   I     0.34539   0.43936   0.18600   0.00000  Uiso   1.00
I290   I     0.65461   0.56064   0.31400   0.00000  Uiso   1.00
O291   O     0.79642   0.57952   0.25299   0.00000  Uiso   1.00
O292   O     0.87025   0.42048   0.24702   0.00000  Uiso   1.00
O293   O     0.89280   0.57054   0.24519   0.00000  Uiso   1.00
O294   O     0.77387   0.42946   0.25482   0.00000  Uiso   1.00
C295   C     0.84804   0.59781   0.24882   0.00000  Uiso   1.00
C296   C     0.81863   0.40219   0.25118   0.00000  Uiso   1.00
O297   O     0.78514   0.50450   0.31998   0.00000  Uiso   1.00
O298   O     0.88153   0.49550   0.18003   0.00000  Uiso   1.00
O299   O     0.88152   0.49552   0.31218   0.00000  Uiso   1.00
O300   O     0.78515   0.50448   0.18783   0.00000  Uiso   1.00
C301   C     0.83424   0.49897   0.33619   0.00000  Uiso   1.00
C302   C     0.83242   0.50103   0.16381   0.00000  Uiso   1.00
Zn303  Zn    0.76898   0.50600   0.25521   0.00000  Uiso   1.00
Zn304  Zn    0.89769   0.49400   0.24479   0.00000  Uiso   1.00
C305   C     0.82299   0.45567   0.09334   0.00000  Uiso   1.00
C306   C     0.84368   0.54433   0.40666   0.00000  Uiso   1.00
C307   C     0.83003   0.50142   0.11612   0.00000  Uiso   1.00
C308   C     0.83664   0.49858   0.38389   0.00000  Uiso   1.00
C309   C     0.83875   0.54678   0.09363   0.00000  Uiso   1.00
C310   C     0.82792   0.45322   0.40637   0.00000  Uiso   1.00
C311   C     0.84807   0.54561   0.04674   0.00000  Uiso   1.00
C312   C     0.81860   0.45439   0.45326   0.00000  Uiso   1.00
C313   C     0.83284   0.50035   0.02342   0.00000  Uiso   1.00
C314   C     0.83382   0.49965   0.47658   0.00000  Uiso   1.00
C315   C     0.81631   0.45583   0.04713   0.00000  Uiso   1.00
C316   C     0.85035   0.54417   0.45287   0.00000  Uiso   1.00
C317   C     0.87332   0.58708   0.02264   0.00000  Uiso   1.00
C318   C     0.79335   0.41292   0.47736   0.00000  Uiso   1.00
C319   C     0.87518   0.58593   0.47558   0.00000  Uiso   1.00
C320   C     0.79148   0.41407   0.02442   0.00000  Uiso   1.00
C321   C     0.85601   0.65153   0.24742   0.00000  Uiso   1.00
C322   C     0.81066   0.34847   0.25258   0.00000  Uiso   1.00
N323   N     0.98344   0.48598   0.23783   0.00000  Uiso   1.00
N324   N     0.68322   0.51402   0.26217   0.00000  Uiso   1.00
N325   N     0.83277   0.41015   0.11606   0.00000  Uiso   1.00
O326   O     0.79792   0.39590   0.14923   0.00000  Uiso   1.00
O327   O     0.88456   0.39495   0.11474   0.00000  Uiso   1.00
N328   N     0.83389   0.58985   0.38395   0.00000  Uiso   1.00
O329   O     0.86875   0.60410   0.35077   0.00000  Uiso   1.00
O330   O     0.78210   0.60504   0.38526   0.00000  Uiso   1.00
I331   I     0.82839   0.61425   0.13216   0.00000  Uiso   1.00
I332   I     0.83828   0.38575   0.36784   0.00000  Uiso   1.00
N333   N     0.90513   0.62642   0.04508   0.00000  Uiso   1.00
O334   O     0.94629   0.61522   0.07001   0.00000  Uiso   1.00
O335   O     0.89672   0.34012   0.03735   0.00000  Uiso   1.00
N336   N     0.76153   0.37358   0.45492   0.00000  Uiso   1.00
O337   O     0.72037   0.38478   0.43000   0.00000  Uiso   1.00
O338   O     0.76995   0.65988   0.46265   0.00000  Uiso   1.00
I339   I     0.93266   0.63863   0.44038   0.00000  Uiso   1.00
I340   I     0.73401   0.36137   0.05962   0.00000  Uiso   1.00
N341   N     0.91382   0.33731   0.24002   0.00000  Uiso   1.00
O342   O     0.94096   0.66127   0.20179   0.00000  Uiso   1.00
O343   O     0.94253   0.35242   0.27423   0.00000  Uiso   1.00
N344   N     0.75284   0.66269   0.25998   0.00000  Uiso   1.00
O345   O     0.72571   0.33873   0.29821   0.00000  Uiso   1.00
O346   O     0.72414   0.64758   0.22577   0.00000  Uiso   1.00
I347   I     0.67873   0.43936   0.18600   0.00000  Uiso   1.00
I348   I     0.98794   0.56064   0.31400   0.00000  Uiso   1.00
O349   O     0.12975   0.91286   0.25299   0.00000  Uiso   1.00
O350   O     0.20358   0.75381   0.24702   0.00000  Uiso   1.00
O351   O     0.22613   0.90387   0.24519   0.00000  Uiso   1.00
O352   O     0.10720   0.76279   0.25482   0.00000  Uiso   1.00
C353   C     0.18137   0.93114   0.24882   0.00000  Uiso   1.00
C354   C     0.15196   0.73553   0.25118   0.00000  Uiso   1.00
O355   O     0.11847   0.83784   0.31998   0.00000  Uiso   1.00
O356   O     0.21486   0.82883   0.18003   0.00000  Uiso   1.00
O357   O     0.21485   0.82885   0.31218   0.00000  Uiso   1.00
O358   O     0.11848   0.83781   0.18783   0.00000  Uiso   1.00
C359   C     0.16758   0.83230   0.33619   0.00000  Uiso   1.00
C360   C     0.16576   0.83437   0.16381   0.00000  Uiso   1.00
Zn361  Zn    0.10231   0.83933   0.25521   0.00000  Uiso   1.00
Zn362  Zn    0.23102   0.82734   0.24479   0.00000  Uiso   1.00
C363   C     0.15632   0.78900   0.09334   0.00000  Uiso   1.00
C364   C     0.17701   0.87766   0.40666   0.00000  Uiso   1.00
C365   C     0.16336   0.83475   0.11612   0.00000  Uiso   1.00
C366   C     0.16997   0.83192   0.38389   0.00000  Uiso   1.00
C367   C     0.17208   0.88011   0.09363   0.00000  Uiso   1.00
C368   C     0.16125   0.78655   0.40637   0.00000  Uiso   1.00
C369   C     0.18140   0.87894   0.04674   0.00000  Uiso   1.00
C370   C     0.15193   0.78773   0.45326   0.00000  Uiso   1.00
C371   C     0.16618   0.83368   0.02342   0.00000  Uiso   1.00
C372   C     0.16716   0.83299   0.47658   0.00000  Uiso   1.00
C373   C     0.14965   0.78916   0.04713   0.00000  Uiso   1.00
C374   C     0.18369   0.87750   0.45287   0.00000  Uiso   1.00
C375   C     0.20665   0.92041   0.02264   0.00000  Uiso   1.00
C376   C     0.12668   0.74625   0.47736   0.00000  Uiso   1.00
C377   C     0.20852   0.91926   0.47558   0.00000  Uiso   1.00
C378   C     0.12482   0.74740   0.02442   0.00000  Uiso   1.00
C379   C     0.18934   0.98486   0.24742   0.00000  Uiso   1.00
C380   C     0.14399   0.68181   0.25258   0.00000  Uiso   1.00
N381   N     0.31678   0.81932   0.23783   0.00000  Uiso   1.00
N382   N     0.01656   0.84735   0.26217   0.00000  Uiso   1.00
N383   N     0.16611   0.74348   0.11606   0.00000  Uiso   1.00
O384   O     0.13126   0.72923   0.14923   0.00000  Uiso   1.00
O385   O     0.21790   0.72829   0.11474   0.00000  Uiso   1.00
N386   N     0.16723   0.92319   0.38395   0.00000  Uiso   1.00
O387   O     0.20208   0.93743   0.35077   0.00000  Uiso   1.00
O388   O     0.11543   0.93838   0.38526   0.00000  Uiso   1.00
I389   I     0.16172   0.94759   0.13216   0.00000  Uiso   1.00
I390   I     0.17161   0.71908   0.36784   0.00000  Uiso   1.00
N391   N     0.23847   0.95975   0.04508   0.00000  Uiso   1.00
O392   O     0.27963   0.94855   0.07001   0.00000  Uiso   1.00
O393   O     0.23005   0.67345   0.03735   0.00000  Uiso   1.00
N394   N     0.09487   0.70692   0.45492   0.00000  Uiso   1.00
O395   O     0.05371   0.71812   0.43000   0.00000  Uiso   1.00
O396   O     0.10328   0.99322   0.46265   0.00000  Uiso   1.00
I397   I     0.26599   0.97196   0.44038   0.00000  Uiso   1.00
I398   I     0.06735   0.69471   0.05962   0.00000  Uiso   1.00
N399   N     0.24716   0.67064   0.24002   0.00000  Uiso   1.00
O400   O     0.27429   0.99460   0.20179   0.00000  Uiso   1.00
O401   O     0.27586   0.68576   0.27423   0.00000  Uiso   1.00
N402   N     0.08618   0.99603   0.25998   0.00000  Uiso   1.00
O403   O     0.05904   0.67207   0.29821   0.00000  Uiso   1.00
O404   O     0.05747   0.98091   0.22577   0.00000  Uiso   1.00
I405   I     0.01206   0.77270   0.18600   0.00000  Uiso   1.00
I406   I     0.32127   0.89397   0.31400   0.00000  Uiso   1.00
O407   O     0.46308   0.91286   0.25299   0.00000  Uiso   1.00
O408   O     0.53692   0.75381   0.24702   0.00000  Uiso   1.00
O409   O     0.55946   0.90387   0.24519   0.00000  Uiso   1.00
O410   O     0.44054   0.76279   0.25482   0.00000  Uiso   1.00
C411   C     0.51471   0.93114   0.24882   0.00000  Uiso   1.00
C412   C     0.48529   0.73553   0.25118   0.00000  Uiso   1.00
O413   O     0.45181   0.83784   0.31998   0.00000  Uiso   1.00
O414   O     0.54819   0.82883   0.18003   0.00000  Uiso   1.00
O415   O     0.54819   0.82885   0.31218   0.00000  Uiso   1.00
O416   O     0.45181   0.83781   0.18783   0.00000  Uiso   1.00
C417   C     0.50091   0.83230   0.33619   0.00000  Uiso   1.00
C418   C     0.49909   0.83437   0.16381   0.00000  Uiso   1.00
Zn419  Zn    0.43565   0.83933   0.25521   0.00000  Uiso   1.00
Zn420  Zn    0.56435   0.82734   0.24479   0.00000  Uiso   1.00
C421   C     0.48965   0.78900   0.09334   0.00000  Uiso   1.00
C422   C     0.51035   0.87766   0.40666   0.00000  Uiso   1.00
C423   C     0.49669   0.83475   0.11612   0.00000  Uiso   1.00
C424   C     0.50331   0.83192   0.38389   0.00000  Uiso   1.00
C425   C     0.50541   0.88011   0.09363   0.00000  Uiso   1.00
C426   C     0.49459   0.78655   0.40637   0.00000  Uiso   1.00
C427   C     0.51473   0.87894   0.04674   0.00000  Uiso   1.00
C428   C     0.48527   0.78773   0.45326   0.00000  Uiso   1.00
C429   C     0.49951   0.83368   0.02342   0.00000  Uiso   1.00
C430   C     0.50049   0.83299   0.47658   0.00000  Uiso   1.00
C431   C     0.48298   0.78916   0.04713   0.00000  Uiso   1.00
C432   C     0.51702   0.87750   0.45287   0.00000  Uiso   1.00
C433   C     0.53998   0.92041   0.02264   0.00000  Uiso   1.00
C434   C     0.46002   0.74625   0.47736   0.00000  Uiso   1.00
C435   C     0.54185   0.91926   0.47558   0.00000  Uiso   1.00
C436   C     0.45815   0.74740   0.02442   0.00000  Uiso   1.00
C437   C     0.52268   0.98486   0.24742   0.00000  Uiso   1.00
C438   C     0.47732   0.68181   0.25258   0.00000  Uiso   1.00
N439   N     0.65011   0.81932   0.23783   0.00000  Uiso   1.00
N440   N     0.34989   0.84735   0.26217   0.00000  Uiso   1.00
N441   N     0.49944   0.74348   0.11606   0.00000  Uiso   1.00
O442   O     0.46459   0.72923   0.14923   0.00000  Uiso   1.00
O443   O     0.55123   0.72829   0.11474   0.00000  Uiso   1.00
N444   N     0.50056   0.92319   0.38395   0.00000  Uiso   1.00
O445   O     0.53541   0.93743   0.35077   0.00000  Uiso   1.00
O446   O     0.44877   0.93838   0.38526   0.00000  Uiso   1.00
I447   I     0.49505   0.94759   0.13216   0.00000  Uiso   1.00
I448   I     0.50495   0.71908   0.36784   0.00000  Uiso   1.00
N449   N     0.57180   0.95975   0.04508   0.00000  Uiso   1.00
O450   O     0.61296   0.94855   0.07001   0.00000  Uiso   1.00
O451   O     0.56339   0.67345   0.03735   0.00000  Uiso   1.00
N452   N     0.42820   0.70692   0.45492   0.00000  Uiso   1.00
O453   O     0.38704   0.71812   0.43000   0.00000  Uiso   1.00
O454   O     0.43662   0.99322   0.46265   0.00000  Uiso   1.00
I455   I     0.59932   0.97196   0.44038   0.00000  Uiso   1.00
I456   I     0.40068   0.69471   0.05962   0.00000  Uiso   1.00
N457   N     0.58049   0.67064   0.24002   0.00000  Uiso   1.00
O458   O     0.60762   0.99460   0.20179   0.00000  Uiso   1.00
O459   O     0.60919   0.68576   0.27423   0.00000  Uiso   1.00
N460   N     0.41951   0.99603   0.25998   0.00000  Uiso   1.00
O461   O     0.39238   0.67207   0.29821   0.00000  Uiso   1.00
O462   O     0.39081   0.98091   0.22577   0.00000  Uiso   1.00
I463   I     0.34539   0.77270   0.18600   0.00000  Uiso   1.00
I464   I     0.65461   0.89397   0.31400   0.00000  Uiso   1.00
O465   O     0.79642   0.91286   0.25299   0.00000  Uiso   1.00
O466   O     0.87025   0.75381   0.24702   0.00000  Uiso   1.00
O467   O     0.89280   0.90387   0.24519   0.00000  Uiso   1.00
O468   O     0.77387   0.76279   0.25482   0.00000  Uiso   1.00
C469   C     0.84804   0.93114   0.24882   0.00000  Uiso   1.00
C470   C     0.81863   0.73553   0.25118   0.00000  Uiso   1.00
O471   O     0.78514   0.83784   0.31998   0.00000  Uiso   1.00
O472   O     0.88153   0.82883   0.18003   0.00000  Uiso   1.00
O473   O     0.88152   0.82885   0.31218   0.00000  Uiso   1.00
O474   O     0.78515   0.83781   0.18783   0.00000  Uiso   1.00
C475   C     0.83424   0.83230   0.33619   0.00000  Uiso   1.00
C476   C     0.83242   0.83437   0.16381   0.00000  Uiso   1.00
Zn477  Zn    0.76898   0.83933   0.25521   0.00000  Uiso   1.00
Zn478  Zn    0.89769   0.82734   0.24479   0.00000  Uiso   1.00
C479   C     0.82299   0.78900   0.09334   0.00000  Uiso   1.00
C480   C     0.84368   0.87766   0.40666   0.00000  Uiso   1.00
C481   C     0.83003   0.83475   0.11612   0.00000  Uiso   1.00
C482   C     0.83664   0.83192   0.38389   0.00000  Uiso   1.00
C483   C     0.83875   0.88011   0.09363   0.00000  Uiso   1.00
C484   C     0.82792   0.78655   0.40637   0.00000  Uiso   1.00
C485   C     0.84807   0.87894   0.04674   0.00000  Uiso   1.00
C486   C     0.81860   0.78773   0.45326   0.00000  Uiso   1.00
C487   C     0.83284   0.83368   0.02342   0.00000  Uiso   1.00
C488   C     0.83382   0.83299   0.47658   0.00000  Uiso   1.00
C489   C     0.81631   0.78916   0.04713   0.00000  Uiso   1.00
C490   C     0.85035   0.87750   0.45287   0.00000  Uiso   1.00
C491   C     0.87332   0.92041   0.02264   0.00000  Uiso   1.00
C492   C     0.79335   0.74625   0.47736   0.00000  Uiso   1.00
C493   C     0.87518   0.91926   0.47558   0.00000  Uiso   1.00
C494   C     0.79148   0.74740   0.02442   0.00000  Uiso   1.00
C495   C     0.85601   0.98486   0.24742   0.00000  Uiso   1.00
C496   C     0.81066   0.68181   0.25258   0.00000  Uiso   1.00
N497   N     0.98344   0.81932   0.23783   0.00000  Uiso   1.00
N498   N     0.68322   0.84735   0.26217   0.00000  Uiso   1.00
N499   N     0.83277   0.74348   0.11606   0.00000  Uiso   1.00
O500   O     0.79792   0.72923   0.14923   0.00000  Uiso   1.00
O501   O     0.88456   0.72829   0.11474   0.00000  Uiso   1.00
N502   N     0.83389   0.92319   0.38395   0.00000  Uiso   1.00
O503   O     0.86875   0.93743   0.35077   0.00000  Uiso   1.00
O504   O     0.78210   0.93838   0.38526   0.00000  Uiso   1.00
I505   I     0.82839   0.94759   0.13216   0.00000  Uiso   1.00
I506   I     0.83828   0.71908   0.36784   0.00000  Uiso   1.00
N507   N     0.90513   0.95975   0.04508   0.00000  Uiso   1.00
O508   O     0.94629   0.94855   0.07001   0.00000  Uiso   1.00
O509   O     0.89672   0.67345   0.03735   0.00000  Uiso   1.00
N510   N     0.76153   0.70692   0.45492   0.00000  Uiso   1.00
O511   O     0.72037   0.71812   0.43000   0.00000  Uiso   1.00
O512   O     0.76995   0.99322   0.46265   0.00000  Uiso   1.00
I513   I     0.93266   0.97196   0.44038   0.00000  Uiso   1.00
I514   I     0.73401   0.69471   0.05962   0.00000  Uiso   1.00
N515   N     0.91382   0.67064   0.24002   0.00000  Uiso   1.00
O516   O     0.94096   0.99460   0.20179   0.00000  Uiso   1.00
O517   O     0.94253   0.68576   0.27423   0.00000  Uiso   1.00
N518   N     0.75284   0.99603   0.25998   0.00000  Uiso   1.00
O519   O     0.72571   0.67207   0.29821   0.00000  Uiso   1.00
O520   O     0.72414   0.98091   0.22577   0.00000  Uiso   1.00
I521   I     0.67873   0.77270   0.18600   0.00000  Uiso   1.00
I522   I     0.98794   0.89397   0.31400   0.00000  Uiso   1.00
O523   O     0.12975   0.24619   0.75299   0.00000  Uiso   1.00
O524   O     0.20358   0.08714   0.74702   0.00000  Uiso   1.00
O525   O     0.22613   0.23721   0.74519   0.00000  Uiso   1.00
O526   O     0.10720   0.09613   0.75482   0.00000  Uiso   1.00
C527   C     0.18137   0.26447   0.74882   0.00000  Uiso   1.00
C528   C     0.15196   0.06886   0.75118   0.00000  Uiso   1.00
O529   O     0.11847   0.17117   0.81998   0.00000  Uiso   1.00
O530   O     0.21486   0.16216   0.68003   0.00000  Uiso   1.00
O531   O     0.21485   0.16219   0.81218   0.00000  Uiso   1.00
O532   O     0.11848   0.17115   0.68783   0.00000  Uiso   1.00
C533   C     0.16758   0.16564   0.83619   0.00000  Uiso   1.00
C534   C     0.16576   0.16770   0.66381   0.00000  Uiso   1.00
Zn535  Zn    0.10231   0.17266   0.75521   0.00000  Uiso   1.00
Zn536  Zn    0.23102   0.16067   0.74479   0.00000  Uiso   1.00
C537   C     0.15632   0.12234   0.59334   0.00000  Uiso   1.00
C538   C     0.17701   0.21100   0.90666   0.00000  Uiso   1.00
C539   C     0.16336   0.16808   0.61612   0.00000  Uiso   1.00
C540   C     0.16997   0.16525   0.88389   0.00000  Uiso   1.00
C541   C     0.17208   0.21345   0.59363   0.00000  Uiso   1.00
C542   C     0.16125   0.11989   0.90637   0.00000  Uiso   1.00
C543   C     0.18140   0.21227   0.54674   0.00000  Uiso   1.00
C544   C     0.15193   0.12106   0.95326   0.00000  Uiso   1.00
C545   C     0.16618   0.16701   0.52342   0.00000  Uiso   1.00
C546   C     0.16716   0.16632   0.97658   0.00000  Uiso   1.00
C547   C     0.14965   0.12249   0.54713   0.00000  Uiso   1.00
C548   C     0.18369   0.21084   0.95287   0.00000  Uiso   1.00
C549   C     0.20665   0.25375   0.52264   0.00000  Uiso   1.00
C550   C     0.12668   0.07959   0.97736   0.00000  Uiso   1.00
C551   C     0.20852   0.25260   0.97558   0.00000  Uiso   1.00
C552   C     0.12482   0.08074   0.52442   0.00000  Uiso   1.00
C553   C     0.18934   0.31819   0.74742   0.00000  Uiso   1.00
C554   C     0.14399   0.01514   0.75258   0.00000  Uiso   1.00
N555   N     0.31678   0.15265   0.73783   0.00000  Uiso   1.00
N556   N     0.01656   0.18068   0.76217   0.00000  Uiso   1.00
N557   N     0.16611   0.07681   0.61606   0.00000  Uiso   1.00
O558   O     0.13126   0.06257   0.64923   0.00000  Uiso   1.00
O559   O     0.21790   0.06162   0.61474   0.00000  Uiso   1.00
N560   N     0.16723   0.25652   0.88395   0.00000  Uiso   1.00
O561   O     0.20208   0.27077   0.85077   0.00000  Uiso   1.00
O562   O     0.11543   0.27171   0.88526   0.00000  Uiso   1.00
I563   I     0.16172   0.28092   0.63216   0.00000  Uiso   1.00
I564   I     0.17161   0.05241   0.86784   0.00000  Uiso   1.00
N565   N     0.23847   0.29308   0.54508   0.00000  Uiso   1.00
O566   O     0.27963   0.28189   0.57001   0.00000  Uiso   1.00
O567   O     0.23005   0.00678   0.53735   0.00000  Uiso   1.00
N568   N     0.09487   0.04025   0.95492   0.00000  Uiso   1.00
O569   O     0.05371   0.05145   0.93000   0.00000  Uiso   1.00
O570   O     0.10328   0.32655   0.96265   0.00000  Uiso   1.00
I571   I     0.26599   0.30529   0.94038   0.00000  Uiso   1.00
I572   I     0.06735   0.02804   0.55962   0.00000  Uiso   1.00
N573   N     0.24716   0.00397   0.74002   0.00000  Uiso   1.00
O574   O     0.27429   0.32793   0.70179   0.00000  Uiso   1.00
O575   O     0.27586   0.01909   0.77423   0.00000  Uiso   1.00
N576   N     0.08618   0.32936   0.75998   0.00000  Uiso   1.00
O577   O     0.05904   0.00540   0.79821   0.00000  Uiso   1.00
O578   O     0.05747   0.31424   0.72577   0.00000  Uiso   1.00
I579   I     0.01206   0.10603   0.68600   0.00000  Uiso   1.00
I580   I     0.32127   0.22730   0.81400   0.00000  Uiso   1.00
O581   O     0.46308   0.24619   0.75299   0.00000  Uiso   1.00
O582   O     0.53692   0.08714   0.74702   0.00000  Uiso   1.00
O583   O     0.55946   0.23721   0.74519   0.00000  Uiso   1.00
O584   O     0.44054   0.09613   0.75482   0.00000  Uiso   1.00
C585   C     0.51471   0.26447   0.74882   0.00000  Uiso   1.00
C586   C     0.48529   0.06886   0.75118   0.00000  Uiso   1.00
O587   O     0.45181   0.17117   0.81998   0.00000  Uiso   1.00
O588   O     0.54819   0.16216   0.68003   0.00000  Uiso   1.00
O589   O     0.54819   0.16219   0.81218   0.00000  Uiso   1.00
O590   O     0.45181   0.17115   0.68783   0.00000  Uiso   1.00
C591   C     0.50091   0.16564   0.83619   0.00000  Uiso   1.00
C592   C     0.49909   0.16770   0.66381   0.00000  Uiso   1.00
Zn593  Zn    0.43565   0.17266   0.75521   0.00000  Uiso   1.00
Zn594  Zn    0.56435   0.16067   0.74479   0.00000  Uiso   1.00
C595   C     0.48965   0.12234   0.59334   0.00000  Uiso   1.00
C596   C     0.51035   0.21100   0.90666   0.00000  Uiso   1.00
C597   C     0.49669   0.16808   0.61612   0.00000  Uiso   1.00
C598   C     0.50331   0.16525   0.88389   0.00000  Uiso   1.00
C599   C     0.50541   0.21345   0.59363   0.00000  Uiso   1.00
C600   C     0.49459   0.11989   0.90637   0.00000  Uiso   1.00
C601   C     0.51473   0.21227   0.54674   0.00000  Uiso   1.00
C602   C     0.48527   0.12106   0.95326   0.00000  Uiso   1.00
C603   C     0.49951   0.16701   0.52342   0.00000  Uiso   1.00
C604   C     0.50049   0.16632   0.97658   0.00000  Uiso   1.00
C605   C     0.48298   0.12249   0.54713   0.00000  Uiso   1.00
C606   C     0.51702   0.21084   0.95287   0.00000  Uiso   1.00
C607   C     0.53998   0.25375   0.52264   0.00000  Uiso   1.00
C608   C     0.46002   0.07959   0.97736   0.00000  Uiso   1.00
C609   C     0.54185   0.25260   0.97558   0.00000  Uiso   1.00
C610   C     0.45815   0.08074   0.52442   0.00000  Uiso   1.00
C611   C     0.52268   0.31819   0.74742   0.00000  Uiso   1.00
C612   C     0.47732   0.01514   0.75258   0.00000  Uiso   1.00
N613   N     0.65011   0.15265   0.73783   0.00000  Uiso   1.00
N614   N     0.34989   0.18068   0.76217   0.00000  Uiso   1.00
N615   N     0.49944   0.07681   0.61606   0.00000  Uiso   1.00
O616   O     0.46459   0.06257   0.64923   0.00000  Uiso   1.00
O617   O     0.55123   0.06162   0.61474   0.00000  Uiso   1.00
N618   N     0.50056   0.25652   0.88395   0.00000  Uiso   1.00
O619   O     0.53541   0.27077   0.85077   0.00000  Uiso   1.00
O620   O     0.44877   0.27171   0.88526   0.00000  Uiso   1.00
I621   I     0.49505   0.28092   0.63216   0.00000  Uiso   1.00
I622   I     0.50495   0.05241   0.86784   0.00000  Uiso   1.00
N623   N     0.57180   0.29308   0.54508   0.00000  Uiso   1.00
O624   O     0.61296   0.28189   0.57001   0.00000  Uiso   1.00
O625   O     0.56339   0.00678   0.53735   0.00000  Uiso   1.00
N626   N     0.42820   0.04025   0.95492   0.00000  Uiso   1.00
O627   O     0.38704   0.05145   0.93000   0.00000  Uiso   1.00
O628   O     0.43662   0.32655   0.96265   0.00000  Uiso   1.00
I629   I     0.59932   0.30529   0.94038   0.00000  Uiso   1.00
I630   I     0.40068   0.02804   0.55962   0.00000  Uiso   1.00
N631   N     0.58049   0.00397   0.74002   0.00000  Uiso   1.00
O632   O     0.60762   0.32793   0.70179   0.00000  Uiso   1.00
O633   O     0.60919   0.01909   0.77423   0.00000  Uiso   1.00
N634   N     0.41951   0.32936   0.75998   0.00000  Uiso   1.00
O635   O     0.39238   0.00540   0.79821   0.00000  Uiso   1.00
O636   O     0.39081   0.31424   0.72577   0.00000  Uiso   1.00
I637   I     0.34539   0.10603   0.68600   0.00000  Uiso   1.00
I638   I     0.65461   0.22730   0.81400   0.00000  Uiso   1.00
O639   O     0.79642   0.24619   0.75299   0.00000  Uiso   1.00
O640   O     0.87025   0.08714   0.74702   0.00000  Uiso   1.00
O641   O     0.89280   0.23721   0.74519   0.00000  Uiso   1.00
O642   O     0.77387   0.09613   0.75482   0.00000  Uiso   1.00
C643   C     0.84804   0.26447   0.74882   0.00000  Uiso   1.00
C644   C     0.81863   0.06886   0.75118   0.00000  Uiso   1.00
O645   O     0.78514   0.17117   0.81998   0.00000  Uiso   1.00
O646   O     0.88153   0.16216   0.68003   0.00000  Uiso   1.00
O647   O     0.88152   0.16219   0.81218   0.00000  Uiso   1.00
O648   O     0.78515   0.17115   0.68783   0.00000  Uiso   1.00
C649   C     0.83424   0.16564   0.83619   0.00000  Uiso   1.00
C650   C     0.83242   0.16770   0.66381   0.00000  Uiso   1.00
Zn651  Zn    0.76898   0.17266   0.75521   0.00000  Uiso   1.00
Zn652  Zn    0.89769   0.16067   0.74479   0.00000  Uiso   1.00
C653   C     0.82299   0.12234   0.59334   0.00000  Uiso   1.00
C654   C     0.84368   0.21100   0.90666   0.00000  Uiso   1.00
C655   C     0.83003   0.16808   0.61612   0.00000  Uiso   1.00
C656   C     0.83664   0.16525   0.88389   0.00000  Uiso   1.00
C657   C     0.83875   0.21345   0.59363   0.00000  Uiso   1.00
C658   C     0.82792   0.11989   0.90637   0.00000  Uiso   1.00
C659   C     0.84807   0.21227   0.54674   0.00000  Uiso   1.00
C660   C     0.81860   0.12106   0.95326   0.00000  Uiso   1.00
C661   C     0.83284   0.16701   0.52342   0.00000  Uiso   1.00
C662   C     0.83382   0.16632   0.97658   0.00000  Uiso   1.00
C663   C     0.81631   0.12249   0.54713   0.00000  Uiso   1.00
C664   C     0.85035   0.21084   0.95287   0.00000  Uiso   1.00
C665   C     0.87332   0.25375   0.52264   0.00000  Uiso   1.00
C666   C     0.79335   0.07959   0.97736   0.00000  Uiso   1.00
C667   C     0.87518   0.25260   0.97558   0.00000  Uiso   1.00
C668   C     0.79148   0.08074   0.52442   0.00000  Uiso   1.00
C669   C     0.85601   0.31819   0.74742   0.00000  Uiso   1.00
C670   C     0.81066   0.01514   0.75258   0.00000  Uiso   1.00
N671   N     0.98344   0.15265   0.73783   0.00000  Uiso   1.00
N672   N     0.68322   0.18068   0.76217   0.00000  Uiso   1.00
N673   N     0.83277   0.07681   0.61606   0.00000  Uiso   1.00
O674   O     0.79792   0.06257   0.64923   0.00000  Uiso   1.00
O675   O     0.88456   0.06162   0.61474   0.00000  Uiso   1.00
N676   N     0.83389   0.25652   0.88395   0.00000  Uiso   1.00
O677   O     0.86875   0.27077   0.85077   0.00000  Uiso   1.00
O678   O     0.78210   0.27171   0.88526   0.00000  Uiso   1.00
I679   I     0.82839   0.28092   0.63216   0.00000  Uiso   1.00
I680   I     0.83828   0.05241   0.86784   0.00000  Uiso   1.00
N681   N     0.90513   0.29308   0.54508   0.00000  Uiso   1.00
O682   O     0.94629   0.28189   0.57001   0.00000  Uiso   1.00
O683   O     0.89672   0.00678   0.53735   0.00000  Uiso   1.00
N684   N     0.76153   0.04025   0.95492   0.00000  Uiso   1.00
O685   O     0.72037   0.05145   0.93000   0.00000  Uiso   1.00
O686   O     0.76995   0.32655   0.96265   0.00000  Uiso   1.00
I687   I     0.93266   0.30529   0.94038   0.00000  Uiso   1.00
I688   I     0.73401   0.02804   0.55962   0.00000  Uiso   1.00
N689   N     0.91382   0.00397   0.74002   0.00000  Uiso   1.00
O690   O     0.94096   0.32793   0.70179   0.00000  Uiso   1.00
O691   O     0.94253   0.01909   0.77423   0.00000  Uiso   1.00
N692   N     0.75284   0.32936   0.75998   0.00000  Uiso   1.00
O693   O     0.72571   0.00540   0.79821   0.00000  Uiso   1.00
O694   O     0.72414   0.31424   0.72577   0.00000  Uiso   1.00
I695   I     0.67873   0.10603   0.68600   0.00000  Uiso   1.00
I696   I     0.98794   0.22730   0.81400   0.00000  Uiso   1.00
O697   O     0.12975   0.57952   0.75299   0.00000  Uiso   1.00
O698   O     0.20358   0.42048   0.74702   0.00000  Uiso   1.00
O699   O     0.22613   0.57054   0.74519   0.00000  Uiso   1.00
O700   O     0.10720   0.42946   0.75482   0.00000  Uiso   1.00
C701   C     0.18137   0.59781   0.74882   0.00000  Uiso   1.00
C702   C     0.15196   0.40219   0.75118   0.00000  Uiso   1.00
O703   O     0.11847   0.50450   0.81998   0.00000  Uiso   1.00
O704   O     0.21486   0.49550   0.68003   0.00000  Uiso   1.00
O705   O     0.21485   0.49552   0.81218   0.00000  Uiso   1.00
O706   O     0.11848   0.50448   0.68783   0.00000  Uiso   1.00
C707   C     0.16758   0.49897   0.83619   0.00000  Uiso   1.00
C708   C     0.16576   0.50103   0.66381   0.00000  Uiso   1.00
Zn709  Zn    0.10231   0.50600   0.75521   0.00000  Uiso   1.00
Zn710  Zn    0.23102   0.49400   0.74479   0.00000  Uiso   1.00
C711   C     0.15632   0.45567   0.59334   0.00000  Uiso   1.00
C712   C     0.17701   0.54433   0.90666   0.00000  Uiso   1.00
C713   C     0.16336   0.50142   0.61612   0.00000  Uiso   1.00
C714   C     0.16997   0.49858   0.88389   0.00000  Uiso   1.00
C715   C     0.17208   0.54678   0.59363   0.00000  Uiso   1.00
C716   C     0.16125   0.45322   0.90637   0.00000  Uiso   1.00
C717   C     0.18140   0.54561   0.54674   0.00000  Uiso   1.00
C718   C     0.15193   0.45439   0.95326   0.00000  Uiso   1.00
C719   C     0.16618   0.50035   0.52342   0.00000  Uiso   1.00
C720   C     0.16716   0.49965   0.97658   0.00000  Uiso   1.00
C721   C     0.14965   0.45583   0.54713   0.00000  Uiso   1.00
C722   C     0.18369   0.54417   0.95287   0.00000  Uiso   1.00
C723   C     0.20665   0.58708   0.52264   0.00000  Uiso   1.00
C724   C     0.12668   0.41292   0.97736   0.00000  Uiso   1.00
C725   C     0.20852   0.58593   0.97558   0.00000  Uiso   1.00
C726   C     0.12482   0.41407   0.52442   0.00000  Uiso   1.00
C727   C     0.18934   0.65153   0.74742   0.00000  Uiso   1.00
C728   C     0.14399   0.34847   0.75258   0.00000  Uiso   1.00
N729   N     0.31678   0.48598   0.73783   0.00000  Uiso   1.00
N730   N     0.01656   0.51402   0.76217   0.00000  Uiso   1.00
N731   N     0.16611   0.41015   0.61606   0.00000  Uiso   1.00
O732   O     0.13126   0.39590   0.64923   0.00000  Uiso   1.00
O733   O     0.21790   0.39495   0.61474   0.00000  Uiso   1.00
N734   N     0.16723   0.58985   0.88395   0.00000  Uiso   1.00
O735   O     0.20208   0.60410   0.85077   0.00000  Uiso   1.00
O736   O     0.11543   0.60504   0.88526   0.00000  Uiso   1.00
I737   I     0.16172   0.61425   0.63216   0.00000  Uiso   1.00
I738   I     0.17161   0.38575   0.86784   0.00000  Uiso   1.00
N739   N     0.23847   0.62642   0.54508   0.00000  Uiso   1.00
O740   O     0.27963   0.61522   0.57001   0.00000  Uiso   1.00
O741   O     0.23005   0.34012   0.53735   0.00000  Uiso   1.00
N742   N     0.09487   0.37358   0.95492   0.00000  Uiso   1.00
O743   O     0.05371   0.38478   0.93000   0.00000  Uiso   1.00
O744   O     0.10328   0.65988   0.96265   0.00000  Uiso   1.00
I745   I     0.26599   0.63863   0.94038   0.00000  Uiso   1.00
I746   I     0.06735   0.36137   0.55962   0.00000  Uiso   1.00
N747   N     0.24716   0.33731   0.74002   0.00000  Uiso   1.00
O748   O     0.27429   0.66127   0.70179   0.00000  Uiso   1.00
O749   O     0.27586   0.35242   0.77423   0.00000  Uiso   1.00
N750   N     0.08618   0.66269   0.75998   0.00000  Uiso   1.00
O751   O     0.05904   0.33873   0.79821   0.00000  Uiso   1.00
O752   O     0.05747   0.64758   0.72577   0.00000  Uiso   1.00
I753   I     0.01206   0.43936   0.68600   0.00000  Uiso   1.00
I754   I     0.32127   0.56064   0.81400   0.00000  Uiso   1.00
O755   O     0.46308   0.57952   0.75299   0.00000  Uiso   1.00
O756   O     0.53692   0.42048   0.74702   0.00000  Uiso   1.00
O757   O     0.55946   0.57054   0.74519   0.00000  Uiso   1.00
O758   O     0.44054   0.42946   0.75482   0.00000  Uiso   1.00
C759   C     0.51471   0.59781   0.74882   0.00000  Uiso   1.00
C760   C     0.48529   0.40219   0.75118   0.00000  Uiso   1.00
O761   O     0.45181   0.50450   0.81998   0.00000  Uiso   1.00
O762   O     0.54819   0.49550   0.68003   0.00000  Uiso   1.00
O763   O     0.54819   0.49552   0.81218   0.00000  Uiso   1.00
O764   O     0.45181   0.50448   0.68783   0.00000  Uiso   1.00
C765   C     0.50091   0.49897   0.83619   0.00000  Uiso   1.00
C766   C     0.49909   0.50103   0.66381   0.00000  Uiso   1.00
Zn767  Zn    0.43565   0.50600   0.75521   0.00000  Uiso   1.00
Zn768  Zn    0.56435   0.49400   0.74479   0.00000  Uiso   1.00
C769   C     0.48965   0.45567   0.59334   0.00000  Uiso   1.00
C770   C     0.51035   0.54433   0.90666   0.00000  Uiso   1.00
C771   C     0.49669   0.50142   0.61612   0.00000  Uiso   1.00
C772   C     0.50331   0.49858   0.88389   0.00000  Uiso   1.00
C773   C     0.50541   0.54678   0.59363   0.00000  Uiso   1.00
C774   C     0.49459   0.45322   0.90637   0.00000  Uiso   1.00
C775   C     0.51473   0.54561   0.54674   0.00000  Uiso   1.00
C776   C     0.48527   0.45439   0.95326   0.00000  Uiso   1.00
C777   C     0.49951   0.50035   0.52342   0.00000  Uiso   1.00
C778   C     0.50049   0.49965   0.97658   0.00000  Uiso   1.00
C779   C     0.48298   0.45583   0.54713   0.00000  Uiso   1.00
C780   C     0.51702   0.54417   0.95287   0.00000  Uiso   1.00
C781   C     0.53998   0.58708   0.52264   0.00000  Uiso   1.00
C782   C     0.46002   0.41292   0.97736   0.00000  Uiso   1.00
C783   C     0.54185   0.58593   0.97558   0.00000  Uiso   1.00
C784   C     0.45815   0.41407   0.52442   0.00000  Uiso   1.00
C785   C     0.52268   0.65153   0.74742   0.00000  Uiso   1.00
C786   C     0.47732   0.34847   0.75258   0.00000  Uiso   1.00
N787   N     0.65011   0.48598   0.73783   0.00000  Uiso   1.00
N788   N     0.34989   0.51402   0.76217   0.00000  Uiso   1.00
N789   N     0.49944   0.41015   0.61606   0.00000  Uiso   1.00
O790   O     0.46459   0.39590   0.64923   0.00000  Uiso   1.00
O791   O     0.55123   0.39495   0.61474   0.00000  Uiso   1.00
N792   N     0.50056   0.58985   0.88395   0.00000  Uiso   1.00
O793   O     0.53541   0.60410   0.85077   0.00000  Uiso   1.00
O794   O     0.44877   0.60504   0.88526   0.00000  Uiso   1.00
I795   I     0.49505   0.61425   0.63216   0.00000  Uiso   1.00
I796   I     0.50495   0.38575   0.86784   0.00000  Uiso   1.00
N797   N     0.57180   0.62642   0.54508   0.00000  Uiso   1.00
O798   O     0.61296   0.61522   0.57001   0.00000  Uiso   1.00
O799   O     0.56339   0.34012   0.53735   0.00000  Uiso   1.00
N800   N     0.42820   0.37358   0.95492   0.00000  Uiso   1.00
O801   O     0.38704   0.38478   0.93000   0.00000  Uiso   1.00
O802   O     0.43662   0.65988   0.96265   0.00000  Uiso   1.00
I803   I     0.59932   0.63863   0.94038   0.00000  Uiso   1.00
I804   I     0.40068   0.36137   0.55962   0.00000  Uiso   1.00
N805   N     0.58049   0.33731   0.74002   0.00000  Uiso   1.00
O806   O     0.60762   0.66127   0.70179   0.00000  Uiso   1.00
O807   O     0.60919   0.35242   0.77423   0.00000  Uiso   1.00
N808   N     0.41951   0.66269   0.75998   0.00000  Uiso   1.00
O809   O     0.39238   0.33873   0.79821   0.00000  Uiso   1.00
O810   O     0.39081   0.64758   0.72577   0.00000  Uiso   1.00
I811   I     0.34539   0.43936   0.68600   0.00000  Uiso   1.00
I812   I     0.65461   0.56064   0.81400   0.00000  Uiso   1.00
O813   O     0.79642   0.57952   0.75299   0.00000  Uiso   1.00
O814   O     0.87025   0.42048   0.74702   0.00000  Uiso   1.00
O815   O     0.89280   0.57054   0.74519   0.00000  Uiso   1.00
O816   O     0.77387   0.42946   0.75482   0.00000  Uiso   1.00
C817   C     0.84804   0.59781   0.74882   0.00000  Uiso   1.00
C818   C     0.81863   0.40219   0.75118   0.00000  Uiso   1.00
O819   O     0.78514   0.50450   0.81998   0.00000  Uiso   1.00
O820   O     0.88153   0.49550   0.68003   0.00000  Uiso   1.00
O821   O     0.88152   0.49552   0.81218   0.00000  Uiso   1.00
O822   O     0.78515   0.50448   0.68783   0.00000  Uiso   1.00
C823   C     0.83424   0.49897   0.83619   0.00000  Uiso   1.00
C824   C     0.83242   0.50103   0.66381   0.00000  Uiso   1.00
Zn825  Zn    0.76898   0.50600   0.75521   0.00000  Uiso   1.00
Zn826  Zn    0.89769   0.49400   0.74479   0.00000  Uiso   1.00
C827   C     0.82299   0.45567   0.59334   0.00000  Uiso   1.00
C828   C     0.84368   0.54433   0.90666   0.00000  Uiso   1.00
C829   C     0.83003   0.50142   0.61612   0.00000  Uiso   1.00
C830   C     0.83664   0.49858   0.88389   0.00000  Uiso   1.00
C831   C     0.83875   0.54678   0.59363   0.00000  Uiso   1.00
C832   C     0.82792   0.45322   0.90637   0.00000  Uiso   1.00
C833   C     0.84807   0.54561   0.54674   0.00000  Uiso   1.00
C834   C     0.81860   0.45439   0.95326   0.00000  Uiso   1.00
C835   C     0.83284   0.50035   0.52342   0.00000  Uiso   1.00
C836   C     0.83382   0.49965   0.97658   0.00000  Uiso   1.00
C837   C     0.81631   0.45583   0.54713   0.00000  Uiso   1.00
C838   C     0.85035   0.54417   0.95287   0.00000  Uiso   1.00
C839   C     0.87332   0.58708   0.52264   0.00000  Uiso   1.00
C840   C     0.79335   0.41292   0.97736   0.00000  Uiso   1.00
C841   C     0.87518   0.58593   0.97558   0.00000  Uiso   1.00
C842   C     0.79148   0.41407   0.52442   0.00000  Uiso   1.00
C843   C     0.85601   0.65153   0.74742   0.00000  Uiso   1.00
C844   C     0.81066   0.34847   0.75258   0.00000  Uiso   1.00
N845   N     0.98344   0.48598   0.73783   0.00000  Uiso   1.00
N846   N     0.68322   0.51402   0.76217   0.00000  Uiso   1.00
N847   N     0.83277   0.41015   0.61606   0.00000  Uiso   1.00
O848   O     0.79792   0.39590   0.64923   0.00000  Uiso   1.00
O849   O     0.88456   0.39495   0.61474   0.00000  Uiso   1.00
N850   N     0.83389   0.58985   0.88395   0.00000  Uiso   1.00
O851   O     0.86875   0.60410   0.85077   0.00000  Uiso   1.00
O852   O     0.78210   0.60504   0.88526   0.00000  Uiso   1.00
I853   I     0.82839   0.61425   0.63216   0.00000  Uiso   1.00
I854   I     0.83828   0.38575   0.86784   0.00000  Uiso   1.00
N855   N     0.90513   0.62642   0.54508   0.00000  Uiso   1.00
O856   O     0.94629   0.61522   0.57001   0.00000  Uiso   1.00
O857   O     0.89672   0.34012   0.53735   0.00000  Uiso   1.00
N858   N     0.76153   0.37358   0.95492   0.00000  Uiso   1.00
O859   O     0.72037   0.38478   0.93000   0.00000  Uiso   1.00
O860   O     0.76995   0.65988   0.96265   0.00000  Uiso   1.00
I861   I     0.93266   0.63863   0.94038   0.00000  Uiso   1.00
I862   I     0.73401   0.36137   0.55962   0.00000  Uiso   1.00
N863   N     0.91382   0.33731   0.74002   0.00000  Uiso   1.00
O864   O     0.94096   0.66127   0.70179   0.00000  Uiso   1.00
O865   O     0.94253   0.35242   0.77423   0.00000  Uiso   1.00
N866   N     0.75284   0.66269   0.75998   0.00000  Uiso   1.00
O867   O     0.72571   0.33873   0.79821   0.00000  Uiso   1.00
O868   O     0.72414   0.64758   0.72577   0.00000  Uiso   1.00
I869   I     0.67873   0.43936   0.68600   0.00000  Uiso   1.00
I870   I     0.98794   0.56064   0.81400   0.00000  Uiso   1.00
O871   O     0.12975   0.91286   0.75299   0.00000  Uiso   1.00
O872   O     0.20358   0.75381   0.74702   0.00000  Uiso   1.00
O873   O     0.22613   0.90387   0.74519   0.00000  Uiso   1.00
O874   O     0.10720   0.76279   0.75482   0.00000  Uiso   1.00
C875   C     0.18137   0.93114   0.74882   0.00000  Uiso   1.00
C876   C     0.15196   0.73553   0.75118   0.00000  Uiso   1.00
O877   O     0.11847   0.83784   0.81998   0.00000  Uiso   1.00
O878   O     0.21486   0.82883   0.68003   0.00000  Uiso   1.00
O879   O     0.21485   0.82885   0.81218   0.00000  Uiso   1.00
O880   O     0.11848   0.83781   0.68783   0.00000  Uiso   1.00
C881   C     0.16758   0.83230   0.83619   0.00000  Uiso   1.00
C882   C     0.16576   0.83437   0.66381   0.00000  Uiso   1.00
Zn883  Zn    0.10231   0.83933   0.75521   0.00000  Uiso   1.00
Zn884  Zn    0.23102   0.82734   0.74479   0.00000  Uiso   1.00
C885   C     0.15632   0.78900   0.59334   0.00000  Uiso   1.00
C886   C     0.17701   0.87766   0.90666   0.00000  Uiso   1.00
C887   C     0.16336   0.83475   0.61612   0.00000  Uiso   1.00
C888   C     0.16997   0.83192   0.88389   0.00000  Uiso   1.00
C889   C     0.17208   0.88011   0.59363   0.00000  Uiso   1.00
C890   C     0.16125   0.78655   0.90637   0.00000  Uiso   1.00
C891   C     0.18140   0.87894   0.54674   0.00000  Uiso   1.00
C892   C     0.15193   0.78773   0.95326   0.00000  Uiso   1.00
C893   C     0.16618   0.83368   0.52342   0.00000  Uiso   1.00
C894   C     0.16716   0.83299   0.97658   0.00000  Uiso   1.00
C895   C     0.14965   0.78916   0.54713   0.00000  Uiso   1.00
C896   C     0.18369   0.87750   0.95287   0.00000  Uiso   1.00
C897   C     0.20665   0.92041   0.52264   0.00000  Uiso   1.00
C898   C     0.12668   0.74625   0.97736   0.00000  Uiso   1.00
C899   C     0.20852   0.91926   0.97558   0.00000  Uiso   1.00
C900   C     0.12482   0.74740   0.52442   0.00000  Uiso   1.00
C901   C     0.18934   0.98486   0.74742   0.00000  Uiso   1.00
C902   C     0.14399   0.68181   0.75258   0.00000  Uiso   1.00
N903   N     0.31678   0.81932   0.73783   0.00000  Uiso   1.00
N904   N     0.01656   0.84735   0.76217   0.00000  Uiso   1.00
N905   N     0.16611   0.74348   0.61606   0.00000  Uiso   1.00
O906   O     0.13126   0.72923   0.64923   0.00000  Uiso   1.00
O907   O     0.21790   0.72829   0.61474   0.00000  Uiso   1.00
N908   N     0.16723   0.92319   0.88395   0.00000  Uiso   1.00
O909   O     0.20208   0.93743   0.85077   0.00000  Uiso   1.00
O910   O     0.11543   0.93838   0.88526   0.00000  Uiso   1.00
I911   I     0.16172   0.94759   0.63216   0.00000  Uiso   1.00
I912   I     0.17161   0.71908   0.86784   0.00000  Uiso   1.00
N913   N     0.23847   0.95975   0.54508   0.00000  Uiso   1.00
O914   O     0.27963   0.94855   0.57001   0.00000  Uiso   1.00
O915   O     0.23005   0.67345   0.53735   0.00000  Uiso   1.00
N916   N     0.09487   0.70692   0.95492   0.00000  Uiso   1.00
O917   O     0.05371   0.71812   0.93000   0.00000  Uiso   1.00
O918   O     0.10328   0.99322   0.96265   0.00000  Uiso   1.00
I919   I     0.26599   0.97196   0.94038   0.00000  Uiso   1.00
I920   I     0.06735   0.69471   0.55962   0.00000  Uiso   1.00
N921   N     0.24716   0.67064   0.74002   0.00000  Uiso   1.00
O922   O     0.27429   0.99460   0.70179   0.00000  Uiso   1.00
O923   O     0.27586   0.68576   0.77423   0.00000  Uiso   1.00
N924   N     0.08618   0.99603   0.75998   0.00000  Uiso   1.00
O925   O     0.05904   0.67207   0.79821   0.00000  Uiso   1.00
O926   O     0.05747   0.98091   0.72577   0.00000  Uiso   1.00
I927   I     0.01206   0.77270   0.68600   0.00000  Uiso   1.00
I928   I     0.32127   0.89397   0.81400   0.00000  Uiso   1.00
O929   O     0.46308   0.91286   0.75299   0.00000  Uiso   1.00
O930   O     0.53692   0.75381   0.74702   0.00000  Uiso   1.00
O931   O     0.55946   0.90387   0.74519   0.00000  Uiso   1.00
O932   O     0.44054   0.76279   0.75482   0.00000  Uiso   1.00
C933   C     0.51471   0.93114   0.74882   0.00000  Uiso   1.00
C934   C     0.48529   0.73553   0.75118   0.00000  Uiso   1.00
O935   O     0.45181   0.83784   0.81998   0.00000  Uiso   1.00
O936   O     0.54819   0.82883   0.68003   0.00000  Uiso   1.00
O937   O     0.54819   0.82885   0.81218   0.00000  Uiso   1.00
O938   O     0.45181   0.83781   0.68783   0.00000  Uiso   1.00
C939   C     0.50091   0.83230   0.83619   0.00000  Uiso   1.00
C940   C     0.49909   0.83437   0.66381   0.00000  Uiso   1.00
Zn941  Zn    0.43565   0.83933   0.75521   0.00000  Uiso   1.00
Zn942  Zn    0.56435   0.82734   0.74479   0.00000  Uiso   1.00
C943   C     0.48965   0.78900   0.59334   0.00000  Uiso   1.00
C944   C     0.51035   0.87766   0.90666   0.00000  Uiso   1.00
C945   C     0.49669   0.83475   0.61612   0.00000  Uiso   1.00
C946   C     0.50331   0.83192   0.88389   0.00000  Uiso   1.00
C947   C     0.50541   0.88011   0.59363   0.00000  Uiso   1.00
C948   C     0.49459   0.78655   0.90637   0.00000  Uiso   1.00
C949   C     0.51473   0.87894   0.54674   0.00000  Uiso   1.00
C950   C     0.48527   0.78773   0.95326   0.00000  Uiso   1.00
C951   C     0.49951   0.83368   0.52342   0.00000  Uiso   1.00
C952   C     0.50049   0.83299   0.97658   0.00000  Uiso   1.00
C953   C     0.48298   0.78916   0.54713   0.00000  Uiso   1.00
C954   C     0.51702   0.87750   0.95287   0.00000  Uiso   1.00
C955   C     0.53998   0.92041   0.52264   0.00000  Uiso   1.00
C956   C     0.46002   0.74625   0.97736   0.00000  Uiso   1.00
C957   C     0.54185   0.91926   0.97558   0.00000  Uiso   1.00
C958   C     0.45815   0.74740   0.52442   0.00000  Uiso   1.00
C959   C     0.52268   0.98486   0.74742   0.00000  Uiso   1.00
C960   C     0.47732   0.68181   0.75258   0.00000  Uiso   1.00
N961   N     0.65011   0.81932   0.73783   0.00000  Uiso   1.00
N962   N     0.34989   0.84735   0.76217   0.00000  Uiso   1.00
N963   N     0.49944   0.74348   0.61606   0.00000  Uiso   1.00
O964   O     0.46459   0.72923   0.64923   0.00000  Uiso   1.00
O965   O     0.55123   0.72829   0.61474   0.00000  Uiso   1.00
N966   N     0.50056   0.92319   0.88395   0.00000  Uiso   1.00
O967   O     0.53541   0.93743   0.85077   0.00000  Uiso   1.00
O968   O     0.44877   0.93838   0.88526   0.00000  Uiso   1.00
I969   I     0.49505   0.94759   0.63216   0.00000  Uiso   1.00
I970   I     0.50495   0.71908   0.86784   0.00000  Uiso   1.00
N971   N     0.57180   0.95975   0.54508   0.00000  Uiso   1.00
O972   O     0.61296   0.94855   0.57001   0.00000  Uiso   1.00
O973   O     0.56339   0.67345   0.53735   0.00000  Uiso   1.00
N974   N     0.42820   0.70692   0.95492   0.00000  Uiso   1.00
O975   O     0.38704   0.71812   0.93000   0.00000  Uiso   1.00
O976   O     0.43662   0.99322   0.96265   0.00000  Uiso   1.00
I977   I     0.59932   0.97196   0.94038   0.00000  Uiso   1.00
I978   I     0.40068   0.69471   0.55962   0.00000  Uiso   1.00
N979   N     0.58049   0.67064   0.74002   0.00000  Uiso   1.00
O980   O     0.60762   0.99460   0.70179   0.00000  Uiso   1.00
O981   O     0.60919   0.68576   0.77423   0.00000  Uiso   1.00
N982   N     0.41951   0.99603   0.75998   0.00000  Uiso   1.00
O983   O     0.39238   0.67207   0.79821   0.00000  Uiso   1.00
O984   O     0.39081   0.98091   0.72577   0.00000  Uiso   1.00
I985   I     0.34539   0.77270   0.68600   0.00000  Uiso   1.00
I986   I     0.65461   0.89397   0.81400   0.00000  Uiso   1.00
O987   O     0.79642   0.91286   0.75299   0.00000  Uiso   1.00
O988   O     0.87025   0.75381   0.74702   0.00000  Uiso   1.00
O989   O     0.89280   0.90387   0.74519   0.00000  Uiso   1.00
O990   O     0.77387   0.76279   0.75482   0.00000  Uiso   1.00
C991   C     0.84804   0.93114   0.74882   0.00000  Uiso   1.00
C992   C     0.81863   0.73553   0.75118   0.00000  Uiso   1.00
O993   O     0.78514   0.83784   0.81998   0.00000  Uiso   1.00
O994   O     0.88153   0.82883   0.68003   0.00000  Uiso   1.00
O995   O     0.88152   0.82885   0.81218   0.00000  Uiso   1.00
O996   O     0.78515   0.83781   0.68783   0.00000  Uiso   1.00
C997   C     0.83424   0.83230   0.83619   0.00000  Uiso   1.00
C998   C     0.83242   0.83437   0.66381   0.00000  Uiso   1.00
Zn999  Zn    0.76898   0.83933   0.75521   0.00000  Uiso   1.00
Zn1000 Zn    0.89769   0.82734   0.74479   0.00000  Uiso   1.00
C1001  C     0.82299   0.78900   0.59334   0.00000  Uiso   1.00
C1002  C     0.84368   0.87766   0.90666   0.00000  Uiso   1.00
C1003  C     0.83003   0.83475   0.61612   0.00000  Uiso   1.00
C1004  C     0.83664   0.83192   0.88389   0.00000  Uiso   1.00
C1005  C     0.83875   0.88011   0.59363   0.00000  Uiso   1.00
C1006  C     0.82792   0.78655   0.90637   0.00000  Uiso   1.00
C1007  C     0.84807   0.87894   0.54674   0.00000  Uiso   1.00
C1008  C     0.81860   0.78773   0.95326   0.00000  Uiso   1.00
C1009  C     0.83284   0.83368   0.52342   0.00000  Uiso   1.00
C1010  C     0.83382   0.83299   0.97658   0.00000  Uiso   1.00
C1011  C     0.81631   0.78916   0.54713   0.00000  Uiso   1.00
C1012  C     0.85035   0.87750   0.95287   0.00000  Uiso   1.00
C1013  C     0.87332   0.92041   0.52264   0.00000  Uiso   1.00
C1014  C     0.79335   0.74625   0.97736   0.00000  Uiso   1.00
C1015  C     0.87518   0.91926   0.97558   0.00000  Uiso   1.00
C1016  C     0.79148   0.74740   0.52442   0.00000  Uiso   1.00
C1017  C     0.85601   0.98486   0.74742   0.00000  Uiso   1.00
C1018  C     0.81066   0.68181   0.75258   0.00000  Uiso   1.00
N1019  N     0.98344   0.81932   0.73783   0.00000  Uiso   1.00
N1020  N     0.68322   0.84735   0.76217   0.00000  Uiso   1.00
N1021  N     0.83277   0.74348   0.61606   0.00000  Uiso   1.00
O1022  O     0.79792   0.72923   0.64923   0.00000  Uiso   1.00
O1023  O     0.88456   0.72829   0.61474   0.00000  Uiso   1.00
N1024  N     0.83389   0.92319   0.88395   0.00000  Uiso   1.00
O1025  O     0.86875   0.93743   0.85077   0.00000  Uiso   1.00
O1026  O     0.78210   0.93838   0.88526   0.00000  Uiso   1.00
I1027  I     0.82839   0.94759   0.63216   0.00000  Uiso   1.00
I1028  I     0.83828   0.71908   0.86784   0.00000  Uiso   1.00
N1029  N     0.90513   0.95975   0.54508   0.00000  Uiso   1.00
O1030  O     0.94629   0.94855   0.57001   0.00000  Uiso   1.00
O1031  O     0.89672   0.67345   0.53735   0.00000  Uiso   1.00
N1032  N     0.76153   0.70692   0.95492   0.00000  Uiso   1.00
O1033  O     0.72037   0.71812   0.93000   0.00000  Uiso   1.00
O1034  O     0.76995   0.99322   0.96265   0.00000  Uiso   1.00
I1035  I     0.93266   0.97196   0.94038   0.00000  Uiso   1.00
I1036  I     0.73401   0.69471   0.55962   0.00000  Uiso   1.00
N1037  N     0.91382   0.67064   0.74002   0.00000  Uiso   1.00
O1038  O     0.94096   0.99460   0.70179   0.00000  Uiso   1.00
O1039  O     0.94253   0.68576   0.77423   0.00000  Uiso   1.00
N1040  N     0.75284   0.99603   0.75998   0.00000  Uiso   1.00
O1041  O     0.72571   0.67207   0.79821   0.00000  Uiso   1.00
O1042  O     0.72414   0.98091   0.72577   0.00000  Uiso   1.00
I1043  I     0.67873   0.77270   0.68600   0.00000  Uiso   1.00
I1044  I     0.98794   0.89397   0.81400   0.00000  Uiso   1.00
loop_
_geom_bond_atom_site_label_1
_geom_bond_atom_site_label_2
_geom_bond_distance
_geom_bond_site_symmetry_2
_ccdc_geom_bond_type
O1     C5      1.287   .     A
O1     Zn13    2.028   .     S
O2     C6      1.287   .     A
O2     Zn14    2.028   .     S
O3     Zn14    2.041   .     S
O3     C5      1.305   .     A
O4     C6      1.305   .     A
O4     Zn13    2.041   .     S
C5     C31     1.431   .     S
C6     C32     1.431   .     S
O7     C11     1.292   .     A
O7     Zn13    1.990   .     S
O8     C12     1.292   .     A
O8     Zn14    1.990   .     S
O9     Zn14    2.024   .     S
O9     C11     1.295   .     A
O10    C12     1.295   .     A
O10    Zn13    2.024   .     S
C11    C18     1.426   .     S
C12    C17     1.426   .     S
Zn13   N34     2.038   .     S
Zn14   N33     2.038   .     S
C15    C17     1.388   .     A
C15    N35     1.431   .     S
C15    C25     1.395   .     A
C16    C26     1.395   .     A
C16    C18     1.388   .     A
C16    N38     1.431   .     S
C17    C19     1.391   .     A
C18    C20     1.391   .     A
C19    C21     1.403   .     A
C19    I41     2.126   .     S
C20    I42     2.126   .     S
C20    C22     1.403   .     A
C21    C27     1.415   .     A
C21    C23     1.418   .     A
C22    C28     1.415   .     A
C22    C24     1.418   .     A
C23    C25     1.416   .     A
C23    C546    1.395   1_554 S
C24    C26     1.416   .     A
C24    C545    1.395   .     S
C25    C30     1.408   .     A
C26    C29     1.408   .     A
C27    N43     1.433   .     S
C27    C551    1.401   1_554 S
C28    N46     1.433   .     S
C28    C552    1.401   .     S
C29    I49     2.146   .     S
C29    C549    1.401   .     S
C30    I50     2.146   .     S
C30    C550    1.401   1_554 S
C31    C206    1.367   .     S
C31    N225    1.436   .     S
C32    C379    1.367   1_545 S
C32    N402    1.436   1_545 S
N33    N92     1.294   .     S
N33    I115    2.065   .     S
N34    N149    1.294   1_455 S
N34    I174    2.065   1_455 S
N35    O37     1.300   .     A
N35    O36     1.299   .     A
N38    O40     1.300   .     A
N38    O39     1.299   .     A
N43    O44     1.301   .     A
N43    O219    1.301   .     S
O45    N391    1.301   1_545 S
N46    O47     1.301   .     A
N46    O396    1.301   1_545 S
O48    N220    1.301   .     S
N51    O53     1.301   .     A
N51    C379    1.436   1_545 S
N51    O400    1.301   1_545 S
O52    N225    1.301   .     S
N54    O56     1.301   .     A
N54    C206    1.436   .     S
N54    O229    1.301   .     S
O55    N402    1.301   1_545 S
I57    N149    2.065   1_455 S
I58    N92     2.065   .     S
O59    C63     1.287   .     A
O59    Zn71    2.028   .     S
O60    C64     1.287   .     A
O60    Zn72    2.028   .     S
O61    Zn72    2.041   .     S
O61    C63     1.305   .     A
O62    C64     1.305   .     A
O62    Zn71    2.041   .     S
C63    C89     1.431   .     S
C64    C90     1.431   .     S
O65    C69     1.292   .     A
O65    Zn71    1.990   .     S
O66    C70     1.292   .     A
O66    Zn72    1.990   .     S
O67    Zn72    2.024   .     S
O67    C69     1.295   .     A
O68    C70     1.295   .     A
O68    Zn71    2.024   .     S
C69    C76     1.426   .     S
C70    C75     1.426   .     S
Zn71   N92     2.038   .     S
Zn72   N91     2.038   .     S
C73    C75     1.388   .     A
C73    N93     1.431   .     S
C73    C83     1.395   .     A
C74    C84     1.395   .     A
C74    C76     1.388   .     A
C74    N96     1.431   .     S
C75    C77     1.391   .     A
C76    C78     1.391   .     A
C77    C79     1.403   .     A
C77    I99     2.126   .     S
C78    I100    2.126   .     S
C78    C80     1.403   .     A
C79    C85     1.415   .     A
C79    C81     1.418   .     A
C80    C86     1.415   .     A
C80    C82     1.418   .     A
C81    C83     1.416   .     A
C81    C604    1.395   1_554 S
C82    C84     1.416   .     A
C82    C603    1.395   .     S
C83    C88     1.408   .     A
C84    C87     1.408   .     A
C85    N101    1.433   .     S
C85    C609    1.401   1_554 S
C86    N104    1.433   .     S
C86    C610    1.401   .     S
C87    I107    2.146   .     S
C87    C607    1.401   .     S
C88    I108    2.146   .     S
C88    C608    1.401   1_554 S
C89    C264    1.367   .     S
C89    N283    1.436   .     S
C90    C437    1.367   1_545 S
C90    N460    1.436   1_545 S
N91    N150    1.294   .     S
N91    I173    2.065   .     S
N93    O95     1.300   .     A
N93    O94     1.299   .     A
N96    O98     1.300   .     A
N96    O97     1.299   .     A
N101   O102    1.301   .     A
N101   O277    1.301   .     S
O103   N449    1.301   1_545 S
N104   O105    1.301   .     A
N104   O454    1.301   1_545 S
O106   N278    1.301   .     S
N109   O111    1.301   .     A
N109   C437    1.436   1_545 S
N109   O458    1.301   1_545 S
O110   N283    1.301   .     S
N112   O114    1.301   .     A
N112   C264    1.436   .     S
N112   O287    1.301   .     S
O113   N460    1.301   1_545 S
I116   N150    2.065   .     S
O117   C121    1.287   .     A
O117   Zn129   2.028   .     S
O118   C122    1.287   .     A
O118   Zn130   2.028   .     S
O119   Zn130   2.041   .     S
O119   C121    1.305   .     A
O120   C122    1.305   .     A
O120   Zn129   2.041   .     S
C121   C147    1.431   .     S
C122   C148    1.431   .     S
O123   C127    1.292   .     A
O123   Zn129   1.990   .     S
O124   C128    1.292   .     A
O124   Zn130   1.990   .     S
O125   Zn130   2.024   .     S
O125   C127    1.295   .     A
O126   C128    1.295   .     A
O126   Zn129   2.024   .     S
C127   C134    1.426   .     S
C128   C133    1.426   .     S
Zn129  N150    2.038   .     S
Zn130  N149    2.038   .     S
C131   C133    1.388   .     A
C131   N151    1.431   .     S
C131   C141    1.395   .     A
C132   C142    1.395   .     A
C132   C134    1.388   .     A
C132   N154    1.431   .     S
C133   C135    1.391   .     A
C134   C136    1.391   .     A
C135   C137    1.403   .     A
C135   I157    2.126   .     S
C136   I158    2.126   .     S
C136   C138    1.403   .     A
C137   C143    1.415   .     A
C137   C139    1.418   .     A
C138   C144    1.415   .     A
C138   C140    1.418   .     A
C139   C141    1.416   .     A
C139   C662    1.395   1_554 S
C140   C142    1.416   .     A
C140   C661    1.395   .     S
C141   C146    1.408   .     A
C142   C145    1.408   .     A
C143   N159    1.433   .     S
C143   C667    1.401   1_554 S
C144   N162    1.433   .     S
C144   C668    1.401   .     S
C145   I165    2.146   .     S
C145   C665    1.401   .     S
C146   I166    2.146   .     S
C146   C666    1.401   1_554 S
C147   C322    1.367   .     S
C147   N341    1.436   .     S
C148   C495    1.367   1_545 S
C148   N518    1.436   1_545 S
N149   N34     1.294   1_655 S
N149   I57     2.065   1_655 S
N151   O153    1.300   .     A
N151   O152    1.299   .     A
N154   O156    1.300   .     A
N154   O155    1.299   .     A
N159   O160    1.301   .     A
N159   O335    1.301   .     S
O161   N507    1.301   1_545 S
N162   O163    1.301   .     A
N162   O512    1.301   1_545 S
O164   N336    1.301   .     S
N167   O169    1.301   .     A
N167   C495    1.436   1_545 S
N167   O516    1.301   1_545 S
O168   N341    1.301   .     S
N170   O172    1.301   .     A
N170   C322    1.436   .     S
N170   O345    1.301   .     S
O171   N518    1.301   1_545 S
I174   N34     2.065   1_655 S
O175   C179    1.287   .     A
O175   Zn187   2.028   .     S
O176   C180    1.287   .     A
O176   Zn188   2.028   .     S
O177   Zn188   2.041   .     S
O177   C179    1.305   .     A
O178   C180    1.305   .     A
O178   Zn187   2.041   .     S
C179   C205    1.431   .     S
C180   C206    1.431   .     S
O181   C185    1.292   .     A
O181   Zn187   1.990   .     S
O182   C186    1.292   .     A
O182   Zn188   1.990   .     S
O183   Zn188   2.024   .     S
O183   C185    1.295   .     A
O184   C186    1.295   .     A
O184   Zn187   2.024   .     S
C185   C192    1.426   .     S
C186   C191    1.426   .     S
Zn187  N208    2.038   .     S
Zn188  N207    2.038   .     S
C189   C191    1.388   .     A
C189   N209    1.431   .     S
C189   C199    1.395   .     A
C190   C200    1.395   .     A
C190   C192    1.388   .     A
C190   N212    1.431   .     S
C191   C193    1.391   .     A
C192   C194    1.391   .     A
C193   C195    1.403   .     A
C193   I215    2.126   .     S
C194   I216    2.126   .     S
C194   C196    1.403   .     A
C195   C201    1.415   .     A
C195   C197    1.418   .     A
C196   C202    1.415   .     A
C196   C198    1.418   .     A
C197   C199    1.416   .     A
C197   C720    1.395   1_554 S
C198   C200    1.416   .     A
C198   C719    1.395   .     S
C199   C204    1.408   .     A
C200   C203    1.408   .     A
C201   N217    1.433   .     S
C201   C725    1.401   1_554 S
C202   N220    1.433   .     S
C202   C726    1.401   .     S
C203   I223    2.146   .     S
C203   C723    1.401   .     S
C204   I224    2.146   .     S
C204   C724    1.401   1_554 S
C205   C380    1.367   .     S
C205   N399    1.436   .     S
N207   N266    1.294   .     S
N207   I289    2.065   .     S
N208   N323    1.294   1_455 S
N208   I348    2.065   1_455 S
N209   O211    1.300   .     A
N209   O210    1.299   .     A
N212   O214    1.300   .     A
N212   O213    1.299   .     A
N217   O218    1.301   .     A
N217   O393    1.301   .     S
N220   O221    1.301   .     A
O222   N394    1.301   .     S
N225   O227    1.301   .     A
O226   N399    1.301   .     S
N228   O230    1.301   .     A
N228   C380    1.436   .     S
N228   O403    1.301   .     S
I231   N323    2.065   1_455 S
I232   N266    2.065   .     S
O233   C237    1.287   .     A
O233   Zn245   2.028   .     S
O234   C238    1.287   .     A
O234   Zn246   2.028   .     S
O235   Zn246   2.041   .     S
O235   C237    1.305   .     A
O236   C238    1.305   .     A
O236   Zn245   2.041   .     S
C237   C263    1.431   .     S
C238   C264    1.431   .     S
O239   C243    1.292   .     A
O239   Zn245   1.990   .     S
O240   C244    1.292   .     A
O240   Zn246   1.990   .     S
O241   Zn246   2.024   .     S
O241   C243    1.295   .     A
O242   C244    1.295   .     A
O242   Zn245   2.024   .     S
C243   C250    1.426   .     S
C244   C249    1.426   .     S
Zn245  N266    2.038   .     S
Zn246  N265    2.038   .     S
C247   C249    1.388   .     A
C247   N267    1.431   .     S
C247   C257    1.395   .     A
C248   C258    1.395   .     A
C248   C250    1.388   .     A
C248   N270    1.431   .     S
C249   C251    1.391   .     A
C250   C252    1.391   .     A
C251   C253    1.403   .     A
C251   I273    2.126   .     S
C252   I274    2.126   .     S
C252   C254    1.403   .     A
C253   C259    1.415   .     A
C253   C255    1.418   .     A
C254   C260    1.415   .     A
C254   C256    1.418   .     A
C255   C257    1.416   .     A
C255   C778    1.395   1_554 S
C256   C258    1.416   .     A
C256   C777    1.395   .     S
C257   C262    1.408   .     A
C258   C261    1.408   .     A
C259   N275    1.433   .     S
C259   C783    1.401   1_554 S
C260   N278    1.433   .     S
C260   C784    1.401   .     S
C261   I281    2.146   .     S
C261   C781    1.401   .     S
C262   I282    2.146   .     S
C262   C782    1.401   1_554 S
C263   C438    1.367   .     S
C263   N457    1.436   .     S
N265   N324    1.294   .     S
N265   I347    2.065   .     S
N267   O269    1.300   .     A
N267   O268    1.299   .     A
N270   O272    1.300   .     A
N270   O271    1.299   .     A
N275   O276    1.301   .     A
N275   O451    1.301   .     S
N278   O279    1.301   .     A
O280   N452    1.301   .     S
N283   O285    1.301   .     A
O284   N457    1.301   .     S
N286   O288    1.301   .     A
N286   C438    1.436   .     S
N286   O461    1.301   .     S
I290   N324    2.065   .     S
O291   C295    1.287   .     A
O291   Zn303   2.028   .     S
O292   C296    1.287   .     A
O292   Zn304   2.028   .     S
O293   Zn304   2.041   .     S
O293   C295    1.305   .     A
O294   C296    1.305   .     A
O294   Zn303   2.041   .     S
C295   C321    1.431   .     S
C296   C322    1.431   .     S
O297   C301    1.292   .     A
O297   Zn303   1.990   .     S
O298   C302    1.292   .     A
O298   Zn304   1.990   .     S
O299   Zn304   2.024   .     S
O299   C301    1.295   .     A
O300   C302    1.295   .     A
O300   Zn303   2.024   .     S
C301   C308    1.426   .     S
C302   C307    1.426   .     S
Zn303  N324    2.038   .     S
Zn304  N323    2.038   .     S
C305   C307    1.388   .     A
C305   N325    1.431   .     S
C305   C315    1.395   .     A
C306   C316    1.395   .     A
C306   C308    1.388   .     A
C306   N328    1.431   .     S
C307   C309    1.391   .     A
C308   C310    1.391   .     A
C309   C311    1.403   .     A
C309   I331    2.126   .     S
C310   I332    2.126   .     S
C310   C312    1.403   .     A
C311   C317    1.415   .     A
C311   C313    1.418   .     A
C312   C318    1.415   .     A
C312   C314    1.418   .     A
C313   C315    1.416   .     A
C313   C836    1.395   1_554 S
C314   C316    1.416   .     A
C314   C835    1.395   .     S
C315   C320    1.408   .     A
C316   C319    1.408   .     A
C317   N333    1.433   .     S
C317   C841    1.401   1_554 S
C318   N336    1.433   .     S
C318   C842    1.401   .     S
C319   I339    2.146   .     S
C319   C839    1.401   .     S
C320   I340    2.146   .     S
C320   C840    1.401   1_554 S
C321   C496    1.367   .     S
C321   N515    1.436   .     S
N323   N208    1.294   1_655 S
N323   I231    2.065   1_655 S
N325   O327    1.300   .     A
N325   O326    1.299   .     A
N328   O330    1.300   .     A
N328   O329    1.299   .     A
N333   O334    1.301   .     A
N333   O509    1.301   .     S
N336   O337    1.301   .     A
O338   N510    1.301   .     S
N341   O343    1.301   .     A
O342   N515    1.301   .     S
N344   O346    1.301   .     A
N344   C496    1.436   .     S
N344   O519    1.301   .     S
I348   N208    2.065   1_655 S
O349   C353    1.287   .     A
O349   Zn361   2.028   .     S
O350   C354    1.287   .     A
O350   Zn362   2.028   .     S
O351   Zn362   2.041   .     S
O351   C353    1.305   .     A
O352   C354    1.305   .     A
O352   Zn361   2.041   .     S
C353   C379    1.431   .     S
C354   C380    1.431   .     S
O355   C359    1.292   .     A
O355   Zn361   1.990   .     S
O356   C360    1.292   .     A
O356   Zn362   1.990   .     S
O357   Zn362   2.024   .     S
O357   C359    1.295   .     A
O358   C360    1.295   .     A
O358   Zn361   2.024   .     S
C359   C366    1.426   .     S
C360   C365    1.426   .     S
Zn361  N382    2.038   .     S
Zn362  N381    2.038   .     S
C363   C365    1.388   .     A
C363   N383    1.431   .     S
C363   C373    1.395   .     A
C364   C374    1.395   .     A
C364   C366    1.388   .     A
C364   N386    1.431   .     S
C365   C367    1.391   .     A
C366   C368    1.391   .     A
C367   C369    1.403   .     A
C367   I389    2.126   .     S
C368   I390    2.126   .     S
C368   C370    1.403   .     A
C369   C375    1.415   .     A
C369   C371    1.418   .     A
C370   C376    1.415   .     A
C370   C372    1.418   .     A
C371   C373    1.416   .     A
C371   C894    1.395   1_554 S
C372   C374    1.416   .     A
C372   C893    1.395   .     S
C373   C378    1.408   .     A
C374   C377    1.408   .     A
C375   N391    1.433   .     S
C375   C899    1.401   1_554 S
C376   N394    1.433   .     S
C376   C900    1.401   .     S
C377   I397    2.146   .     S
C377   C897    1.401   .     S
C378   I398    2.146   .     S
C378   C898    1.401   1_554 S
C379   C32     1.367   1_565 S
C379   N51     1.436   1_565 S
N381   N440    1.294   .     S
N381   I463    2.065   .     S
N382   N497    1.294   1_455 S
N382   I522    2.065   1_455 S
N383   O385    1.300   .     A
N383   O384    1.299   .     A
N386   O388    1.300   .     A
N386   O387    1.299   .     A
N391   O392    1.301   .     A
N391   O45     1.301   1_565 S
N394   O395    1.301   .     A
O396   N46     1.301   1_565 S
N399   O401    1.301   .     A
O400   N51     1.301   1_565 S
N402   O404    1.301   .     A
N402   C32     1.436   1_565 S
N402   O55     1.301   1_565 S
I405   N497    2.065   1_455 S
I406   N440    2.065   .     S
O407   C411    1.287   .     A
O407   Zn419   2.028   .     S
O408   C412    1.287   .     A
O408   Zn420   2.028   .     S
O409   Zn420   2.041   .     S
O409   C411    1.305   .     A
O410   C412    1.305   .     A
O410   Zn419   2.041   .     S
C411   C437    1.431   .     S
C412   C438    1.431   .     S
O413   C417    1.292   .     A
O413   Zn419   1.990   .     S
O414   C418    1.292   .     A
O414   Zn420   1.990   .     S
O415   Zn420   2.024   .     S
O415   C417    1.295   .     A
O416   C418    1.295   .     A
O416   Zn419   2.024   .     S
C417   C424    1.426   .     S
C418   C423    1.426   .     S
Zn419  N440    2.038   .     S
Zn420  N439    2.038   .     S
C421   C423    1.388   .     A
C421   N441    1.431   .     S
C421   C431    1.395   .     A
C422   C432    1.395   .     A
C422   C424    1.388   .     A
C422   N444    1.431   .     S
C423   C425    1.391   .     A
C424   C426    1.391   .     A
C425   C427    1.403   .     A
C425   I447    2.126   .     S
C426   I448    2.126   .     S
C426   C428    1.403   .     A
C427   C433    1.415   .     A
C427   C429    1.418   .     A
C428   C434    1.415   .     A
C428   C430    1.418   .     A
C429   C431    1.416   .     A
C429   C952    1.395   1_554 S
C430   C432    1.416   .     A
C430   C951    1.395   .     S
C431   C436    1.408   .     A
C432   C435    1.408   .     A
C433   N449    1.433   .     S
C433   C957    1.401   1_554 S
C434   N452    1.433   .     S
C434   C958    1.401   .     S
C435   I455    2.146   .     S
C435   C955    1.401   .     S
C436   I456    2.146   .     S
C436   C956    1.401   1_554 S
C437   C90     1.367   1_565 S
C437   N109    1.436   1_565 S
N439   N498    1.294   .     S
N439   I521    2.065   .     S
N441   O443    1.300   .     A
N441   O442    1.299   .     A
N444   O446    1.300   .     A
N444   O445    1.299   .     A
N449   O450    1.301   .     A
N449   O103    1.301   1_565 S
N452   O453    1.301   .     A
O454   N104    1.301   1_565 S
N457   O459    1.301   .     A
O458   N109    1.301   1_565 S
N460   O462    1.301   .     A
N460   C90     1.436   1_565 S
N460   O113    1.301   1_565 S
I464   N498    2.065   .     S
O465   C469    1.287   .     A
O465   Zn477   2.028   .     S
O466   C470    1.287   .     A
O466   Zn478   2.028   .     S
O467   Zn478   2.041   .     S
O467   C469    1.305   .     A
O468   C470    1.305   .     A
O468   Zn477   2.041   .     S
C469   C495    1.431   .     S
C470   C496    1.431   .     S
O471   C475    1.292   .     A
O471   Zn477   1.990   .     S
O472   C476    1.292   .     A
O472   Zn478   1.990   .     S
O473   Zn478   2.024   .     S
O473   C475    1.295   .     A
O474   C476    1.295   .     A
O474   Zn477   2.024   .     S
C475   C482    1.426   .     S
C476   C481    1.426   .     S
Zn477  N498    2.038   .     S
Zn478  N497    2.038   .     S
C479   C481    1.388   .     A
C479   N499    1.431   .     S
C479   C489    1.395   .     A
C480   C490    1.395   .     A
C480   C482    1.388   .     A
C480   N502    1.431   .     S
C481   C483    1.391   .     A
C482   C484    1.391   .     A
C483   C485    1.403   .     A
C483   I505    2.126   .     S
C484   I506    2.126   .     S
C484   C486    1.403   .     A
C485   C491    1.415   .     A
C485   C487    1.418   .     A
C486   C492    1.415   .     A
C486   C488    1.418   .     A
C487   C489    1.416   .     A
C487   C1010   1.395   1_554 S
C488   C490    1.416   .     A
C488   C1009   1.395   .     S
C489   C494    1.408   .     A
C490   C493    1.408   .     A
C491   N507    1.433   .     S
C491   C1015   1.401   1_554 S
C492   N510    1.433   .     S
C492   C1016   1.401   .     S
C493   I513    2.146   .     S
C493   C1013   1.401   .     S
C494   I514    2.146   .     S
C494   C1014   1.401   1_554 S
C495   C148    1.367   1_565 S
C495   N167    1.436   1_565 S
N497   N382    1.294   1_655 S
N497   I405    2.065   1_655 S
N499   O501    1.300   .     A
N499   O500    1.299   .     A
N502   O504    1.300   .     A
N502   O503    1.299   .     A
N507   O508    1.301   .     A
N507   O161    1.301   1_565 S
N510   O511    1.301   .     A
O512   N162    1.301   1_565 S
N515   O517    1.301   .     A
O516   N167    1.301   1_565 S
N518   O520    1.301   .     A
N518   C148    1.436   1_565 S
N518   O171    1.301   1_565 S
I522   N382    2.065   1_655 S
O523   C527    1.287   .     A
O523   Zn535   2.028   .     S
O524   C528    1.287   .     A
O524   Zn536   2.028   .     S
O525   Zn536   2.041   .     S
O525   C527    1.305   .     A
O526   C528    1.305   .     A
O526   Zn535   2.041   .     S
C527   C553    1.431   .     S
C528   C554    1.431   .     S
O529   C533    1.292   .     A
O529   Zn535   1.990   .     S
O530   C534    1.292   .     A
O530   Zn536   1.990   .     S
O531   Zn536   2.024   .     S
O531   C533    1.295   .     A
O532   C534    1.295   .     A
O532   Zn535   2.024   .     S
C533   C540    1.426   .     S
C534   C539    1.426   .     S
Zn535  N556    2.038   .     S
Zn536  N555    2.038   .     S
C537   C539    1.388   .     A
C537   N557    1.431   .     S
C537   C547    1.395   .     A
C538   C548    1.395   .     A
C538   C540    1.388   .     A
C538   N560    1.431   .     S
C539   C541    1.391   .     A
C540   C542    1.391   .     A
C541   C543    1.403   .     A
C541   I563    2.126   .     S
C542   I564    2.126   .     S
C542   C544    1.403   .     A
C543   C549    1.415   .     A
C543   C545    1.418   .     A
C544   C550    1.415   .     A
C544   C546    1.418   .     A
C545   C547    1.416   .     A
C546   C548    1.416   .     A
C546   C23     1.395   1_556 S
C547   C552    1.408   .     A
C548   C551    1.408   .     A
C549   N565    1.433   .     S
C550   N568    1.433   .     S
C550   C30     1.401   1_556 S
C551   I571    2.146   .     S
C551   C27     1.401   1_556 S
C552   I572    2.146   .     S
C553   C728    1.367   .     S
C553   N747    1.436   .     S
C554   C901    1.367   1_545 S
C554   N924    1.436   1_545 S
N555   N614    1.294   .     S
N555   I637    2.065   .     S
N556   N671    1.294   1_455 S
N556   I696    2.065   1_455 S
N557   O559    1.300   .     A
N557   O558    1.299   .     A
N560   O562    1.300   .     A
N560   O561    1.299   .     A
N565   O566    1.301   .     A
N565   O741    1.301   .     S
O567   N913    1.301   1_545 S
N568   O569    1.301   .     A
N568   O918    1.301   1_545 S
O570   N742    1.301   .     S
N573   O575    1.301   .     A
N573   C901    1.436   1_545 S
N573   O922    1.301   1_545 S
O574   N747    1.301   .     S
N576   O578    1.301   .     A
N576   C728    1.436   .     S
N576   O751    1.301   .     S
O577   N924    1.301   1_545 S
I579   N671    2.065   1_455 S
I580   N614    2.065   .     S
O581   C585    1.287   .     A
O581   Zn593   2.028   .     S
O582   C586    1.287   .     A
O582   Zn594   2.028   .     S
O583   Zn594   2.041   .     S
O583   C585    1.305   .     A
O584   C586    1.305   .     A
O584   Zn593   2.041   .     S
C585   C611    1.431   .     S
C586   C612    1.431   .     S
O587   C591    1.292   .     A
O587   Zn593   1.990   .     S
O588   C592    1.292   .     A
O588   Zn594   1.990   .     S
O589   Zn594   2.024   .     S
O589   C591    1.295   .     A
O590   C592    1.295   .     A
O590   Zn593   2.024   .     S
C591   C598    1.426   .     S
C592   C597    1.426   .     S
Zn593  N614    2.038   .     S
Zn594  N613    2.038   .     S
C595   C597    1.388   .     A
C595   N615    1.431   .     S
C595   C605    1.395   .     A
C596   C606    1.395   .     A
C596   C598    1.388   .     A
C596   N618    1.431   .     S
C597   C599    1.391   .     A
C598   C600    1.391   .     A
C599   C601    1.403   .     A
C599   I621    2.126   .     S
C600   I622    2.126   .     S
C600   C602    1.403   .     A
C601   C607    1.415   .     A
C601   C603    1.418   .     A
C602   C608    1.415   .     A
C602   C604    1.418   .     A
C603   C605    1.416   .     A
C604   C606    1.416   .     A
C604   C81     1.395   1_556 S
C605   C610    1.408   .     A
C606   C609    1.408   .     A
C607   N623    1.433   .     S
C608   N626    1.433   .     S
C608   C88     1.401   1_556 S
C609   I629    2.146   .     S
C609   C85     1.401   1_556 S
C610   I630    2.146   .     S
C611   C786    1.367   .     S
C611   N805    1.436   .     S
C612   C959    1.367   1_545 S
C612   N982    1.436   1_545 S
N613   N672    1.294   .     S
N613   I695    2.065   .     S
N615   O617    1.300   .     A
N615   O616    1.299   .     A
N618   O620    1.300   .     A
N618   O619    1.299   .     A
N623   O624    1.301   .     A
N623   O799    1.301   .     S
O625   N971    1.301   1_545 S
N626   O627    1.301   .     A
N626   O976    1.301   1_545 S
O628   N800    1.301   .     S
N631   O633    1.301   .     A
N631   C959    1.436   1_545 S
N631   O980    1.301   1_545 S
O632   N805    1.301   .     S
N634   O636    1.301   .     A
N634   C786    1.436   .     S
N634   O809    1.301   .     S
O635   N982    1.301   1_545 S
I638   N672    2.065   .     S
O639   C643    1.287   .     A
O639   Zn651   2.028   .     S
O640   C644    1.287   .     A
O640   Zn652   2.028   .     S
O641   Zn652   2.041   .     S
O641   C643    1.305   .     A
O642   C644    1.305   .     A
O642   Zn651   2.041   .     S
C643   C669    1.431   .     S
C644   C670    1.431   .     S
O645   C649    1.292   .     A
O645   Zn651   1.990   .     S
O646   C650    1.292   .     A
O646   Zn652   1.990   .     S
O647   Zn652   2.024   .     S
O647   C649    1.295   .     A
O648   C650    1.295   .     A
O648   Zn651   2.024   .     S
C649   C656    1.426   .     S
C650   C655    1.426   .     S
Zn651  N672    2.038   .     S
Zn652  N671    2.038   .     S
C653   C655    1.388   .     A
C653   N673    1.431   .     S
C653   C663    1.395   .     A
C654   C664    1.395   .     A
C654   C656    1.388   .     A
C654   N676    1.431   .     S
C655   C657    1.391   .     A
C656   C658    1.391   .     A
C657   C659    1.403   .     A
C657   I679    2.126   .     S
C658   I680    2.126   .     S
C658   C660    1.403   .     A
C659   C665    1.415   .     A
C659   C661    1.418   .     A
C660   C666    1.415   .     A
C660   C662    1.418   .     A
C661   C663    1.416   .     A
C662   C664    1.416   .     A
C662   C139    1.395   1_556 S
C663   C668    1.408   .     A
C664   C667    1.408   .     A
C665   N681    1.433   .     S
C666   N684    1.433   .     S
C666   C146    1.401   1_556 S
C667   I687    2.146   .     S
C667   C143    1.401   1_556 S
C668   I688    2.146   .     S
C669   C844    1.367   .     S
C669   N863    1.436   .     S
C670   C1017   1.367   1_545 S
C670   N1040   1.436   1_545 S
N671   N556    1.294   1_655 S
N671   I579    2.065   1_655 S
N673   O675    1.300   .     A
N673   O674    1.299   .     A
N676   O678    1.300   .     A
N676   O677    1.299   .     A
N681   O682    1.301   .     A
N681   O857    1.301   .     S
O683   N1029   1.301   1_545 S
N684   O685    1.301   .     A
N684   O1034   1.301   1_545 S
O686   N858    1.301   .     S
N689   O691    1.301   .     A
N689   C1017   1.436   1_545 S
N689   O1038   1.301   1_545 S
O690   N863    1.301   .     S
N692   O694    1.301   .     A
N692   C844    1.436   .     S
N692   O867    1.301   .     S
O693   N1040   1.301   1_545 S
I696   N556    2.065   1_655 S
O697   C701    1.287   .     A
O697   Zn709   2.028   .     S
O698   C702    1.287   .     A
O698   Zn710   2.028   .     S
O699   Zn710   2.041   .     S
O699   C701    1.305   .     A
O700   C702    1.305   .     A
O700   Zn709   2.041   .     S
C701   C727    1.431   .     S
C702   C728    1.431   .     S
O703   C707    1.292   .     A
O703   Zn709   1.990   .     S
O704   C708    1.292   .     A
O704   Zn710   1.990   .     S
O705   Zn710   2.024   .     S
O705   C707    1.295   .     A
O706   C708    1.295   .     A
O706   Zn709   2.024   .     S
C707   C714    1.426   .     S
C708   C713    1.426   .     S
Zn709  N730    2.038   .     S
Zn710  N729    2.038   .     S
C711   C713    1.388   .     A
C711   N731    1.431   .     S
C711   C721    1.395   .     A
C712   C722    1.395   .     A
C712   C714    1.388   .     A
C712   N734    1.431   .     S
C713   C715    1.391   .     A
C714   C716    1.391   .     A
C715   C717    1.403   .     A
C715   I737    2.126   .     S
C716   I738    2.126   .     S
C716   C718    1.403   .     A
C717   C723    1.415   .     A
C717   C719    1.418   .     A
C718   C724    1.415   .     A
C718   C720    1.418   .     A
C719   C721    1.416   .     A
C720   C722    1.416   .     A
C720   C197    1.395   1_556 S
C721   C726    1.408   .     A
C722   C725    1.408   .     A
C723   N739    1.433   .     S
C724   N742    1.433   .     S
C724   C204    1.401   1_556 S
C725   I745    2.146   .     S
C725   C201    1.401   1_556 S
C726   I746    2.146   .     S
C727   C902    1.367   .     S
C727   N921    1.436   .     S
N729   N788    1.294   .     S
N729   I811    2.065   .     S
N730   N845    1.294   1_455 S
N730   I870    2.065   1_455 S
N731   O733    1.300   .     A
N731   O732    1.299   .     A
N734   O736    1.300   .     A
N734   O735    1.299   .     A
N739   O740    1.301   .     A
N739   O915    1.301   .     S
N742   O743    1.301   .     A
O744   N916    1.301   .     S
N747   O749    1.301   .     A
O748   N921    1.301   .     S
N750   O752    1.301   .     A
N750   C902    1.436   .     S
N750   O925    1.301   .     S
I753   N845    2.065   1_455 S
I754   N788    2.065   .     S
O755   C759    1.287   .     A
O755   Zn767   2.028   .     S
O756   C760    1.287   .     A
O756   Zn768   2.028   .     S
O757   Zn768   2.041   .     S
O757   C759    1.305   .     A
O758   C760    1.305   .     A
O758   Zn767   2.041   .     S
C759   C785    1.431   .     S
C760   C786    1.431   .     S
O761   C765    1.292   .     A
O761   Zn767   1.990   .     S
O762   C766    1.292   .     A
O762   Zn768   1.990   .     S
O763   Zn768   2.024   .     S
O763   C765    1.295   .     A
O764   C766    1.295   .     A
O764   Zn767   2.024   .     S
C765   C772    1.426   .     S
C766   C771    1.426   .     S
Zn767  N788    2.038   .     S
Zn768  N787    2.038   .     S
C769   C771    1.388   .     A
C769   N789    1.431   .     S
C769   C779    1.395   .     A
C770   C780    1.395   .     A
C770   C772    1.388   .     A
C770   N792    1.431   .     S
C771   C773    1.391   .     A
C772   C774    1.391   .     A
C773   C775    1.403   .     A
C773   I795    2.126   .     S
C774   I796    2.126   .     S
C774   C776    1.403   .     A
C775   C781    1.415   .     A
C775   C777    1.418   .     A
C776   C782    1.415   .     A
C776   C778    1.418   .     A
C777   C779    1.416   .     A
C778   C780    1.416   .     A
C778   C255    1.395   1_556 S
C779   C784    1.408   .     A
C780   C783    1.408   .     A
C781   N797    1.433   .     S
C782   N800    1.433   .     S
C782   C262    1.401   1_556 S
C783   I803    2.146   .     S
C783   C259    1.401   1_556 S
C784   I804    2.146   .     S
C785   C960    1.367   .     S
C785   N979    1.436   .     S
N787   N846    1.294   .     S
N787   I869    2.065   .     S
N789   O791    1.300   .     A
N789   O790    1.299   .     A
N792   O794    1.300   .     A
N792   O793    1.299   .     A
N797   O798    1.301   .     A
N797   O973    1.301   .     S
N800   O801    1.301   .     A
O802   N974    1.301   .     S
N805   O807    1.301   .     A
O806   N979    1.301   .     S
N808   O810    1.301   .     A
N808   C960    1.436   .     S
N808   O983    1.301   .     S
I812   N846    2.065   .     S
O813   C817    1.287   .     A
O813   Zn825   2.028   .     S
O814   C818    1.287   .     A
O814   Zn826   2.028   .     S
O815   Zn826   2.041   .     S
O815   C817    1.305   .     A
O816   C818    1.305   .     A
O816   Zn825   2.041   .     S
C817   C843    1.431   .     S
C818   C844    1.431   .     S
O819   C823    1.292   .     A
O819   Zn825   1.990   .     S
O820   C824    1.292   .     A
O820   Zn826   1.990   .     S
O821   Zn826   2.024   .     S
O821   C823    1.295   .     A
O822   C824    1.295   .     A
O822   Zn825   2.024   .     S
C823   C830    1.426   .     S
C824   C829    1.426   .     S
Zn825  N846    2.038   .     S
Zn826  N845    2.038   .     S
C827   C829    1.388   .     A
C827   N847    1.431   .     S
C827   C837    1.395   .     A
C828   C838    1.395   .     A
C828   C830    1.388   .     A
C828   N850    1.431   .     S
C829   C831    1.391   .     A
C830   C832    1.391   .     A
C831   C833    1.403   .     A
C831   I853    2.126   .     S
C832   I854    2.126   .     S
C832   C834    1.403   .     A
C833   C839    1.415   .     A
C833   C835    1.418   .     A
C834   C840    1.415   .     A
C834   C836    1.418   .     A
C835   C837    1.416   .     A
C836   C838    1.416   .     A
C836   C313    1.395   1_556 S
C837   C842    1.408   .     A
C838   C841    1.408   .     A
C839   N855    1.433   .     S
C840   N858    1.433   .     S
C840   C320    1.401   1_556 S
C841   I861    2.146   .     S
C841   C317    1.401   1_556 S
C842   I862    2.146   .     S
C843   C1018   1.367   .     S
C843   N1037   1.436   .     S
N845   N730    1.294   1_655 S
N845   I753    2.065   1_655 S
N847   O849    1.300   .     A
N847   O848    1.299   .     A
N850   O852    1.300   .     A
N850   O851    1.299   .     A
N855   O856    1.301   .     A
N855   O1031   1.301   .     S
N858   O859    1.301   .     A
O860   N1032   1.301   .     S
N863   O865    1.301   .     A
O864   N1037   1.301   .     S
N866   O868    1.301   .     A
N866   C1018   1.436   .     S
N866   O1041   1.301   .     S
I870   N730    2.065   1_655 S
O871   C875    1.287   .     A
O871   Zn883   2.028   .     S
O872   C876    1.287   .     A
O872   Zn884   2.028   .     S
O873   Zn884   2.041   .     S
O873   C875    1.305   .     A
O874   C876    1.305   .     A
O874   Zn883   2.041   .     S
C875   C901    1.431   .     S
C876   C902    1.431   .     S
O877   C881    1.292   .     A
O877   Zn883   1.990   .     S
O878   C882    1.292   .     A
O878   Zn884   1.990   .     S
O879   Zn884   2.024   .     S
O879   C881    1.295   .     A
O880   C882    1.295   .     A
O880   Zn883   2.024   .     S
C881   C888    1.426   .     S
C882   C887    1.426   .     S
Zn883  N904    2.038   .     S
Zn884  N903    2.038   .     S
C885   C887    1.388   .     A
C885   N905    1.431   .     S
C885   C895    1.395   .     A
C886   C896    1.395   .     A
C886   C888    1.388   .     A
C886   N908    1.431   .     S
C887   C889    1.391   .     A
C888   C890    1.391   .     A
C889   C891    1.403   .     A
C889   I911    2.126   .     S
C890   I912    2.126   .     S
C890   C892    1.403   .     A
C891   C897    1.415   .     A
C891   C893    1.418   .     A
C892   C898    1.415   .     A
C892   C894    1.418   .     A
C893   C895    1.416   .     A
C894   C896    1.416   .     A
C894   C371    1.395   1_556 S
C895   C900    1.408   .     A
C896   C899    1.408   .     A
C897   N913    1.433   .     S
C898   N916    1.433   .     S
C898   C378    1.401   1_556 S
C899   I919    2.146   .     S
C899   C375    1.401   1_556 S
C900   I920    2.146   .     S
C901   C554    1.367   1_565 S
C901   N573    1.436   1_565 S
N903   N962    1.294   .     S
N903   I985    2.065   .     S
N904   N1019   1.294   1_455 S
N904   I1044   2.065   1_455 S
N905   O907    1.300   .     A
N905   O906    1.299   .     A
N908   O910    1.300   .     A
N908   O909    1.299   .     A
N913   O914    1.301   .     A
N913   O567    1.301   1_565 S
N916   O917    1.301   .     A
O918   N568    1.301   1_565 S
N921   O923    1.301   .     A
O922   N573    1.301   1_565 S
N924   O926    1.301   .     A
N924   C554    1.436   1_565 S
N924   O577    1.301   1_565 S
I927   N1019   2.065   1_455 S
I928   N962    2.065   .     S
O929   C933    1.287   .     A
O929   Zn941   2.028   .     S
O930   C934    1.287   .     A
O930   Zn942   2.028   .     S
O931   Zn942   2.041   .     S
O931   C933    1.305   .     A
O932   C934    1.305   .     A
O932   Zn941   2.041   .     S
C933   C959    1.431   .     S
C934   C960    1.431   .     S
O935   C939    1.292   .     A
O935   Zn941   1.990   .     S
O936   C940    1.292   .     A
O936   Zn942   1.990   .     S
O937   Zn942   2.024   .     S
O937   C939    1.295   .     A
O938   C940    1.295   .     A
O938   Zn941   2.024   .     S
C939   C946    1.426   .     S
C940   C945    1.426   .     S
Zn941  N962    2.038   .     S
Zn942  N961    2.038   .     S
C943   C945    1.388   .     A
C943   N963    1.431   .     S
C943   C953    1.395   .     A
C944   C954    1.395   .     A
C944   C946    1.388   .     A
C944   N966    1.431   .     S
C945   C947    1.391   .     A
C946   C948    1.391   .     A
C947   C949    1.403   .     A
C947   I969    2.126   .     S
C948   I970    2.126   .     S
C948   C950    1.403   .     A
C949   C955    1.415   .     A
C949   C951    1.418   .     A
C950   C956    1.415   .     A
C950   C952    1.418   .     A
C951   C953    1.416   .     A
C952   C954    1.416   .     A
C952   C429    1.395   1_556 S
C953   C958    1.408   .     A
C954   C957    1.408   .     A
C955   N971    1.433   .     S
C956   N974    1.433   .     S
C956   C436    1.401   1_556 S
C957   I977    2.146   .     S
C957   C433    1.401   1_556 S
C958   I978    2.146   .     S
C959   C612    1.367   1_565 S
C959   N631    1.436   1_565 S
N961   N1020   1.294   .     S
N961   I1043   2.065   .     S
N963   O965    1.300   .     A
N963   O964    1.299   .     A
N966   O968    1.300   .     A
N966   O967    1.299   .     A
N971   O972    1.301   .     A
N971   O625    1.301   1_565 S
N974   O975    1.301   .     A
O976   N626    1.301   1_565 S
N979   O981    1.301   .     A
O980   N631    1.301   1_565 S
N982   O984    1.301   .     A
N982   C612    1.436   1_565 S
N982   O635    1.301   1_565 S
I986   N1020   2.065   .     S
O987   C991    1.287   .     A
O987   Zn999   2.028   .     S
O988   C992    1.287   .     A
O988   Zn1000  2.028   .     S
O989   Zn1000  2.041   .     S
O989   C991    1.305   .     A
O990   C992    1.305   .     A
O990   Zn999   2.041   .     S
C991   C1017   1.431   .     S
C992   C1018   1.431   .     S
O993   C997    1.292   .     A
O993   Zn999   1.990   .     S
O994   C998    1.292   .     A
O994   Zn1000  1.990   .     S
O995   Zn1000  2.024   .     S
O995   C997    1.295   .     A
O996   C998    1.295   .     A
O996   Zn999   2.024   .     S
C997   C1004   1.426   .     S
C998   C1003   1.426   .     S
Zn999  N1020   2.038   .     S
Zn1000 N1019   2.038   .     S
C1001  C1003   1.388   .     A
C1001  N1021   1.431   .     S
C1001  C1011   1.395   .     A
C1002  C1012   1.395   .     A
C1002  C1004   1.388   .     A
C1002  N1024   1.431   .     S
C1003  C1005   1.391   .     A
C1004  C1006   1.391   .     A
C1005  C1007   1.403   .     A
C1005  I1027   2.126   .     S
C1006  I1028   2.126   .     S
C1006  C1008   1.403   .     A
C1007  C1013   1.415   .     A
C1007  C1009   1.418   .     A
C1008  C1014   1.415   .     A
C1008  C1010   1.418   .     A
C1009  C1011   1.416   .     A
C1010  C1012   1.416   .     A
C1010  C487    1.395   1_556 S
C1011  C1016   1.408   .     A
C1012  C1015   1.408   .     A
C1013  N1029   1.433   .     S
C1014  N1032   1.433   .     S
C1014  C494    1.401   1_556 S
C1015  I1035   2.146   .     S
C1015  C491    1.401   1_556 S
C1016  I1036   2.146   .     S
C1017  C670    1.367   1_565 S
C1017  N689    1.436   1_565 S
N1019  N904    1.294   1_655 S
N1019  I927    2.065   1_655 S
N1021  O1023   1.300   .     A
N1021  O1022   1.299   .     A
N1024  O1026   1.300   .     A
N1024  O1025   1.299   .     A
N1029  O1030   1.301   .     A
N1029  O683    1.301   1_565 S
N1032  O1033   1.301   .     A
O1034  N684    1.301   1_565 S
N1037  O1039   1.301   .     A
O1038  N689    1.301   1_565 S
N1040  O1042   1.301   .     A
N1040  C670    1.436   1_565 S
N1040  O693    1.301   1_565 S
I1044  N904    2.065   1_655 S
