data_str_m3_o1_o5_pcu_sym.106
_audit_creation_date              2020-01-03
_audit_creation_method            'Materials Studio'
_symmetry_space_group_name_H-M    'P1'
_symmetry_Int_Tables_number       1
_symmetry_cell_setting            triclinic
loop_
_symmetry_equiv_pos_as_xyz
  x,y,z
_cell_length_a                    32.3726
_cell_length_b                    29.6678
_cell_length_c                    26.7248
_cell_angle_alpha                 89.9991
_cell_angle_beta                  91.0072
_cell_angle_gamma                 89.9939
loop_
_atom_site_label
_atom_site_type_symbol
_atom_site_fract_x
_atom_site_fract_y
_atom_site_fract_z
_atom_site_U_iso_or_equiv
_atom_site_adp_type
_atom_site_occupancy
C1     C     0.08666   0.16667   0.16688   0.00000  Uiso   1.00
C2     C     0.24667   0.16666   0.16645   0.00000  Uiso   1.00
C3     C     0.16661   0.16667   0.07292   0.00000  Uiso   1.00
C4     C     0.16673   0.16667   0.26041   0.00000  Uiso   1.00
C5     C     0.16664   0.16667   0.02180   0.00000  Uiso   1.00
C6     C     0.16669   0.16667   0.31153   0.00000  Uiso   1.00
C7     C     0.02114   0.12551   0.16706   0.00000  Uiso   1.00
C8     C     0.31219   0.20782   0.16627   0.00000  Uiso   1.00
C9     C     0.31220   0.12551   0.16632   0.00000  Uiso   1.00
C10    C     0.02113   0.20782   0.16702   0.00000  Uiso   1.00
C11    C     0.29084   0.16667   0.16621   0.00000  Uiso   1.00
C12    C     0.04250   0.16667   0.16712   0.00000  Uiso   1.00
C13    C     0.19178   0.02403   0.19908   0.00000  Uiso   1.00
C14    C     0.14156   0.30930   0.13425   0.00000  Uiso   1.00
C15    C     0.14156   0.02404   0.13425   0.00000  Uiso   1.00
C16    C     0.19178   0.30930   0.19908   0.00000  Uiso   1.00
N17    N     0.16667   0.28573   0.16667   0.00000  Uiso   1.00
N18    N     0.16667   0.04760   0.16667   0.00000  Uiso   1.00
O19    O     0.10559   0.20487   0.16666   0.00000  Uiso   1.00
O20    O     0.22774   0.12846   0.16667   0.00000  Uiso   1.00
O21    O     0.22774   0.20487   0.16667   0.00000  Uiso   1.00
O22    O     0.10559   0.12846   0.16666   0.00000  Uiso   1.00
O23    O     0.16667   0.20488   0.09511   0.00000  Uiso   1.00
O24    O     0.16666   0.12845   0.23822   0.00000  Uiso   1.00
O25    O     0.16666   0.20488   0.23822   0.00000  Uiso   1.00
O26    O     0.16667   0.12845   0.09511   0.00000  Uiso   1.00
Zn27   Zn    0.16667   0.21771   0.16667   0.00000  Uiso   1.00
Zn28   Zn    0.16667   0.11563   0.16667   0.00000  Uiso   1.00
F29    F     0.04073   0.08500   0.16788   0.00000  Uiso   1.00
F30    F     0.29260   0.24834   0.16546   0.00000  Uiso   1.00
F31    F     0.29262   0.08500   0.16555   0.00000  Uiso   1.00
F32    F     0.04071   0.24834   0.16778   0.00000  Uiso   1.00
C33    C     0.21834   0.04838   0.23354   0.00000  Uiso   1.00
N34    N     0.23973   0.06765   0.26133   0.00000  Uiso   1.00
C35    C     0.11499   0.28495   0.09980   0.00000  Uiso   1.00
N36    N     0.09360   0.26569   0.07200   0.00000  Uiso   1.00
C37    C     0.11499   0.04839   0.09979   0.00000  Uiso   1.00
N38    N     0.09360   0.06767   0.07200   0.00000  Uiso   1.00
C39    C     0.21834   0.28494   0.23354   0.00000  Uiso   1.00
N40    N     0.23973   0.26567   0.26134   0.00000  Uiso   1.00
C41    C     0.41999   0.16667   0.16688   0.00000  Uiso   1.00
C42    C     0.58001   0.16666   0.16645   0.00000  Uiso   1.00
C43    C     0.49994   0.16667   0.07292   0.00000  Uiso   1.00
C44    C     0.50006   0.16667   0.26041   0.00000  Uiso   1.00
C45    C     0.49998   0.16667   0.02180   0.00000  Uiso   1.00
C46    C     0.50002   0.16667   0.31153   0.00000  Uiso   1.00
C47    C     0.35448   0.12551   0.16706   0.00000  Uiso   1.00
C48    C     0.64552   0.20782   0.16627   0.00000  Uiso   1.00
C49    C     0.64554   0.12551   0.16632   0.00000  Uiso   1.00
C50    C     0.35446   0.20782   0.16702   0.00000  Uiso   1.00
C51    C     0.62417   0.16667   0.16621   0.00000  Uiso   1.00
C52    C     0.37583   0.16667   0.16712   0.00000  Uiso   1.00
C53    C     0.52511   0.02403   0.19908   0.00000  Uiso   1.00
C54    C     0.47489   0.30930   0.13425   0.00000  Uiso   1.00
C55    C     0.47489   0.02404   0.13425   0.00000  Uiso   1.00
C56    C     0.52511   0.30930   0.19908   0.00000  Uiso   1.00
N57    N     0.50000   0.28573   0.16667   0.00000  Uiso   1.00
N58    N     0.50000   0.04760   0.16667   0.00000  Uiso   1.00
O59    O     0.43892   0.20487   0.16666   0.00000  Uiso   1.00
O60    O     0.56108   0.12846   0.16667   0.00000  Uiso   1.00
O61    O     0.56108   0.20487   0.16667   0.00000  Uiso   1.00
O62    O     0.43892   0.12846   0.16666   0.00000  Uiso   1.00
O63    O     0.50000   0.20488   0.09511   0.00000  Uiso   1.00
O64    O     0.50000   0.12845   0.23822   0.00000  Uiso   1.00
O65    O     0.50000   0.20488   0.23822   0.00000  Uiso   1.00
O66    O     0.50000   0.12845   0.09511   0.00000  Uiso   1.00
Zn67   Zn    0.50000   0.21771   0.16667   0.00000  Uiso   1.00
Zn68   Zn    0.50000   0.11563   0.16667   0.00000  Uiso   1.00
F69    F     0.37407   0.08500   0.16788   0.00000  Uiso   1.00
F70    F     0.62593   0.24834   0.16546   0.00000  Uiso   1.00
F71    F     0.62595   0.08500   0.16555   0.00000  Uiso   1.00
F72    F     0.37405   0.24834   0.16778   0.00000  Uiso   1.00
C73    C     0.55168   0.04838   0.23354   0.00000  Uiso   1.00
N74    N     0.57307   0.06765   0.26133   0.00000  Uiso   1.00
C75    C     0.44832   0.28495   0.09980   0.00000  Uiso   1.00
N76    N     0.42693   0.26569   0.07200   0.00000  Uiso   1.00
C77    C     0.44832   0.04839   0.09979   0.00000  Uiso   1.00
N78    N     0.42694   0.06767   0.07200   0.00000  Uiso   1.00
C79    C     0.55168   0.28494   0.23354   0.00000  Uiso   1.00
N80    N     0.57306   0.26567   0.26134   0.00000  Uiso   1.00
C81    C     0.75333   0.16667   0.16688   0.00000  Uiso   1.00
C82    C     0.91334   0.16666   0.16645   0.00000  Uiso   1.00
C83    C     0.83327   0.16667   0.07292   0.00000  Uiso   1.00
C84    C     0.83339   0.16667   0.26041   0.00000  Uiso   1.00
C85    C     0.83331   0.16667   0.02180   0.00000  Uiso   1.00
C86    C     0.83336   0.16667   0.31153   0.00000  Uiso   1.00
C87    C     0.68781   0.12551   0.16706   0.00000  Uiso   1.00
C88    C     0.97886   0.20782   0.16627   0.00000  Uiso   1.00
C89    C     0.97887   0.12551   0.16632   0.00000  Uiso   1.00
C90    C     0.68780   0.20782   0.16702   0.00000  Uiso   1.00
C91    C     0.95750   0.16667   0.16621   0.00000  Uiso   1.00
C92    C     0.70916   0.16667   0.16712   0.00000  Uiso   1.00
C93    C     0.85844   0.02403   0.19908   0.00000  Uiso   1.00
C94    C     0.80822   0.30930   0.13425   0.00000  Uiso   1.00
C95    C     0.80822   0.02404   0.13425   0.00000  Uiso   1.00
C96    C     0.85844   0.30930   0.19908   0.00000  Uiso   1.00
N97    N     0.83333   0.28573   0.16667   0.00000  Uiso   1.00
N98    N     0.83333   0.04760   0.16667   0.00000  Uiso   1.00
O99    O     0.77226   0.20487   0.16666   0.00000  Uiso   1.00
O100   O     0.89441   0.12846   0.16667   0.00000  Uiso   1.00
O101   O     0.89441   0.20487   0.16667   0.00000  Uiso   1.00
O102   O     0.77226   0.12846   0.16666   0.00000  Uiso   1.00
O103   O     0.83334   0.20488   0.09511   0.00000  Uiso   1.00
O104   O     0.83333   0.12845   0.23822   0.00000  Uiso   1.00
O105   O     0.83333   0.20488   0.23822   0.00000  Uiso   1.00
O106   O     0.83334   0.12845   0.09511   0.00000  Uiso   1.00
Zn107  Zn    0.83333   0.21771   0.16667   0.00000  Uiso   1.00
Zn108  Zn    0.83333   0.11563   0.16667   0.00000  Uiso   1.00
F109   F     0.70740   0.08500   0.16788   0.00000  Uiso   1.00
F110   F     0.95927   0.24834   0.16546   0.00000  Uiso   1.00
F111   F     0.95929   0.08500   0.16555   0.00000  Uiso   1.00
F112   F     0.70738   0.24834   0.16778   0.00000  Uiso   1.00
C113   C     0.88501   0.04838   0.23354   0.00000  Uiso   1.00
N114   N     0.90640   0.06765   0.26133   0.00000  Uiso   1.00
C115   C     0.78166   0.28495   0.09980   0.00000  Uiso   1.00
N116   N     0.76027   0.26569   0.07200   0.00000  Uiso   1.00
C117   C     0.78166   0.04839   0.09979   0.00000  Uiso   1.00
N118   N     0.76027   0.06767   0.07200   0.00000  Uiso   1.00
C119   C     0.88501   0.28494   0.23354   0.00000  Uiso   1.00
N120   N     0.90640   0.26567   0.26134   0.00000  Uiso   1.00
C121   C     0.08666   0.50000   0.16688   0.00000  Uiso   1.00
C122   C     0.24667   0.50000   0.16645   0.00000  Uiso   1.00
C123   C     0.16661   0.50000   0.07292   0.00000  Uiso   1.00
C124   C     0.16673   0.50000   0.26041   0.00000  Uiso   1.00
C125   C     0.16664   0.50000   0.02180   0.00000  Uiso   1.00
C126   C     0.16669   0.50000   0.31153   0.00000  Uiso   1.00
C127   C     0.02114   0.45885   0.16706   0.00000  Uiso   1.00
C128   C     0.31219   0.54115   0.16627   0.00000  Uiso   1.00
C129   C     0.31220   0.45884   0.16632   0.00000  Uiso   1.00
C130   C     0.02113   0.54116   0.16702   0.00000  Uiso   1.00
C131   C     0.29084   0.50000   0.16621   0.00000  Uiso   1.00
C132   C     0.04250   0.50000   0.16712   0.00000  Uiso   1.00
C133   C     0.19178   0.35736   0.19908   0.00000  Uiso   1.00
C134   C     0.14156   0.64264   0.13425   0.00000  Uiso   1.00
C135   C     0.14156   0.35737   0.13425   0.00000  Uiso   1.00
C136   C     0.19178   0.64263   0.19908   0.00000  Uiso   1.00
N137   N     0.16667   0.61907   0.16667   0.00000  Uiso   1.00
N138   N     0.16667   0.38093   0.16667   0.00000  Uiso   1.00
O139   O     0.10559   0.53821   0.16666   0.00000  Uiso   1.00
O140   O     0.22774   0.46179   0.16667   0.00000  Uiso   1.00
O141   O     0.22774   0.53821   0.16667   0.00000  Uiso   1.00
O142   O     0.10559   0.46179   0.16666   0.00000  Uiso   1.00
O143   O     0.16667   0.53821   0.09511   0.00000  Uiso   1.00
O144   O     0.16666   0.46179   0.23822   0.00000  Uiso   1.00
O145   O     0.16666   0.53821   0.23822   0.00000  Uiso   1.00
O146   O     0.16667   0.46179   0.09511   0.00000  Uiso   1.00
Zn147  Zn    0.16667   0.55104   0.16667   0.00000  Uiso   1.00
Zn148  Zn    0.16667   0.44896   0.16667   0.00000  Uiso   1.00
F149   F     0.04073   0.41833   0.16788   0.00000  Uiso   1.00
F150   F     0.29260   0.58167   0.16546   0.00000  Uiso   1.00
F151   F     0.29262   0.41833   0.16555   0.00000  Uiso   1.00
F152   F     0.04071   0.58167   0.16778   0.00000  Uiso   1.00
C153   C     0.21834   0.38171   0.23354   0.00000  Uiso   1.00
N154   N     0.23973   0.40098   0.26133   0.00000  Uiso   1.00
C155   C     0.11499   0.61829   0.09980   0.00000  Uiso   1.00
N156   N     0.09360   0.59902   0.07200   0.00000  Uiso   1.00
C157   C     0.11499   0.38173   0.09979   0.00000  Uiso   1.00
N158   N     0.09360   0.40100   0.07200   0.00000  Uiso   1.00
C159   C     0.21834   0.61827   0.23354   0.00000  Uiso   1.00
N160   N     0.23973   0.59900   0.26134   0.00000  Uiso   1.00
C161   C     0.41999   0.50000   0.16688   0.00000  Uiso   1.00
C162   C     0.58001   0.50000   0.16645   0.00000  Uiso   1.00
C163   C     0.49994   0.50000   0.07292   0.00000  Uiso   1.00
C164   C     0.50006   0.50000   0.26041   0.00000  Uiso   1.00
C165   C     0.49998   0.50000   0.02180   0.00000  Uiso   1.00
C166   C     0.50002   0.50000   0.31153   0.00000  Uiso   1.00
C167   C     0.35448   0.45885   0.16706   0.00000  Uiso   1.00
C168   C     0.64552   0.54115   0.16627   0.00000  Uiso   1.00
C169   C     0.64554   0.45884   0.16632   0.00000  Uiso   1.00
C170   C     0.35446   0.54116   0.16702   0.00000  Uiso   1.00
C171   C     0.62417   0.50000   0.16621   0.00000  Uiso   1.00
C172   C     0.37583   0.50000   0.16712   0.00000  Uiso   1.00
C173   C     0.52511   0.35736   0.19908   0.00000  Uiso   1.00
C174   C     0.47489   0.64264   0.13425   0.00000  Uiso   1.00
C175   C     0.47489   0.35737   0.13425   0.00000  Uiso   1.00
C176   C     0.52511   0.64263   0.19908   0.00000  Uiso   1.00
N177   N     0.50000   0.61907   0.16667   0.00000  Uiso   1.00
N178   N     0.50000   0.38093   0.16667   0.00000  Uiso   1.00
O179   O     0.43892   0.53821   0.16666   0.00000  Uiso   1.00
O180   O     0.56108   0.46179   0.16667   0.00000  Uiso   1.00
O181   O     0.56108   0.53821   0.16667   0.00000  Uiso   1.00
O182   O     0.43892   0.46179   0.16666   0.00000  Uiso   1.00
O183   O     0.50000   0.53821   0.09511   0.00000  Uiso   1.00
O184   O     0.50000   0.46179   0.23822   0.00000  Uiso   1.00
O185   O     0.50000   0.53821   0.23822   0.00000  Uiso   1.00
O186   O     0.50000   0.46179   0.09511   0.00000  Uiso   1.00
Zn187  Zn    0.50000   0.55104   0.16667   0.00000  Uiso   1.00
Zn188  Zn    0.50000   0.44896   0.16667   0.00000  Uiso   1.00
F189   F     0.37407   0.41833   0.16788   0.00000  Uiso   1.00
F190   F     0.62593   0.58167   0.16546   0.00000  Uiso   1.00
F191   F     0.62595   0.41833   0.16555   0.00000  Uiso   1.00
F192   F     0.37405   0.58167   0.16778   0.00000  Uiso   1.00
C193   C     0.55168   0.38171   0.23354   0.00000  Uiso   1.00
N194   N     0.57307   0.40098   0.26133   0.00000  Uiso   1.00
C195   C     0.44832   0.61829   0.09980   0.00000  Uiso   1.00
N196   N     0.42693   0.59902   0.07200   0.00000  Uiso   1.00
C197   C     0.44832   0.38173   0.09979   0.00000  Uiso   1.00
N198   N     0.42694   0.40100   0.07200   0.00000  Uiso   1.00
C199   C     0.55168   0.61827   0.23354   0.00000  Uiso   1.00
N200   N     0.57306   0.59900   0.26134   0.00000  Uiso   1.00
C201   C     0.75333   0.50000   0.16688   0.00000  Uiso   1.00
C202   C     0.91334   0.50000   0.16645   0.00000  Uiso   1.00
C203   C     0.83327   0.50000   0.07292   0.00000  Uiso   1.00
C204   C     0.83339   0.50000   0.26041   0.00000  Uiso   1.00
C205   C     0.83331   0.50000   0.02180   0.00000  Uiso   1.00
C206   C     0.83336   0.50000   0.31153   0.00000  Uiso   1.00
C207   C     0.68781   0.45885   0.16706   0.00000  Uiso   1.00
C208   C     0.97886   0.54115   0.16627   0.00000  Uiso   1.00
C209   C     0.97887   0.45884   0.16632   0.00000  Uiso   1.00
C210   C     0.68780   0.54116   0.16702   0.00000  Uiso   1.00
C211   C     0.95750   0.50000   0.16621   0.00000  Uiso   1.00
C212   C     0.70916   0.50000   0.16712   0.00000  Uiso   1.00
C213   C     0.85844   0.35736   0.19908   0.00000  Uiso   1.00
C214   C     0.80822   0.64264   0.13425   0.00000  Uiso   1.00
C215   C     0.80822   0.35737   0.13425   0.00000  Uiso   1.00
C216   C     0.85844   0.64263   0.19908   0.00000  Uiso   1.00
N217   N     0.83333   0.61907   0.16667   0.00000  Uiso   1.00
N218   N     0.83333   0.38093   0.16667   0.00000  Uiso   1.00
O219   O     0.77226   0.53821   0.16666   0.00000  Uiso   1.00
O220   O     0.89441   0.46179   0.16667   0.00000  Uiso   1.00
O221   O     0.89441   0.53821   0.16667   0.00000  Uiso   1.00
O222   O     0.77226   0.46179   0.16666   0.00000  Uiso   1.00
O223   O     0.83334   0.53821   0.09511   0.00000  Uiso   1.00
O224   O     0.83333   0.46179   0.23822   0.00000  Uiso   1.00
O225   O     0.83333   0.53821   0.23822   0.00000  Uiso   1.00
O226   O     0.83334   0.46179   0.09511   0.00000  Uiso   1.00
Zn227  Zn    0.83333   0.55104   0.16667   0.00000  Uiso   1.00
Zn228  Zn    0.83333   0.44896   0.16667   0.00000  Uiso   1.00
F229   F     0.70740   0.41833   0.16788   0.00000  Uiso   1.00
F230   F     0.95927   0.58167   0.16546   0.00000  Uiso   1.00
F231   F     0.95929   0.41833   0.16555   0.00000  Uiso   1.00
F232   F     0.70738   0.58167   0.16778   0.00000  Uiso   1.00
C233   C     0.88501   0.38171   0.23354   0.00000  Uiso   1.00
N234   N     0.90640   0.40098   0.26133   0.00000  Uiso   1.00
C235   C     0.78166   0.61829   0.09980   0.00000  Uiso   1.00
N236   N     0.76027   0.59902   0.07200   0.00000  Uiso   1.00
C237   C     0.78166   0.38173   0.09979   0.00000  Uiso   1.00
N238   N     0.76027   0.40100   0.07200   0.00000  Uiso   1.00
C239   C     0.88501   0.61827   0.23354   0.00000  Uiso   1.00
N240   N     0.90640   0.59900   0.26134   0.00000  Uiso   1.00
C241   C     0.08666   0.83334   0.16688   0.00000  Uiso   1.00
C242   C     0.24667   0.83333   0.16645   0.00000  Uiso   1.00
C243   C     0.16661   0.83333   0.07292   0.00000  Uiso   1.00
C244   C     0.16673   0.83333   0.26041   0.00000  Uiso   1.00
C245   C     0.16664   0.83333   0.02180   0.00000  Uiso   1.00
C246   C     0.16669   0.83333   0.31153   0.00000  Uiso   1.00
C247   C     0.02114   0.79218   0.16706   0.00000  Uiso   1.00
C248   C     0.31219   0.87449   0.16627   0.00000  Uiso   1.00
C249   C     0.31220   0.79218   0.16632   0.00000  Uiso   1.00
C250   C     0.02113   0.87449   0.16702   0.00000  Uiso   1.00
C251   C     0.29084   0.83333   0.16621   0.00000  Uiso   1.00
C252   C     0.04250   0.83333   0.16712   0.00000  Uiso   1.00
C253   C     0.19178   0.69070   0.19908   0.00000  Uiso   1.00
C254   C     0.14156   0.97597   0.13425   0.00000  Uiso   1.00
C255   C     0.14156   0.69070   0.13425   0.00000  Uiso   1.00
C256   C     0.19178   0.97596   0.19908   0.00000  Uiso   1.00
N257   N     0.16667   0.95240   0.16667   0.00000  Uiso   1.00
N258   N     0.16667   0.71427   0.16667   0.00000  Uiso   1.00
O259   O     0.10559   0.87154   0.16666   0.00000  Uiso   1.00
O260   O     0.22774   0.79513   0.16667   0.00000  Uiso   1.00
O261   O     0.22774   0.87154   0.16667   0.00000  Uiso   1.00
O262   O     0.10559   0.79513   0.16666   0.00000  Uiso   1.00
O263   O     0.16667   0.87155   0.09511   0.00000  Uiso   1.00
O264   O     0.16666   0.79512   0.23822   0.00000  Uiso   1.00
O265   O     0.16666   0.87155   0.23822   0.00000  Uiso   1.00
O266   O     0.16667   0.79512   0.09511   0.00000  Uiso   1.00
Zn267  Zn    0.16667   0.88437   0.16667   0.00000  Uiso   1.00
Zn268  Zn    0.16667   0.78229   0.16667   0.00000  Uiso   1.00
F269   F     0.04073   0.75166   0.16788   0.00000  Uiso   1.00
F270   F     0.29260   0.91500   0.16546   0.00000  Uiso   1.00
F271   F     0.29262   0.75166   0.16555   0.00000  Uiso   1.00
F272   F     0.04071   0.91500   0.16778   0.00000  Uiso   1.00
C273   C     0.21834   0.71505   0.23354   0.00000  Uiso   1.00
N274   N     0.23973   0.73431   0.26133   0.00000  Uiso   1.00
C275   C     0.11499   0.95162   0.09980   0.00000  Uiso   1.00
N276   N     0.09360   0.93235   0.07200   0.00000  Uiso   1.00
C277   C     0.11499   0.71506   0.09979   0.00000  Uiso   1.00
N278   N     0.09360   0.73433   0.07200   0.00000  Uiso   1.00
C279   C     0.21834   0.95161   0.23354   0.00000  Uiso   1.00
N280   N     0.23973   0.93233   0.26134   0.00000  Uiso   1.00
C281   C     0.41999   0.83334   0.16688   0.00000  Uiso   1.00
C282   C     0.58001   0.83333   0.16645   0.00000  Uiso   1.00
C283   C     0.49994   0.83333   0.07292   0.00000  Uiso   1.00
C284   C     0.50006   0.83333   0.26041   0.00000  Uiso   1.00
C285   C     0.49998   0.83333   0.02180   0.00000  Uiso   1.00
C286   C     0.50002   0.83333   0.31153   0.00000  Uiso   1.00
C287   C     0.35448   0.79218   0.16706   0.00000  Uiso   1.00
C288   C     0.64552   0.87449   0.16627   0.00000  Uiso   1.00
C289   C     0.64554   0.79218   0.16632   0.00000  Uiso   1.00
C290   C     0.35446   0.87449   0.16702   0.00000  Uiso   1.00
C291   C     0.62417   0.83333   0.16621   0.00000  Uiso   1.00
C292   C     0.37583   0.83333   0.16712   0.00000  Uiso   1.00
C293   C     0.52511   0.69070   0.19908   0.00000  Uiso   1.00
C294   C     0.47489   0.97597   0.13425   0.00000  Uiso   1.00
C295   C     0.47489   0.69070   0.13425   0.00000  Uiso   1.00
C296   C     0.52511   0.97596   0.19908   0.00000  Uiso   1.00
N297   N     0.50000   0.95240   0.16667   0.00000  Uiso   1.00
N298   N     0.50000   0.71427   0.16667   0.00000  Uiso   1.00
O299   O     0.43892   0.87154   0.16666   0.00000  Uiso   1.00
O300   O     0.56108   0.79513   0.16667   0.00000  Uiso   1.00
O301   O     0.56108   0.87154   0.16667   0.00000  Uiso   1.00
O302   O     0.43892   0.79513   0.16666   0.00000  Uiso   1.00
O303   O     0.50000   0.87155   0.09511   0.00000  Uiso   1.00
O304   O     0.50000   0.79512   0.23822   0.00000  Uiso   1.00
O305   O     0.50000   0.87155   0.23822   0.00000  Uiso   1.00
O306   O     0.50000   0.79512   0.09511   0.00000  Uiso   1.00
Zn307  Zn    0.50000   0.88437   0.16667   0.00000  Uiso   1.00
Zn308  Zn    0.50000   0.78229   0.16667   0.00000  Uiso   1.00
F309   F     0.37407   0.75166   0.16788   0.00000  Uiso   1.00
F310   F     0.62593   0.91500   0.16546   0.00000  Uiso   1.00
F311   F     0.62595   0.75166   0.16555   0.00000  Uiso   1.00
F312   F     0.37405   0.91500   0.16778   0.00000  Uiso   1.00
C313   C     0.55168   0.71505   0.23354   0.00000  Uiso   1.00
N314   N     0.57307   0.73431   0.26133   0.00000  Uiso   1.00
C315   C     0.44832   0.95162   0.09980   0.00000  Uiso   1.00
N316   N     0.42693   0.93235   0.07200   0.00000  Uiso   1.00
C317   C     0.44832   0.71506   0.09979   0.00000  Uiso   1.00
N318   N     0.42694   0.73433   0.07200   0.00000  Uiso   1.00
C319   C     0.55168   0.95161   0.23354   0.00000  Uiso   1.00
N320   N     0.57306   0.93233   0.26134   0.00000  Uiso   1.00
C321   C     0.75333   0.83334   0.16688   0.00000  Uiso   1.00
C322   C     0.91334   0.83333   0.16645   0.00000  Uiso   1.00
C323   C     0.83327   0.83333   0.07292   0.00000  Uiso   1.00
C324   C     0.83339   0.83333   0.26041   0.00000  Uiso   1.00
C325   C     0.83331   0.83333   0.02180   0.00000  Uiso   1.00
C326   C     0.83336   0.83333   0.31153   0.00000  Uiso   1.00
C327   C     0.68781   0.79218   0.16706   0.00000  Uiso   1.00
C328   C     0.97886   0.87449   0.16627   0.00000  Uiso   1.00
C329   C     0.97887   0.79218   0.16632   0.00000  Uiso   1.00
C330   C     0.68780   0.87449   0.16702   0.00000  Uiso   1.00
C331   C     0.95750   0.83333   0.16621   0.00000  Uiso   1.00
C332   C     0.70916   0.83333   0.16712   0.00000  Uiso   1.00
C333   C     0.85844   0.69070   0.19908   0.00000  Uiso   1.00
C334   C     0.80822   0.97597   0.13425   0.00000  Uiso   1.00
C335   C     0.80822   0.69070   0.13425   0.00000  Uiso   1.00
C336   C     0.85844   0.97596   0.19908   0.00000  Uiso   1.00
N337   N     0.83333   0.95240   0.16667   0.00000  Uiso   1.00
N338   N     0.83333   0.71427   0.16667   0.00000  Uiso   1.00
O339   O     0.77226   0.87154   0.16666   0.00000  Uiso   1.00
O340   O     0.89441   0.79513   0.16667   0.00000  Uiso   1.00
O341   O     0.89441   0.87154   0.16667   0.00000  Uiso   1.00
O342   O     0.77226   0.79513   0.16666   0.00000  Uiso   1.00
O343   O     0.83334   0.87155   0.09511   0.00000  Uiso   1.00
O344   O     0.83333   0.79512   0.23822   0.00000  Uiso   1.00
O345   O     0.83333   0.87155   0.23822   0.00000  Uiso   1.00
O346   O     0.83334   0.79512   0.09511   0.00000  Uiso   1.00
Zn347  Zn    0.83333   0.88437   0.16667   0.00000  Uiso   1.00
Zn348  Zn    0.83333   0.78229   0.16667   0.00000  Uiso   1.00
F349   F     0.70740   0.75166   0.16788   0.00000  Uiso   1.00
F350   F     0.95927   0.91500   0.16546   0.00000  Uiso   1.00
F351   F     0.95929   0.75166   0.16555   0.00000  Uiso   1.00
F352   F     0.70738   0.91500   0.16778   0.00000  Uiso   1.00
C353   C     0.88501   0.71505   0.23354   0.00000  Uiso   1.00
N354   N     0.90640   0.73431   0.26133   0.00000  Uiso   1.00
C355   C     0.78166   0.95162   0.09980   0.00000  Uiso   1.00
N356   N     0.76027   0.93235   0.07200   0.00000  Uiso   1.00
C357   C     0.78166   0.71506   0.09979   0.00000  Uiso   1.00
N358   N     0.76027   0.73433   0.07200   0.00000  Uiso   1.00
C359   C     0.88501   0.95161   0.23354   0.00000  Uiso   1.00
N360   N     0.90640   0.93233   0.26134   0.00000  Uiso   1.00
C361   C     0.08666   0.16667   0.50021   0.00000  Uiso   1.00
C362   C     0.24667   0.16666   0.49979   0.00000  Uiso   1.00
C363   C     0.16661   0.16667   0.40625   0.00000  Uiso   1.00
C364   C     0.16673   0.16667   0.59375   0.00000  Uiso   1.00
C365   C     0.16664   0.16667   0.35514   0.00000  Uiso   1.00
C366   C     0.16669   0.16667   0.64486   0.00000  Uiso   1.00
C367   C     0.02114   0.12551   0.50039   0.00000  Uiso   1.00
C368   C     0.31219   0.20782   0.49961   0.00000  Uiso   1.00
C369   C     0.31220   0.12551   0.49965   0.00000  Uiso   1.00
C370   C     0.02113   0.20782   0.50035   0.00000  Uiso   1.00
C371   C     0.29084   0.16667   0.49955   0.00000  Uiso   1.00
C372   C     0.04250   0.16667   0.50045   0.00000  Uiso   1.00
C373   C     0.19178   0.02403   0.53242   0.00000  Uiso   1.00
C374   C     0.14156   0.30930   0.46758   0.00000  Uiso   1.00
C375   C     0.14156   0.02404   0.46758   0.00000  Uiso   1.00
C376   C     0.19178   0.30930   0.53242   0.00000  Uiso   1.00
N377   N     0.16667   0.28573   0.50000   0.00000  Uiso   1.00
N378   N     0.16667   0.04760   0.50000   0.00000  Uiso   1.00
O379   O     0.10559   0.20487   0.50000   0.00000  Uiso   1.00
O380   O     0.22774   0.12846   0.50000   0.00000  Uiso   1.00
O381   O     0.22774   0.20487   0.50000   0.00000  Uiso   1.00
O382   O     0.10559   0.12846   0.50000   0.00000  Uiso   1.00
O383   O     0.16667   0.20488   0.42845   0.00000  Uiso   1.00
O384   O     0.16666   0.12845   0.57155   0.00000  Uiso   1.00
O385   O     0.16666   0.20488   0.57155   0.00000  Uiso   1.00
O386   O     0.16667   0.12845   0.42845   0.00000  Uiso   1.00
Zn387  Zn    0.16667   0.21771   0.50000   0.00000  Uiso   1.00
Zn388  Zn    0.16667   0.11563   0.50000   0.00000  Uiso   1.00
F389   F     0.04073   0.08500   0.50121   0.00000  Uiso   1.00
F390   F     0.29260   0.24834   0.49879   0.00000  Uiso   1.00
F391   F     0.29262   0.08500   0.49888   0.00000  Uiso   1.00
F392   F     0.04071   0.24834   0.50112   0.00000  Uiso   1.00
C393   C     0.21834   0.04838   0.56687   0.00000  Uiso   1.00
N394   N     0.23973   0.06765   0.59466   0.00000  Uiso   1.00
C395   C     0.11499   0.28495   0.43313   0.00000  Uiso   1.00
N396   N     0.09360   0.26569   0.40534   0.00000  Uiso   1.00
C397   C     0.11499   0.04839   0.43313   0.00000  Uiso   1.00
N398   N     0.09360   0.06767   0.40533   0.00000  Uiso   1.00
C399   C     0.21834   0.28494   0.56687   0.00000  Uiso   1.00
N400   N     0.23973   0.26567   0.59467   0.00000  Uiso   1.00
C401   C     0.41999   0.16667   0.50021   0.00000  Uiso   1.00
C402   C     0.58001   0.16666   0.49979   0.00000  Uiso   1.00
C403   C     0.49994   0.16667   0.40625   0.00000  Uiso   1.00
C404   C     0.50006   0.16667   0.59375   0.00000  Uiso   1.00
C405   C     0.49998   0.16667   0.35514   0.00000  Uiso   1.00
C406   C     0.50002   0.16667   0.64486   0.00000  Uiso   1.00
C407   C     0.35448   0.12551   0.50039   0.00000  Uiso   1.00
C408   C     0.64552   0.20782   0.49961   0.00000  Uiso   1.00
C409   C     0.64554   0.12551   0.49965   0.00000  Uiso   1.00
C410   C     0.35446   0.20782   0.50035   0.00000  Uiso   1.00
C411   C     0.62417   0.16667   0.49955   0.00000  Uiso   1.00
C412   C     0.37583   0.16667   0.50045   0.00000  Uiso   1.00
C413   C     0.52511   0.02403   0.53242   0.00000  Uiso   1.00
C414   C     0.47489   0.30930   0.46758   0.00000  Uiso   1.00
C415   C     0.47489   0.02404   0.46758   0.00000  Uiso   1.00
C416   C     0.52511   0.30930   0.53242   0.00000  Uiso   1.00
N417   N     0.50000   0.28573   0.50000   0.00000  Uiso   1.00
N418   N     0.50000   0.04760   0.50000   0.00000  Uiso   1.00
O419   O     0.43892   0.20487   0.50000   0.00000  Uiso   1.00
O420   O     0.56108   0.12846   0.50000   0.00000  Uiso   1.00
O421   O     0.56108   0.20487   0.50000   0.00000  Uiso   1.00
O422   O     0.43892   0.12846   0.50000   0.00000  Uiso   1.00
O423   O     0.50000   0.20488   0.42845   0.00000  Uiso   1.00
O424   O     0.50000   0.12845   0.57155   0.00000  Uiso   1.00
O425   O     0.50000   0.20488   0.57155   0.00000  Uiso   1.00
O426   O     0.50000   0.12845   0.42845   0.00000  Uiso   1.00
Zn427  Zn    0.50000   0.21771   0.50000   0.00000  Uiso   1.00
Zn428  Zn    0.50000   0.11563   0.50000   0.00000  Uiso   1.00
F429   F     0.37407   0.08500   0.50121   0.00000  Uiso   1.00
F430   F     0.62593   0.24834   0.49879   0.00000  Uiso   1.00
F431   F     0.62595   0.08500   0.49888   0.00000  Uiso   1.00
F432   F     0.37405   0.24834   0.50112   0.00000  Uiso   1.00
C433   C     0.55168   0.04838   0.56687   0.00000  Uiso   1.00
N434   N     0.57307   0.06765   0.59466   0.00000  Uiso   1.00
C435   C     0.44832   0.28495   0.43313   0.00000  Uiso   1.00
N436   N     0.42693   0.26569   0.40534   0.00000  Uiso   1.00
C437   C     0.44832   0.04839   0.43313   0.00000  Uiso   1.00
N438   N     0.42694   0.06767   0.40533   0.00000  Uiso   1.00
C439   C     0.55168   0.28494   0.56687   0.00000  Uiso   1.00
N440   N     0.57306   0.26567   0.59467   0.00000  Uiso   1.00
C441   C     0.75333   0.16667   0.50021   0.00000  Uiso   1.00
C442   C     0.91334   0.16666   0.49979   0.00000  Uiso   1.00
C443   C     0.83327   0.16667   0.40625   0.00000  Uiso   1.00
C444   C     0.83339   0.16667   0.59375   0.00000  Uiso   1.00
C445   C     0.83331   0.16667   0.35514   0.00000  Uiso   1.00
C446   C     0.83336   0.16667   0.64486   0.00000  Uiso   1.00
C447   C     0.68781   0.12551   0.50039   0.00000  Uiso   1.00
C448   C     0.97886   0.20782   0.49961   0.00000  Uiso   1.00
C449   C     0.97887   0.12551   0.49965   0.00000  Uiso   1.00
C450   C     0.68780   0.20782   0.50035   0.00000  Uiso   1.00
C451   C     0.95750   0.16667   0.49955   0.00000  Uiso   1.00
C452   C     0.70916   0.16667   0.50045   0.00000  Uiso   1.00
C453   C     0.85844   0.02403   0.53242   0.00000  Uiso   1.00
C454   C     0.80822   0.30930   0.46758   0.00000  Uiso   1.00
C455   C     0.80822   0.02404   0.46758   0.00000  Uiso   1.00
C456   C     0.85844   0.30930   0.53242   0.00000  Uiso   1.00
N457   N     0.83333   0.28573   0.50000   0.00000  Uiso   1.00
N458   N     0.83333   0.04760   0.50000   0.00000  Uiso   1.00
O459   O     0.77226   0.20487   0.50000   0.00000  Uiso   1.00
O460   O     0.89441   0.12846   0.50000   0.00000  Uiso   1.00
O461   O     0.89441   0.20487   0.50000   0.00000  Uiso   1.00
O462   O     0.77226   0.12846   0.50000   0.00000  Uiso   1.00
O463   O     0.83334   0.20488   0.42845   0.00000  Uiso   1.00
O464   O     0.83333   0.12845   0.57155   0.00000  Uiso   1.00
O465   O     0.83333   0.20488   0.57155   0.00000  Uiso   1.00
O466   O     0.83334   0.12845   0.42845   0.00000  Uiso   1.00
Zn467  Zn    0.83333   0.21771   0.50000   0.00000  Uiso   1.00
Zn468  Zn    0.83333   0.11563   0.50000   0.00000  Uiso   1.00
F469   F     0.70740   0.08500   0.50121   0.00000  Uiso   1.00
F470   F     0.95927   0.24834   0.49879   0.00000  Uiso   1.00
F471   F     0.95929   0.08500   0.49888   0.00000  Uiso   1.00
F472   F     0.70738   0.24834   0.50112   0.00000  Uiso   1.00
C473   C     0.88501   0.04838   0.56687   0.00000  Uiso   1.00
N474   N     0.90640   0.06765   0.59466   0.00000  Uiso   1.00
C475   C     0.78166   0.28495   0.43313   0.00000  Uiso   1.00
N476   N     0.76027   0.26569   0.40534   0.00000  Uiso   1.00
C477   C     0.78166   0.04839   0.43313   0.00000  Uiso   1.00
N478   N     0.76027   0.06767   0.40533   0.00000  Uiso   1.00
C479   C     0.88501   0.28494   0.56687   0.00000  Uiso   1.00
N480   N     0.90640   0.26567   0.59467   0.00000  Uiso   1.00
C481   C     0.08666   0.50000   0.50021   0.00000  Uiso   1.00
C482   C     0.24667   0.50000   0.49979   0.00000  Uiso   1.00
C483   C     0.16661   0.50000   0.40625   0.00000  Uiso   1.00
C484   C     0.16673   0.50000   0.59375   0.00000  Uiso   1.00
C485   C     0.16664   0.50000   0.35514   0.00000  Uiso   1.00
C486   C     0.16669   0.50000   0.64486   0.00000  Uiso   1.00
C487   C     0.02114   0.45885   0.50039   0.00000  Uiso   1.00
C488   C     0.31219   0.54115   0.49961   0.00000  Uiso   1.00
C489   C     0.31220   0.45884   0.49965   0.00000  Uiso   1.00
C490   C     0.02113   0.54116   0.50035   0.00000  Uiso   1.00
C491   C     0.29084   0.50000   0.49955   0.00000  Uiso   1.00
C492   C     0.04250   0.50000   0.50045   0.00000  Uiso   1.00
C493   C     0.19178   0.35736   0.53242   0.00000  Uiso   1.00
C494   C     0.14156   0.64264   0.46758   0.00000  Uiso   1.00
C495   C     0.14156   0.35737   0.46758   0.00000  Uiso   1.00
C496   C     0.19178   0.64263   0.53242   0.00000  Uiso   1.00
N497   N     0.16667   0.61907   0.50000   0.00000  Uiso   1.00
N498   N     0.16667   0.38093   0.50000   0.00000  Uiso   1.00
O499   O     0.10559   0.53821   0.50000   0.00000  Uiso   1.00
O500   O     0.22774   0.46179   0.50000   0.00000  Uiso   1.00
O501   O     0.22774   0.53821   0.50000   0.00000  Uiso   1.00
O502   O     0.10559   0.46179   0.50000   0.00000  Uiso   1.00
O503   O     0.16667   0.53821   0.42845   0.00000  Uiso   1.00
O504   O     0.16666   0.46179   0.57155   0.00000  Uiso   1.00
O505   O     0.16666   0.53821   0.57155   0.00000  Uiso   1.00
O506   O     0.16667   0.46179   0.42845   0.00000  Uiso   1.00
Zn507  Zn    0.16667   0.55104   0.50000   0.00000  Uiso   1.00
Zn508  Zn    0.16667   0.44896   0.50000   0.00000  Uiso   1.00
F509   F     0.04073   0.41833   0.50121   0.00000  Uiso   1.00
F510   F     0.29260   0.58167   0.49879   0.00000  Uiso   1.00
F511   F     0.29262   0.41833   0.49888   0.00000  Uiso   1.00
F512   F     0.04071   0.58167   0.50112   0.00000  Uiso   1.00
C513   C     0.21834   0.38171   0.56687   0.00000  Uiso   1.00
N514   N     0.23973   0.40098   0.59466   0.00000  Uiso   1.00
C515   C     0.11499   0.61829   0.43313   0.00000  Uiso   1.00
N516   N     0.09360   0.59902   0.40534   0.00000  Uiso   1.00
C517   C     0.11499   0.38173   0.43313   0.00000  Uiso   1.00
N518   N     0.09360   0.40100   0.40533   0.00000  Uiso   1.00
C519   C     0.21834   0.61827   0.56687   0.00000  Uiso   1.00
N520   N     0.23973   0.59900   0.59467   0.00000  Uiso   1.00
C521   C     0.41999   0.50000   0.50021   0.00000  Uiso   1.00
C522   C     0.58001   0.50000   0.49979   0.00000  Uiso   1.00
C523   C     0.49994   0.50000   0.40625   0.00000  Uiso   1.00
C524   C     0.50006   0.50000   0.59375   0.00000  Uiso   1.00
C525   C     0.49998   0.50000   0.35514   0.00000  Uiso   1.00
C526   C     0.50002   0.50000   0.64486   0.00000  Uiso   1.00
C527   C     0.35448   0.45885   0.50039   0.00000  Uiso   1.00
C528   C     0.64552   0.54115   0.49961   0.00000  Uiso   1.00
C529   C     0.64554   0.45884   0.49965   0.00000  Uiso   1.00
C530   C     0.35446   0.54116   0.50035   0.00000  Uiso   1.00
C531   C     0.62417   0.50000   0.49955   0.00000  Uiso   1.00
C532   C     0.37583   0.50000   0.50045   0.00000  Uiso   1.00
C533   C     0.52511   0.35736   0.53242   0.00000  Uiso   1.00
C534   C     0.47489   0.64264   0.46758   0.00000  Uiso   1.00
C535   C     0.47489   0.35737   0.46758   0.00000  Uiso   1.00
C536   C     0.52511   0.64263   0.53242   0.00000  Uiso   1.00
N537   N     0.50000   0.61907   0.50000   0.00000  Uiso   1.00
N538   N     0.50000   0.38093   0.50000   0.00000  Uiso   1.00
O539   O     0.43892   0.53821   0.50000   0.00000  Uiso   1.00
O540   O     0.56108   0.46179   0.50000   0.00000  Uiso   1.00
O541   O     0.56108   0.53821   0.50000   0.00000  Uiso   1.00
O542   O     0.43892   0.46179   0.50000   0.00000  Uiso   1.00
O543   O     0.50000   0.53821   0.42845   0.00000  Uiso   1.00
O544   O     0.50000   0.46179   0.57155   0.00000  Uiso   1.00
O545   O     0.50000   0.53821   0.57155   0.00000  Uiso   1.00
O546   O     0.50000   0.46179   0.42845   0.00000  Uiso   1.00
Zn547  Zn    0.50000   0.55104   0.50000   0.00000  Uiso   1.00
Zn548  Zn    0.50000   0.44896   0.50000   0.00000  Uiso   1.00
F549   F     0.37407   0.41833   0.50121   0.00000  Uiso   1.00
F550   F     0.62593   0.58167   0.49879   0.00000  Uiso   1.00
F551   F     0.62595   0.41833   0.49888   0.00000  Uiso   1.00
F552   F     0.37405   0.58167   0.50112   0.00000  Uiso   1.00
C553   C     0.55168   0.38171   0.56687   0.00000  Uiso   1.00
N554   N     0.57307   0.40098   0.59466   0.00000  Uiso   1.00
C555   C     0.44832   0.61829   0.43313   0.00000  Uiso   1.00
N556   N     0.42693   0.59902   0.40534   0.00000  Uiso   1.00
C557   C     0.44832   0.38173   0.43313   0.00000  Uiso   1.00
N558   N     0.42694   0.40100   0.40533   0.00000  Uiso   1.00
C559   C     0.55168   0.61827   0.56687   0.00000  Uiso   1.00
N560   N     0.57306   0.59900   0.59467   0.00000  Uiso   1.00
C561   C     0.75333   0.50000   0.50021   0.00000  Uiso   1.00
C562   C     0.91334   0.50000   0.49979   0.00000  Uiso   1.00
C563   C     0.83327   0.50000   0.40625   0.00000  Uiso   1.00
C564   C     0.83339   0.50000   0.59375   0.00000  Uiso   1.00
C565   C     0.83331   0.50000   0.35514   0.00000  Uiso   1.00
C566   C     0.83336   0.50000   0.64486   0.00000  Uiso   1.00
C567   C     0.68781   0.45885   0.50039   0.00000  Uiso   1.00
C568   C     0.97886   0.54115   0.49961   0.00000  Uiso   1.00
C569   C     0.97887   0.45884   0.49965   0.00000  Uiso   1.00
C570   C     0.68780   0.54116   0.50035   0.00000  Uiso   1.00
C571   C     0.95750   0.50000   0.49955   0.00000  Uiso   1.00
C572   C     0.70916   0.50000   0.50045   0.00000  Uiso   1.00
C573   C     0.85844   0.35736   0.53242   0.00000  Uiso   1.00
C574   C     0.80822   0.64264   0.46758   0.00000  Uiso   1.00
C575   C     0.80822   0.35737   0.46758   0.00000  Uiso   1.00
C576   C     0.85844   0.64263   0.53242   0.00000  Uiso   1.00
N577   N     0.83333   0.61907   0.50000   0.00000  Uiso   1.00
N578   N     0.83333   0.38093   0.50000   0.00000  Uiso   1.00
O579   O     0.77226   0.53821   0.50000   0.00000  Uiso   1.00
O580   O     0.89441   0.46179   0.50000   0.00000  Uiso   1.00
O581   O     0.89441   0.53821   0.50000   0.00000  Uiso   1.00
O582   O     0.77226   0.46179   0.50000   0.00000  Uiso   1.00
O583   O     0.83334   0.53821   0.42845   0.00000  Uiso   1.00
O584   O     0.83333   0.46179   0.57155   0.00000  Uiso   1.00
O585   O     0.83333   0.53821   0.57155   0.00000  Uiso   1.00
O586   O     0.83334   0.46179   0.42845   0.00000  Uiso   1.00
Zn587  Zn    0.83333   0.55104   0.50000   0.00000  Uiso   1.00
Zn588  Zn    0.83333   0.44896   0.50000   0.00000  Uiso   1.00
F589   F     0.70740   0.41833   0.50121   0.00000  Uiso   1.00
F590   F     0.95927   0.58167   0.49879   0.00000  Uiso   1.00
F591   F     0.95929   0.41833   0.49888   0.00000  Uiso   1.00
F592   F     0.70738   0.58167   0.50112   0.00000  Uiso   1.00
C593   C     0.88501   0.38171   0.56687   0.00000  Uiso   1.00
N594   N     0.90640   0.40098   0.59466   0.00000  Uiso   1.00
C595   C     0.78166   0.61829   0.43313   0.00000  Uiso   1.00
N596   N     0.76027   0.59902   0.40534   0.00000  Uiso   1.00
C597   C     0.78166   0.38173   0.43313   0.00000  Uiso   1.00
N598   N     0.76027   0.40100   0.40533   0.00000  Uiso   1.00
C599   C     0.88501   0.61827   0.56687   0.00000  Uiso   1.00
N600   N     0.90640   0.59900   0.59467   0.00000  Uiso   1.00
C601   C     0.08666   0.83334   0.50021   0.00000  Uiso   1.00
C602   C     0.24667   0.83333   0.49979   0.00000  Uiso   1.00
C603   C     0.16661   0.83333   0.40625   0.00000  Uiso   1.00
C604   C     0.16673   0.83333   0.59375   0.00000  Uiso   1.00
C605   C     0.16664   0.83333   0.35514   0.00000  Uiso   1.00
C606   C     0.16669   0.83333   0.64486   0.00000  Uiso   1.00
C607   C     0.02114   0.79218   0.50039   0.00000  Uiso   1.00
C608   C     0.31219   0.87449   0.49961   0.00000  Uiso   1.00
C609   C     0.31220   0.79218   0.49965   0.00000  Uiso   1.00
C610   C     0.02113   0.87449   0.50035   0.00000  Uiso   1.00
C611   C     0.29084   0.83333   0.49955   0.00000  Uiso   1.00
C612   C     0.04250   0.83333   0.50045   0.00000  Uiso   1.00
C613   C     0.19178   0.69070   0.53242   0.00000  Uiso   1.00
C614   C     0.14156   0.97597   0.46758   0.00000  Uiso   1.00
C615   C     0.14156   0.69070   0.46758   0.00000  Uiso   1.00
C616   C     0.19178   0.97596   0.53242   0.00000  Uiso   1.00
N617   N     0.16667   0.95240   0.50000   0.00000  Uiso   1.00
N618   N     0.16667   0.71427   0.50000   0.00000  Uiso   1.00
O619   O     0.10559   0.87154   0.50000   0.00000  Uiso   1.00
O620   O     0.22774   0.79513   0.50000   0.00000  Uiso   1.00
O621   O     0.22774   0.87154   0.50000   0.00000  Uiso   1.00
O622   O     0.10559   0.79513   0.50000   0.00000  Uiso   1.00
O623   O     0.16667   0.87155   0.42845   0.00000  Uiso   1.00
O624   O     0.16666   0.79512   0.57155   0.00000  Uiso   1.00
O625   O     0.16666   0.87155   0.57155   0.00000  Uiso   1.00
O626   O     0.16667   0.79512   0.42845   0.00000  Uiso   1.00
Zn627  Zn    0.16667   0.88437   0.50000   0.00000  Uiso   1.00
Zn628  Zn    0.16667   0.78229   0.50000   0.00000  Uiso   1.00
F629   F     0.04073   0.75166   0.50121   0.00000  Uiso   1.00
F630   F     0.29260   0.91500   0.49879   0.00000  Uiso   1.00
F631   F     0.29262   0.75166   0.49888   0.00000  Uiso   1.00
F632   F     0.04071   0.91500   0.50112   0.00000  Uiso   1.00
C633   C     0.21834   0.71505   0.56687   0.00000  Uiso   1.00
N634   N     0.23973   0.73431   0.59466   0.00000  Uiso   1.00
C635   C     0.11499   0.95162   0.43313   0.00000  Uiso   1.00
N636   N     0.09360   0.93235   0.40534   0.00000  Uiso   1.00
C637   C     0.11499   0.71506   0.43313   0.00000  Uiso   1.00
N638   N     0.09360   0.73433   0.40533   0.00000  Uiso   1.00
C639   C     0.21834   0.95161   0.56687   0.00000  Uiso   1.00
N640   N     0.23973   0.93233   0.59467   0.00000  Uiso   1.00
C641   C     0.41999   0.83334   0.50021   0.00000  Uiso   1.00
C642   C     0.58001   0.83333   0.49979   0.00000  Uiso   1.00
C643   C     0.49994   0.83333   0.40625   0.00000  Uiso   1.00
C644   C     0.50006   0.83333   0.59375   0.00000  Uiso   1.00
C645   C     0.49998   0.83333   0.35514   0.00000  Uiso   1.00
C646   C     0.50002   0.83333   0.64486   0.00000  Uiso   1.00
C647   C     0.35448   0.79218   0.50039   0.00000  Uiso   1.00
C648   C     0.64552   0.87449   0.49961   0.00000  Uiso   1.00
C649   C     0.64554   0.79218   0.49965   0.00000  Uiso   1.00
C650   C     0.35446   0.87449   0.50035   0.00000  Uiso   1.00
C651   C     0.62417   0.83333   0.49955   0.00000  Uiso   1.00
C652   C     0.37583   0.83333   0.50045   0.00000  Uiso   1.00
C653   C     0.52511   0.69070   0.53242   0.00000  Uiso   1.00
C654   C     0.47489   0.97597   0.46758   0.00000  Uiso   1.00
C655   C     0.47489   0.69070   0.46758   0.00000  Uiso   1.00
C656   C     0.52511   0.97596   0.53242   0.00000  Uiso   1.00
N657   N     0.50000   0.95240   0.50000   0.00000  Uiso   1.00
N658   N     0.50000   0.71427   0.50000   0.00000  Uiso   1.00
O659   O     0.43892   0.87154   0.50000   0.00000  Uiso   1.00
O660   O     0.56108   0.79513   0.50000   0.00000  Uiso   1.00
O661   O     0.56108   0.87154   0.50000   0.00000  Uiso   1.00
O662   O     0.43892   0.79513   0.50000   0.00000  Uiso   1.00
O663   O     0.50000   0.87155   0.42845   0.00000  Uiso   1.00
O664   O     0.50000   0.79512   0.57155   0.00000  Uiso   1.00
O665   O     0.50000   0.87155   0.57155   0.00000  Uiso   1.00
O666   O     0.50000   0.79512   0.42845   0.00000  Uiso   1.00
Zn667  Zn    0.50000   0.88437   0.50000   0.00000  Uiso   1.00
Zn668  Zn    0.50000   0.78229   0.50000   0.00000  Uiso   1.00
F669   F     0.37407   0.75166   0.50121   0.00000  Uiso   1.00
F670   F     0.62593   0.91500   0.49879   0.00000  Uiso   1.00
F671   F     0.62595   0.75166   0.49888   0.00000  Uiso   1.00
F672   F     0.37405   0.91500   0.50112   0.00000  Uiso   1.00
C673   C     0.55168   0.71505   0.56687   0.00000  Uiso   1.00
N674   N     0.57307   0.73431   0.59466   0.00000  Uiso   1.00
C675   C     0.44832   0.95162   0.43313   0.00000  Uiso   1.00
N676   N     0.42693   0.93235   0.40534   0.00000  Uiso   1.00
C677   C     0.44832   0.71506   0.43313   0.00000  Uiso   1.00
N678   N     0.42694   0.73433   0.40533   0.00000  Uiso   1.00
C679   C     0.55168   0.95161   0.56687   0.00000  Uiso   1.00
N680   N     0.57306   0.93233   0.59467   0.00000  Uiso   1.00
C681   C     0.75333   0.83334   0.50021   0.00000  Uiso   1.00
C682   C     0.91334   0.83333   0.49979   0.00000  Uiso   1.00
C683   C     0.83327   0.83333   0.40625   0.00000  Uiso   1.00
C684   C     0.83339   0.83333   0.59375   0.00000  Uiso   1.00
C685   C     0.83331   0.83333   0.35514   0.00000  Uiso   1.00
C686   C     0.83336   0.83333   0.64486   0.00000  Uiso   1.00
C687   C     0.68781   0.79218   0.50039   0.00000  Uiso   1.00
C688   C     0.97886   0.87449   0.49961   0.00000  Uiso   1.00
C689   C     0.97887   0.79218   0.49965   0.00000  Uiso   1.00
C690   C     0.68780   0.87449   0.50035   0.00000  Uiso   1.00
C691   C     0.95750   0.83333   0.49955   0.00000  Uiso   1.00
C692   C     0.70916   0.83333   0.50045   0.00000  Uiso   1.00
C693   C     0.85844   0.69070   0.53242   0.00000  Uiso   1.00
C694   C     0.80822   0.97597   0.46758   0.00000  Uiso   1.00
C695   C     0.80822   0.69070   0.46758   0.00000  Uiso   1.00
C696   C     0.85844   0.97596   0.53242   0.00000  Uiso   1.00
N697   N     0.83333   0.95240   0.50000   0.00000  Uiso   1.00
N698   N     0.83333   0.71427   0.50000   0.00000  Uiso   1.00
O699   O     0.77226   0.87154   0.50000   0.00000  Uiso   1.00
O700   O     0.89441   0.79513   0.50000   0.00000  Uiso   1.00
O701   O     0.89441   0.87154   0.50000   0.00000  Uiso   1.00
O702   O     0.77226   0.79513   0.50000   0.00000  Uiso   1.00
O703   O     0.83334   0.87155   0.42845   0.00000  Uiso   1.00
O704   O     0.83333   0.79512   0.57155   0.00000  Uiso   1.00
O705   O     0.83333   0.87155   0.57155   0.00000  Uiso   1.00
O706   O     0.83334   0.79512   0.42845   0.00000  Uiso   1.00
Zn707  Zn    0.83333   0.88437   0.50000   0.00000  Uiso   1.00
Zn708  Zn    0.83333   0.78229   0.50000   0.00000  Uiso   1.00
F709   F     0.70740   0.75166   0.50121   0.00000  Uiso   1.00
F710   F     0.95927   0.91500   0.49879   0.00000  Uiso   1.00
F711   F     0.95929   0.75166   0.49888   0.00000  Uiso   1.00
F712   F     0.70738   0.91500   0.50112   0.00000  Uiso   1.00
C713   C     0.88501   0.71505   0.56687   0.00000  Uiso   1.00
N714   N     0.90640   0.73431   0.59466   0.00000  Uiso   1.00
C715   C     0.78166   0.95162   0.43313   0.00000  Uiso   1.00
N716   N     0.76027   0.93235   0.40534   0.00000  Uiso   1.00
C717   C     0.78166   0.71506   0.43313   0.00000  Uiso   1.00
N718   N     0.76027   0.73433   0.40533   0.00000  Uiso   1.00
C719   C     0.88501   0.95161   0.56687   0.00000  Uiso   1.00
N720   N     0.90640   0.93233   0.59467   0.00000  Uiso   1.00
C721   C     0.08666   0.16667   0.83355   0.00000  Uiso   1.00
C722   C     0.24667   0.16666   0.83312   0.00000  Uiso   1.00
C723   C     0.16661   0.16667   0.73959   0.00000  Uiso   1.00
C724   C     0.16673   0.16667   0.92708   0.00000  Uiso   1.00
C725   C     0.16664   0.16667   0.68847   0.00000  Uiso   1.00
C726   C     0.16669   0.16667   0.97820   0.00000  Uiso   1.00
C727   C     0.02114   0.12551   0.83373   0.00000  Uiso   1.00
C728   C     0.31219   0.20782   0.83294   0.00000  Uiso   1.00
C729   C     0.31220   0.12551   0.83298   0.00000  Uiso   1.00
C730   C     0.02113   0.20782   0.83368   0.00000  Uiso   1.00
C731   C     0.29084   0.16667   0.83288   0.00000  Uiso   1.00
C732   C     0.04250   0.16667   0.83379   0.00000  Uiso   1.00
C733   C     0.19178   0.02403   0.86575   0.00000  Uiso   1.00
C734   C     0.14156   0.30930   0.80092   0.00000  Uiso   1.00
C735   C     0.14156   0.02404   0.80092   0.00000  Uiso   1.00
C736   C     0.19178   0.30930   0.86575   0.00000  Uiso   1.00
N737   N     0.16667   0.28573   0.83333   0.00000  Uiso   1.00
N738   N     0.16667   0.04760   0.83333   0.00000  Uiso   1.00
O739   O     0.10559   0.20487   0.83333   0.00000  Uiso   1.00
O740   O     0.22774   0.12846   0.83334   0.00000  Uiso   1.00
O741   O     0.22774   0.20487   0.83334   0.00000  Uiso   1.00
O742   O     0.10559   0.12846   0.83333   0.00000  Uiso   1.00
O743   O     0.16667   0.20488   0.76178   0.00000  Uiso   1.00
O744   O     0.16666   0.12845   0.90489   0.00000  Uiso   1.00
O745   O     0.16666   0.20488   0.90489   0.00000  Uiso   1.00
O746   O     0.16667   0.12845   0.76178   0.00000  Uiso   1.00
Zn747  Zn    0.16667   0.21771   0.83333   0.00000  Uiso   1.00
Zn748  Zn    0.16667   0.11563   0.83333   0.00000  Uiso   1.00
F749   F     0.04073   0.08500   0.83454   0.00000  Uiso   1.00
F750   F     0.29260   0.24834   0.83213   0.00000  Uiso   1.00
F751   F     0.29262   0.08500   0.83222   0.00000  Uiso   1.00
F752   F     0.04071   0.24834   0.83445   0.00000  Uiso   1.00
C753   C     0.21834   0.04838   0.90020   0.00000  Uiso   1.00
N754   N     0.23973   0.06765   0.92800   0.00000  Uiso   1.00
C755   C     0.11499   0.28495   0.76646   0.00000  Uiso   1.00
N756   N     0.09360   0.26569   0.73867   0.00000  Uiso   1.00
C757   C     0.11499   0.04839   0.76646   0.00000  Uiso   1.00
N758   N     0.09360   0.06767   0.73867   0.00000  Uiso   1.00
C759   C     0.21834   0.28494   0.90021   0.00000  Uiso   1.00
N760   N     0.23973   0.26567   0.92800   0.00000  Uiso   1.00
C761   C     0.41999   0.16667   0.83355   0.00000  Uiso   1.00
C762   C     0.58001   0.16666   0.83312   0.00000  Uiso   1.00
C763   C     0.49994   0.16667   0.73959   0.00000  Uiso   1.00
C764   C     0.50006   0.16667   0.92708   0.00000  Uiso   1.00
C765   C     0.49998   0.16667   0.68847   0.00000  Uiso   1.00
C766   C     0.50002   0.16667   0.97820   0.00000  Uiso   1.00
C767   C     0.35448   0.12551   0.83373   0.00000  Uiso   1.00
C768   C     0.64552   0.20782   0.83294   0.00000  Uiso   1.00
C769   C     0.64554   0.12551   0.83298   0.00000  Uiso   1.00
C770   C     0.35446   0.20782   0.83368   0.00000  Uiso   1.00
C771   C     0.62417   0.16667   0.83288   0.00000  Uiso   1.00
C772   C     0.37583   0.16667   0.83379   0.00000  Uiso   1.00
C773   C     0.52511   0.02403   0.86575   0.00000  Uiso   1.00
C774   C     0.47489   0.30930   0.80092   0.00000  Uiso   1.00
C775   C     0.47489   0.02404   0.80092   0.00000  Uiso   1.00
C776   C     0.52511   0.30930   0.86575   0.00000  Uiso   1.00
N777   N     0.50000   0.28573   0.83333   0.00000  Uiso   1.00
N778   N     0.50000   0.04760   0.83333   0.00000  Uiso   1.00
O779   O     0.43892   0.20487   0.83333   0.00000  Uiso   1.00
O780   O     0.56108   0.12846   0.83334   0.00000  Uiso   1.00
O781   O     0.56108   0.20487   0.83334   0.00000  Uiso   1.00
O782   O     0.43892   0.12846   0.83333   0.00000  Uiso   1.00
O783   O     0.50000   0.20488   0.76178   0.00000  Uiso   1.00
O784   O     0.50000   0.12845   0.90489   0.00000  Uiso   1.00
O785   O     0.50000   0.20488   0.90489   0.00000  Uiso   1.00
O786   O     0.50000   0.12845   0.76178   0.00000  Uiso   1.00
Zn787  Zn    0.50000   0.21771   0.83333   0.00000  Uiso   1.00
Zn788  Zn    0.50000   0.11563   0.83333   0.00000  Uiso   1.00
F789   F     0.37407   0.08500   0.83454   0.00000  Uiso   1.00
F790   F     0.62593   0.24834   0.83213   0.00000  Uiso   1.00
F791   F     0.62595   0.08500   0.83222   0.00000  Uiso   1.00
F792   F     0.37405   0.24834   0.83445   0.00000  Uiso   1.00
C793   C     0.55168   0.04838   0.90020   0.00000  Uiso   1.00
N794   N     0.57307   0.06765   0.92800   0.00000  Uiso   1.00
C795   C     0.44832   0.28495   0.76646   0.00000  Uiso   1.00
N796   N     0.42693   0.26569   0.73867   0.00000  Uiso   1.00
C797   C     0.44832   0.04839   0.76646   0.00000  Uiso   1.00
N798   N     0.42694   0.06767   0.73867   0.00000  Uiso   1.00
C799   C     0.55168   0.28494   0.90021   0.00000  Uiso   1.00
N800   N     0.57306   0.26567   0.92800   0.00000  Uiso   1.00
C801   C     0.75333   0.16667   0.83355   0.00000  Uiso   1.00
C802   C     0.91334   0.16666   0.83312   0.00000  Uiso   1.00
C803   C     0.83327   0.16667   0.73959   0.00000  Uiso   1.00
C804   C     0.83339   0.16667   0.92708   0.00000  Uiso   1.00
C805   C     0.83331   0.16667   0.68847   0.00000  Uiso   1.00
C806   C     0.83336   0.16667   0.97820   0.00000  Uiso   1.00
C807   C     0.68781   0.12551   0.83373   0.00000  Uiso   1.00
C808   C     0.97886   0.20782   0.83294   0.00000  Uiso   1.00
C809   C     0.97887   0.12551   0.83298   0.00000  Uiso   1.00
C810   C     0.68780   0.20782   0.83368   0.00000  Uiso   1.00
C811   C     0.95750   0.16667   0.83288   0.00000  Uiso   1.00
C812   C     0.70916   0.16667   0.83379   0.00000  Uiso   1.00
C813   C     0.85844   0.02403   0.86575   0.00000  Uiso   1.00
C814   C     0.80822   0.30930   0.80092   0.00000  Uiso   1.00
C815   C     0.80822   0.02404   0.80092   0.00000  Uiso   1.00
C816   C     0.85844   0.30930   0.86575   0.00000  Uiso   1.00
N817   N     0.83333   0.28573   0.83333   0.00000  Uiso   1.00
N818   N     0.83333   0.04760   0.83333   0.00000  Uiso   1.00
O819   O     0.77226   0.20487   0.83333   0.00000  Uiso   1.00
O820   O     0.89441   0.12846   0.83334   0.00000  Uiso   1.00
O821   O     0.89441   0.20487   0.83334   0.00000  Uiso   1.00
O822   O     0.77226   0.12846   0.83333   0.00000  Uiso   1.00
O823   O     0.83334   0.20488   0.76178   0.00000  Uiso   1.00
O824   O     0.83333   0.12845   0.90489   0.00000  Uiso   1.00
O825   O     0.83333   0.20488   0.90489   0.00000  Uiso   1.00
O826   O     0.83334   0.12845   0.76178   0.00000  Uiso   1.00
Zn827  Zn    0.83333   0.21771   0.83333   0.00000  Uiso   1.00
Zn828  Zn    0.83333   0.11563   0.83333   0.00000  Uiso   1.00
F829   F     0.70740   0.08500   0.83454   0.00000  Uiso   1.00
F830   F     0.95927   0.24834   0.83213   0.00000  Uiso   1.00
F831   F     0.95929   0.08500   0.83222   0.00000  Uiso   1.00
F832   F     0.70738   0.24834   0.83445   0.00000  Uiso   1.00
C833   C     0.88501   0.04838   0.90020   0.00000  Uiso   1.00
N834   N     0.90640   0.06765   0.92800   0.00000  Uiso   1.00
C835   C     0.78166   0.28495   0.76646   0.00000  Uiso   1.00
N836   N     0.76027   0.26569   0.73867   0.00000  Uiso   1.00
C837   C     0.78166   0.04839   0.76646   0.00000  Uiso   1.00
N838   N     0.76027   0.06767   0.73867   0.00000  Uiso   1.00
C839   C     0.88501   0.28494   0.90021   0.00000  Uiso   1.00
N840   N     0.90640   0.26567   0.92800   0.00000  Uiso   1.00
C841   C     0.08666   0.50000   0.83355   0.00000  Uiso   1.00
C842   C     0.24667   0.50000   0.83312   0.00000  Uiso   1.00
C843   C     0.16661   0.50000   0.73959   0.00000  Uiso   1.00
C844   C     0.16673   0.50000   0.92708   0.00000  Uiso   1.00
C845   C     0.16664   0.50000   0.68847   0.00000  Uiso   1.00
C846   C     0.16669   0.50000   0.97820   0.00000  Uiso   1.00
C847   C     0.02114   0.45885   0.83373   0.00000  Uiso   1.00
C848   C     0.31219   0.54115   0.83294   0.00000  Uiso   1.00
C849   C     0.31220   0.45884   0.83298   0.00000  Uiso   1.00
C850   C     0.02113   0.54116   0.83368   0.00000  Uiso   1.00
C851   C     0.29084   0.50000   0.83288   0.00000  Uiso   1.00
C852   C     0.04250   0.50000   0.83379   0.00000  Uiso   1.00
C853   C     0.19178   0.35736   0.86575   0.00000  Uiso   1.00
C854   C     0.14156   0.64264   0.80092   0.00000  Uiso   1.00
C855   C     0.14156   0.35737   0.80092   0.00000  Uiso   1.00
C856   C     0.19178   0.64263   0.86575   0.00000  Uiso   1.00
N857   N     0.16667   0.61907   0.83333   0.00000  Uiso   1.00
N858   N     0.16667   0.38093   0.83333   0.00000  Uiso   1.00
O859   O     0.10559   0.53821   0.83333   0.00000  Uiso   1.00
O860   O     0.22774   0.46179   0.83334   0.00000  Uiso   1.00
O861   O     0.22774   0.53821   0.83334   0.00000  Uiso   1.00
O862   O     0.10559   0.46179   0.83333   0.00000  Uiso   1.00
O863   O     0.16667   0.53821   0.76178   0.00000  Uiso   1.00
O864   O     0.16666   0.46179   0.90489   0.00000  Uiso   1.00
O865   O     0.16666   0.53821   0.90489   0.00000  Uiso   1.00
O866   O     0.16667   0.46179   0.76178   0.00000  Uiso   1.00
Zn867  Zn    0.16667   0.55104   0.83333   0.00000  Uiso   1.00
Zn868  Zn    0.16667   0.44896   0.83333   0.00000  Uiso   1.00
F869   F     0.04073   0.41833   0.83454   0.00000  Uiso   1.00
F870   F     0.29260   0.58167   0.83213   0.00000  Uiso   1.00
F871   F     0.29262   0.41833   0.83222   0.00000  Uiso   1.00
F872   F     0.04071   0.58167   0.83445   0.00000  Uiso   1.00
C873   C     0.21834   0.38171   0.90020   0.00000  Uiso   1.00
N874   N     0.23973   0.40098   0.92800   0.00000  Uiso   1.00
C875   C     0.11499   0.61829   0.76646   0.00000  Uiso   1.00
N876   N     0.09360   0.59902   0.73867   0.00000  Uiso   1.00
C877   C     0.11499   0.38173   0.76646   0.00000  Uiso   1.00
N878   N     0.09360   0.40100   0.73867   0.00000  Uiso   1.00
C879   C     0.21834   0.61827   0.90021   0.00000  Uiso   1.00
N880   N     0.23973   0.59900   0.92800   0.00000  Uiso   1.00
C881   C     0.41999   0.50000   0.83355   0.00000  Uiso   1.00
C882   C     0.58001   0.50000   0.83312   0.00000  Uiso   1.00
C883   C     0.49994   0.50000   0.73959   0.00000  Uiso   1.00
C884   C     0.50006   0.50000   0.92708   0.00000  Uiso   1.00
C885   C     0.49998   0.50000   0.68847   0.00000  Uiso   1.00
C886   C     0.50002   0.50000   0.97820   0.00000  Uiso   1.00
C887   C     0.35448   0.45885   0.83373   0.00000  Uiso   1.00
C888   C     0.64552   0.54115   0.83294   0.00000  Uiso   1.00
C889   C     0.64554   0.45884   0.83298   0.00000  Uiso   1.00
C890   C     0.35446   0.54116   0.83368   0.00000  Uiso   1.00
C891   C     0.62417   0.50000   0.83288   0.00000  Uiso   1.00
C892   C     0.37583   0.50000   0.83379   0.00000  Uiso   1.00
C893   C     0.52511   0.35736   0.86575   0.00000  Uiso   1.00
C894   C     0.47489   0.64264   0.80092   0.00000  Uiso   1.00
C895   C     0.47489   0.35737   0.80092   0.00000  Uiso   1.00
C896   C     0.52511   0.64263   0.86575   0.00000  Uiso   1.00
N897   N     0.50000   0.61907   0.83333   0.00000  Uiso   1.00
N898   N     0.50000   0.38093   0.83333   0.00000  Uiso   1.00
O899   O     0.43892   0.53821   0.83333   0.00000  Uiso   1.00
O900   O     0.56108   0.46179   0.83334   0.00000  Uiso   1.00
O901   O     0.56108   0.53821   0.83334   0.00000  Uiso   1.00
O902   O     0.43892   0.46179   0.83333   0.00000  Uiso   1.00
O903   O     0.50000   0.53821   0.76178   0.00000  Uiso   1.00
O904   O     0.50000   0.46179   0.90489   0.00000  Uiso   1.00
O905   O     0.50000   0.53821   0.90489   0.00000  Uiso   1.00
O906   O     0.50000   0.46179   0.76178   0.00000  Uiso   1.00
Zn907  Zn    0.50000   0.55104   0.83333   0.00000  Uiso   1.00
Zn908  Zn    0.50000   0.44896   0.83333   0.00000  Uiso   1.00
F909   F     0.37407   0.41833   0.83454   0.00000  Uiso   1.00
F910   F     0.62593   0.58167   0.83213   0.00000  Uiso   1.00
F911   F     0.62595   0.41833   0.83222   0.00000  Uiso   1.00
F912   F     0.37405   0.58167   0.83445   0.00000  Uiso   1.00
C913   C     0.55168   0.38171   0.90020   0.00000  Uiso   1.00
N914   N     0.57307   0.40098   0.92800   0.00000  Uiso   1.00
C915   C     0.44832   0.61829   0.76646   0.00000  Uiso   1.00
N916   N     0.42693   0.59902   0.73867   0.00000  Uiso   1.00
C917   C     0.44832   0.38173   0.76646   0.00000  Uiso   1.00
N918   N     0.42694   0.40100   0.73867   0.00000  Uiso   1.00
C919   C     0.55168   0.61827   0.90021   0.00000  Uiso   1.00
N920   N     0.57306   0.59900   0.92800   0.00000  Uiso   1.00
C921   C     0.75333   0.50000   0.83355   0.00000  Uiso   1.00
C922   C     0.91334   0.50000   0.83312   0.00000  Uiso   1.00
C923   C     0.83327   0.50000   0.73959   0.00000  Uiso   1.00
C924   C     0.83339   0.50000   0.92708   0.00000  Uiso   1.00
C925   C     0.83331   0.50000   0.68847   0.00000  Uiso   1.00
C926   C     0.83336   0.50000   0.97820   0.00000  Uiso   1.00
C927   C     0.68781   0.45885   0.83373   0.00000  Uiso   1.00
C928   C     0.97886   0.54115   0.83294   0.00000  Uiso   1.00
C929   C     0.97887   0.45884   0.83298   0.00000  Uiso   1.00
C930   C     0.68780   0.54116   0.83368   0.00000  Uiso   1.00
C931   C     0.95750   0.50000   0.83288   0.00000  Uiso   1.00
C932   C     0.70916   0.50000   0.83379   0.00000  Uiso   1.00
C933   C     0.85844   0.35736   0.86575   0.00000  Uiso   1.00
C934   C     0.80822   0.64264   0.80092   0.00000  Uiso   1.00
C935   C     0.80822   0.35737   0.80092   0.00000  Uiso   1.00
C936   C     0.85844   0.64263   0.86575   0.00000  Uiso   1.00
N937   N     0.83333   0.61907   0.83333   0.00000  Uiso   1.00
N938   N     0.83333   0.38093   0.83333   0.00000  Uiso   1.00
O939   O     0.77226   0.53821   0.83333   0.00000  Uiso   1.00
O940   O     0.89441   0.46179   0.83334   0.00000  Uiso   1.00
O941   O     0.89441   0.53821   0.83334   0.00000  Uiso   1.00
O942   O     0.77226   0.46179   0.83333   0.00000  Uiso   1.00
O943   O     0.83334   0.53821   0.76178   0.00000  Uiso   1.00
O944   O     0.83333   0.46179   0.90489   0.00000  Uiso   1.00
O945   O     0.83333   0.53821   0.90489   0.00000  Uiso   1.00
O946   O     0.83334   0.46179   0.76178   0.00000  Uiso   1.00
Zn947  Zn    0.83333   0.55104   0.83333   0.00000  Uiso   1.00
Zn948  Zn    0.83333   0.44896   0.83333   0.00000  Uiso   1.00
F949   F     0.70740   0.41833   0.83454   0.00000  Uiso   1.00
F950   F     0.95927   0.58167   0.83213   0.00000  Uiso   1.00
F951   F     0.95929   0.41833   0.83222   0.00000  Uiso   1.00
F952   F     0.70738   0.58167   0.83445   0.00000  Uiso   1.00
C953   C     0.88501   0.38171   0.90020   0.00000  Uiso   1.00
N954   N     0.90640   0.40098   0.92800   0.00000  Uiso   1.00
C955   C     0.78166   0.61829   0.76646   0.00000  Uiso   1.00
N956   N     0.76027   0.59902   0.73867   0.00000  Uiso   1.00
C957   C     0.78166   0.38173   0.76646   0.00000  Uiso   1.00
N958   N     0.76027   0.40100   0.73867   0.00000  Uiso   1.00
C959   C     0.88501   0.61827   0.90021   0.00000  Uiso   1.00
N960   N     0.90640   0.59900   0.92800   0.00000  Uiso   1.00
C961   C     0.08666   0.83334   0.83355   0.00000  Uiso   1.00
C962   C     0.24667   0.83333   0.83312   0.00000  Uiso   1.00
C963   C     0.16661   0.83333   0.73959   0.00000  Uiso   1.00
C964   C     0.16673   0.83333   0.92708   0.00000  Uiso   1.00
C965   C     0.16664   0.83333   0.68847   0.00000  Uiso   1.00
C966   C     0.16669   0.83333   0.97820   0.00000  Uiso   1.00
C967   C     0.02114   0.79218   0.83373   0.00000  Uiso   1.00
C968   C     0.31219   0.87449   0.83294   0.00000  Uiso   1.00
C969   C     0.31220   0.79218   0.83298   0.00000  Uiso   1.00
C970   C     0.02113   0.87449   0.83368   0.00000  Uiso   1.00
C971   C     0.29084   0.83333   0.83288   0.00000  Uiso   1.00
C972   C     0.04250   0.83333   0.83379   0.00000  Uiso   1.00
C973   C     0.19178   0.69070   0.86575   0.00000  Uiso   1.00
C974   C     0.14156   0.97597   0.80092   0.00000  Uiso   1.00
C975   C     0.14156   0.69070   0.80092   0.00000  Uiso   1.00
C976   C     0.19178   0.97596   0.86575   0.00000  Uiso   1.00
N977   N     0.16667   0.95240   0.83333   0.00000  Uiso   1.00
N978   N     0.16667   0.71427   0.83333   0.00000  Uiso   1.00
O979   O     0.10559   0.87154   0.83333   0.00000  Uiso   1.00
O980   O     0.22774   0.79513   0.83334   0.00000  Uiso   1.00
O981   O     0.22774   0.87154   0.83334   0.00000  Uiso   1.00
O982   O     0.10559   0.79513   0.83333   0.00000  Uiso   1.00
O983   O     0.16667   0.87155   0.76178   0.00000  Uiso   1.00
O984   O     0.16666   0.79512   0.90489   0.00000  Uiso   1.00
O985   O     0.16666   0.87155   0.90489   0.00000  Uiso   1.00
O986   O     0.16667   0.79512   0.76178   0.00000  Uiso   1.00
Zn987  Zn    0.16667   0.88437   0.83333   0.00000  Uiso   1.00
Zn988  Zn    0.16667   0.78229   0.83333   0.00000  Uiso   1.00
F989   F     0.04073   0.75166   0.83454   0.00000  Uiso   1.00
F990   F     0.29260   0.91500   0.83213   0.00000  Uiso   1.00
F991   F     0.29262   0.75166   0.83222   0.00000  Uiso   1.00
F992   F     0.04071   0.91500   0.83445   0.00000  Uiso   1.00
C993   C     0.21834   0.71505   0.90020   0.00000  Uiso   1.00
N994   N     0.23973   0.73431   0.92800   0.00000  Uiso   1.00
C995   C     0.11499   0.95162   0.76646   0.00000  Uiso   1.00
N996   N     0.09360   0.93235   0.73867   0.00000  Uiso   1.00
C997   C     0.11499   0.71506   0.76646   0.00000  Uiso   1.00
N998   N     0.09360   0.73433   0.73867   0.00000  Uiso   1.00
C999   C     0.21834   0.95161   0.90021   0.00000  Uiso   1.00
N1000  N     0.23973   0.93233   0.92800   0.00000  Uiso   1.00
C1001  C     0.41999   0.83334   0.83355   0.00000  Uiso   1.00
C1002  C     0.58001   0.83333   0.83312   0.00000  Uiso   1.00
C1003  C     0.49994   0.83333   0.73959   0.00000  Uiso   1.00
C1004  C     0.50006   0.83333   0.92708   0.00000  Uiso   1.00
C1005  C     0.49998   0.83333   0.68847   0.00000  Uiso   1.00
C1006  C     0.50002   0.83333   0.97820   0.00000  Uiso   1.00
C1007  C     0.35448   0.79218   0.83373   0.00000  Uiso   1.00
C1008  C     0.64552   0.87449   0.83294   0.00000  Uiso   1.00
C1009  C     0.64554   0.79218   0.83298   0.00000  Uiso   1.00
C1010  C     0.35446   0.87449   0.83368   0.00000  Uiso   1.00
C1011  C     0.62417   0.83333   0.83288   0.00000  Uiso   1.00
C1012  C     0.37583   0.83333   0.83379   0.00000  Uiso   1.00
C1013  C     0.52511   0.69070   0.86575   0.00000  Uiso   1.00
C1014  C     0.47489   0.97597   0.80092   0.00000  Uiso   1.00
C1015  C     0.47489   0.69070   0.80092   0.00000  Uiso   1.00
C1016  C     0.52511   0.97596   0.86575   0.00000  Uiso   1.00
N1017  N     0.50000   0.95240   0.83333   0.00000  Uiso   1.00
N1018  N     0.50000   0.71427   0.83333   0.00000  Uiso   1.00
O1019  O     0.43892   0.87154   0.83333   0.00000  Uiso   1.00
O1020  O     0.56108   0.79513   0.83334   0.00000  Uiso   1.00
O1021  O     0.56108   0.87154   0.83334   0.00000  Uiso   1.00
O1022  O     0.43892   0.79513   0.83333   0.00000  Uiso   1.00
O1023  O     0.50000   0.87155   0.76178   0.00000  Uiso   1.00
O1024  O     0.50000   0.79512   0.90489   0.00000  Uiso   1.00
O1025  O     0.50000   0.87155   0.90489   0.00000  Uiso   1.00
O1026  O     0.50000   0.79512   0.76178   0.00000  Uiso   1.00
Zn1027 Zn    0.50000   0.88437   0.83333   0.00000  Uiso   1.00
Zn1028 Zn    0.50000   0.78229   0.83333   0.00000  Uiso   1.00
F1029  F     0.37407   0.75166   0.83454   0.00000  Uiso   1.00
F1030  F     0.62593   0.91500   0.83213   0.00000  Uiso   1.00
F1031  F     0.62595   0.75166   0.83222   0.00000  Uiso   1.00
F1032  F     0.37405   0.91500   0.83445   0.00000  Uiso   1.00
C1033  C     0.55168   0.71505   0.90020   0.00000  Uiso   1.00
N1034  N     0.57307   0.73431   0.92800   0.00000  Uiso   1.00
C1035  C     0.44832   0.95162   0.76646   0.00000  Uiso   1.00
N1036  N     0.42693   0.93235   0.73867   0.00000  Uiso   1.00
C1037  C     0.44832   0.71506   0.76646   0.00000  Uiso   1.00
N1038  N     0.42694   0.73433   0.73867   0.00000  Uiso   1.00
C1039  C     0.55168   0.95161   0.90021   0.00000  Uiso   1.00
N1040  N     0.57306   0.93233   0.92800   0.00000  Uiso   1.00
C1041  C     0.75333   0.83334   0.83355   0.00000  Uiso   1.00
C1042  C     0.91334   0.83333   0.83312   0.00000  Uiso   1.00
C1043  C     0.83327   0.83333   0.73959   0.00000  Uiso   1.00
C1044  C     0.83339   0.83333   0.92708   0.00000  Uiso   1.00
C1045  C     0.83331   0.83333   0.68847   0.00000  Uiso   1.00
C1046  C     0.83336   0.83333   0.97820   0.00000  Uiso   1.00
C1047  C     0.68781   0.79218   0.83373   0.00000  Uiso   1.00
C1048  C     0.97886   0.87449   0.83294   0.00000  Uiso   1.00
C1049  C     0.97887   0.79218   0.83298   0.00000  Uiso   1.00
C1050  C     0.68780   0.87449   0.83368   0.00000  Uiso   1.00
C1051  C     0.95750   0.83333   0.83288   0.00000  Uiso   1.00
C1052  C     0.70916   0.83333   0.83379   0.00000  Uiso   1.00
C1053  C     0.85844   0.69070   0.86575   0.00000  Uiso   1.00
C1054  C     0.80822   0.97597   0.80092   0.00000  Uiso   1.00
C1055  C     0.80822   0.69070   0.80092   0.00000  Uiso   1.00
C1056  C     0.85844   0.97596   0.86575   0.00000  Uiso   1.00
N1057  N     0.83333   0.95240   0.83333   0.00000  Uiso   1.00
N1058  N     0.83333   0.71427   0.83333   0.00000  Uiso   1.00
O1059  O     0.77226   0.87154   0.83333   0.00000  Uiso   1.00
O1060  O     0.89441   0.79513   0.83334   0.00000  Uiso   1.00
O1061  O     0.89441   0.87154   0.83334   0.00000  Uiso   1.00
O1062  O     0.77226   0.79513   0.83333   0.00000  Uiso   1.00
O1063  O     0.83334   0.87155   0.76178   0.00000  Uiso   1.00
O1064  O     0.83333   0.79512   0.90489   0.00000  Uiso   1.00
O1065  O     0.83333   0.87155   0.90489   0.00000  Uiso   1.00
O1066  O     0.83334   0.79512   0.76178   0.00000  Uiso   1.00
Zn1067 Zn    0.83333   0.88437   0.83333   0.00000  Uiso   1.00
Zn1068 Zn    0.83333   0.78229   0.83333   0.00000  Uiso   1.00
F1069  F     0.70740   0.75166   0.83454   0.00000  Uiso   1.00
F1070  F     0.95927   0.91500   0.83213   0.00000  Uiso   1.00
F1071  F     0.95929   0.75166   0.83222   0.00000  Uiso   1.00
F1072  F     0.70738   0.91500   0.83445   0.00000  Uiso   1.00
C1073  C     0.88501   0.71505   0.90020   0.00000  Uiso   1.00
N1074  N     0.90640   0.73431   0.92800   0.00000  Uiso   1.00
C1075  C     0.78166   0.95162   0.76646   0.00000  Uiso   1.00
N1076  N     0.76027   0.93235   0.73867   0.00000  Uiso   1.00
C1077  C     0.78166   0.71506   0.76646   0.00000  Uiso   1.00
N1078  N     0.76027   0.73433   0.73867   0.00000  Uiso   1.00
C1079  C     0.88501   0.95161   0.90021   0.00000  Uiso   1.00
N1080  N     0.90640   0.93233   0.92800   0.00000  Uiso   1.00
loop_
_geom_bond_atom_site_label_1
_geom_bond_atom_site_label_2
_geom_bond_distance
_geom_bond_site_symmetry_2
_ccdc_geom_bond_type
C1     O22     1.289   .     A
C1     C12     1.430   .     S
C1     O19     1.289   .     A
C2     O21     1.289   .     A
C2     C11     1.430   .     S
C2     O20     1.289   .     A
C3     O23     1.279   .     A
C3     O26     1.279   .     A
C3     C5      1.366   .     S
C4     O25     1.279   .     A
C4     O24     1.279   .     A
C4     C6      1.366   .     S
C5     C726    1.165   1_554 S
C6     C365    1.165   .     S
C7     F29     1.359   .     S
C7     C12     1.403   .     A
C7     C89     1.368   1_455 S
C8     F30     1.359   .     S
C8     C11     1.403   .     A
C8     C50     1.368   .     S
C9     C11     1.403   .     A
C9     F31     1.359   .     S
C9     C47     1.368   .     S
C10    C12     1.403   .     A
C10    F32     1.359   .     S
C10    C88     1.368   1_455 S
C13    C33     1.443   .     S
C13    N18     1.369   .     A
C13    C256    1.426   1_545 S
C14    N17     1.369   .     A
C14    C35     1.443   .     S
C14    C135    1.426   .     S
C15    N18     1.369   .     A
C15    C37     1.443   .     S
C15    C254    1.426   1_545 S
C16    C39     1.443   .     S
C16    N17     1.369   .     A
C16    C133    1.426   .     S
N17    Zn27    2.018   .     S
N18    Zn28    2.018   .     S
O19    Zn27    2.014   .     S
O20    Zn28    2.014   .     S
O21    Zn27    2.013   .     S
O22    Zn28    2.013   .     S
O23    Zn27    1.950   .     S
O24    Zn28    1.950   .     S
O25    Zn27    1.950   .     S
O26    Zn28    1.950   .     S
C33    N34     1.158   .     T
C35    N36     1.158   .     T
C37    N38     1.158   .     T
C39    N40     1.158   .     T
C41    O62     1.289   .     A
C41    C52     1.430   .     S
C41    O59     1.289   .     A
C42    O61     1.289   .     A
C42    C51     1.430   .     S
C42    O60     1.289   .     A
C43    O63     1.279   .     A
C43    O66     1.279   .     A
C43    C45     1.366   .     S
C44    O65     1.279   .     A
C44    O64     1.279   .     A
C44    C46     1.366   .     S
C45    C766    1.165   1_554 S
C46    C405    1.165   .     S
C47    F69     1.359   .     S
C47    C52     1.403   .     A
C48    F70     1.359   .     S
C48    C51     1.403   .     A
C48    C90     1.368   .     S
C49    C51     1.403   .     A
C49    F71     1.359   .     S
C49    C87     1.368   .     S
C50    C52     1.403   .     A
C50    F72     1.359   .     S
C53    C73     1.443   .     S
C53    N58     1.369   .     A
C53    C296    1.426   1_545 S
C54    N57     1.369   .     A
C54    C75     1.443   .     S
C54    C175    1.426   .     S
C55    N58     1.369   .     A
C55    C77     1.443   .     S
C55    C294    1.426   1_545 S
C56    C79     1.443   .     S
C56    N57     1.369   .     A
C56    C173    1.426   .     S
N57    Zn67    2.018   .     S
N58    Zn68    2.018   .     S
O59    Zn67    2.014   .     S
O60    Zn68    2.014   .     S
O61    Zn67    2.013   .     S
O62    Zn68    2.013   .     S
O63    Zn67    1.950   .     S
O64    Zn68    1.950   .     S
O65    Zn67    1.950   .     S
O66    Zn68    1.950   .     S
C73    N74     1.158   .     T
C75    N76     1.158   .     T
C77    N78     1.158   .     T
C79    N80     1.158   .     T
C81    O102    1.289   .     A
C81    C92     1.430   .     S
C81    O99     1.289   .     A
C82    O101    1.289   .     A
C82    C91     1.430   .     S
C82    O100    1.289   .     A
C83    O103    1.279   .     A
C83    O106    1.279   .     A
C83    C85     1.366   .     S
C84    O105    1.279   .     A
C84    O104    1.279   .     A
C84    C86     1.366   .     S
C85    C806    1.165   1_554 S
C86    C445    1.165   .     S
C87    F109    1.359   .     S
C87    C92     1.403   .     A
C88    F110    1.359   .     S
C88    C91     1.403   .     A
C88    C10     1.368   1_655 S
C89    C91     1.403   .     A
C89    F111    1.359   .     S
C89    C7      1.368   1_655 S
C90    C92     1.403   .     A
C90    F112    1.359   .     S
C93    C113    1.443   .     S
C93    N98     1.369   .     A
C93    C336    1.426   1_545 S
C94    N97     1.369   .     A
C94    C115    1.443   .     S
C94    C215    1.426   .     S
C95    N98     1.369   .     A
C95    C117    1.443   .     S
C95    C334    1.426   1_545 S
C96    C119    1.443   .     S
C96    N97     1.369   .     A
C96    C213    1.426   .     S
N97    Zn107   2.018   .     S
N98    Zn108   2.018   .     S
O99    Zn107   2.014   .     S
O100   Zn108   2.014   .     S
O101   Zn107   2.013   .     S
O102   Zn108   2.013   .     S
O103   Zn107   1.950   .     S
O104   Zn108   1.950   .     S
O105   Zn107   1.950   .     S
O106   Zn108   1.950   .     S
C113   N114    1.158   .     T
C115   N116    1.158   .     T
C117   N118    1.158   .     T
C119   N120    1.158   .     T
C121   O142    1.289   .     A
C121   C132    1.430   .     S
C121   O139    1.289   .     A
C122   O141    1.289   .     A
C122   C131    1.430   .     S
C122   O140    1.289   .     A
C123   O143    1.279   .     A
C123   O146    1.279   .     A
C123   C125    1.366   .     S
C124   O145    1.279   .     A
C124   O144    1.279   .     A
C124   C126    1.366   .     S
C125   C846    1.165   1_554 S
C126   C485    1.165   .     S
C127   F149    1.359   .     S
C127   C132    1.403   .     A
C127   C209    1.368   1_455 S
C128   F150    1.359   .     S
C128   C131    1.403   .     A
C128   C170    1.368   .     S
C129   C131    1.403   .     A
C129   F151    1.359   .     S
C129   C167    1.368   .     S
C130   C132    1.403   .     A
C130   F152    1.359   .     S
C130   C208    1.368   1_455 S
C133   C153    1.443   .     S
C133   N138    1.369   .     A
C134   N137    1.369   .     A
C134   C155    1.443   .     S
C134   C255    1.426   .     S
C135   N138    1.369   .     A
C135   C157    1.443   .     S
C136   C159    1.443   .     S
C136   N137    1.369   .     A
C136   C253    1.426   .     S
N137   Zn147   2.018   .     S
N138   Zn148   2.018   .     S
O139   Zn147   2.014   .     S
O140   Zn148   2.014   .     S
O141   Zn147   2.013   .     S
O142   Zn148   2.013   .     S
O143   Zn147   1.950   .     S
O144   Zn148   1.950   .     S
O145   Zn147   1.950   .     S
O146   Zn148   1.950   .     S
C153   N154    1.158   .     T
C155   N156    1.158   .     T
C157   N158    1.158   .     T
C159   N160    1.158   .     T
C161   O182    1.289   .     A
C161   C172    1.430   .     S
C161   O179    1.289   .     A
C162   O181    1.289   .     A
C162   C171    1.430   .     S
C162   O180    1.289   .     A
C163   O183    1.279   .     A
C163   O186    1.279   .     A
C163   C165    1.366   .     S
C164   O185    1.279   .     A
C164   O184    1.279   .     A
C164   C166    1.366   .     S
C165   C886    1.165   1_554 S
C166   C525    1.165   .     S
C167   F189    1.359   .     S
C167   C172    1.403   .     A
C168   F190    1.359   .     S
C168   C171    1.403   .     A
C168   C210    1.368   .     S
C169   C171    1.403   .     A
C169   F191    1.359   .     S
C169   C207    1.368   .     S
C170   C172    1.403   .     A
C170   F192    1.359   .     S
C173   C193    1.443   .     S
C173   N178    1.369   .     A
C174   N177    1.369   .     A
C174   C195    1.443   .     S
C174   C295    1.426   .     S
C175   N178    1.369   .     A
C175   C197    1.443   .     S
C176   C199    1.443   .     S
C176   N177    1.369   .     A
C176   C293    1.426   .     S
N177   Zn187   2.018   .     S
N178   Zn188   2.018   .     S
O179   Zn187   2.014   .     S
O180   Zn188   2.014   .     S
O181   Zn187   2.013   .     S
O182   Zn188   2.013   .     S
O183   Zn187   1.950   .     S
O184   Zn188   1.950   .     S
O185   Zn187   1.950   .     S
O186   Zn188   1.950   .     S
C193   N194    1.158   .     T
C195   N196    1.158   .     T
C197   N198    1.158   .     T
C199   N200    1.158   .     T
C201   O222    1.289   .     A
C201   C212    1.430   .     S
C201   O219    1.289   .     A
C202   O221    1.289   .     A
C202   C211    1.430   .     S
C202   O220    1.289   .     A
C203   O223    1.279   .     A
C203   O226    1.279   .     A
C203   C205    1.366   .     S
C204   O225    1.279   .     A
C204   O224    1.279   .     A
C204   C206    1.366   .     S
C205   C926    1.165   1_554 S
C206   C565    1.165   .     S
C207   F229    1.359   .     S
C207   C212    1.403   .     A
C208   F230    1.359   .     S
C208   C211    1.403   .     A
C208   C130    1.368   1_655 S
C209   C211    1.403   .     A
C209   F231    1.359   .     S
C209   C127    1.368   1_655 S
C210   C212    1.403   .     A
C210   F232    1.359   .     S
C213   C233    1.443   .     S
C213   N218    1.369   .     A
C214   N217    1.369   .     A
C214   C235    1.443   .     S
C214   C335    1.426   .     S
C215   N218    1.369   .     A
C215   C237    1.443   .     S
C216   C239    1.443   .     S
C216   N217    1.369   .     A
C216   C333    1.426   .     S
N217   Zn227   2.018   .     S
N218   Zn228   2.018   .     S
O219   Zn227   2.014   .     S
O220   Zn228   2.014   .     S
O221   Zn227   2.013   .     S
O222   Zn228   2.013   .     S
O223   Zn227   1.950   .     S
O224   Zn228   1.950   .     S
O225   Zn227   1.950   .     S
O226   Zn228   1.950   .     S
C233   N234    1.158   .     T
C235   N236    1.158   .     T
C237   N238    1.158   .     T
C239   N240    1.158   .     T
C241   O262    1.289   .     A
C241   C252    1.430   .     S
C241   O259    1.289   .     A
C242   O261    1.289   .     A
C242   C251    1.430   .     S
C242   O260    1.289   .     A
C243   O263    1.279   .     A
C243   O266    1.279   .     A
C243   C245    1.366   .     S
C244   O265    1.279   .     A
C244   O264    1.279   .     A
C244   C246    1.366   .     S
C245   C966    1.165   1_554 S
C246   C605    1.165   .     S
C247   F269    1.359   .     S
C247   C252    1.403   .     A
C247   C329    1.368   1_455 S
C248   F270    1.359   .     S
C248   C251    1.403   .     A
C248   C290    1.368   .     S
C249   C251    1.403   .     A
C249   F271    1.359   .     S
C249   C287    1.368   .     S
C250   C252    1.403   .     A
C250   F272    1.359   .     S
C250   C328    1.368   1_455 S
C253   C273    1.443   .     S
C253   N258    1.369   .     A
C254   N257    1.369   .     A
C254   C275    1.443   .     S
C254   C15     1.426   1_565 S
C255   N258    1.369   .     A
C255   C277    1.443   .     S
C256   C279    1.443   .     S
C256   N257    1.369   .     A
C256   C13     1.426   1_565 S
N257   Zn267   2.018   .     S
N258   Zn268   2.018   .     S
O259   Zn267   2.014   .     S
O260   Zn268   2.014   .     S
O261   Zn267   2.013   .     S
O262   Zn268   2.013   .     S
O263   Zn267   1.950   .     S
O264   Zn268   1.950   .     S
O265   Zn267   1.950   .     S
O266   Zn268   1.950   .     S
C273   N274    1.158   .     T
C275   N276    1.158   .     T
C277   N278    1.158   .     T
C279   N280    1.158   .     T
C281   O302    1.289   .     A
C281   C292    1.430   .     S
C281   O299    1.289   .     A
C282   O301    1.289   .     A
C282   C291    1.430   .     S
C282   O300    1.289   .     A
C283   O303    1.279   .     A
C283   O306    1.279   .     A
C283   C285    1.366   .     S
C284   O305    1.279   .     A
C284   O304    1.279   .     A
C284   C286    1.366   .     S
C285   C1006   1.165   1_554 S
C286   C645    1.165   .     S
C287   F309    1.359   .     S
C287   C292    1.403   .     A
C288   F310    1.359   .     S
C288   C291    1.403   .     A
C288   C330    1.368   .     S
C289   C291    1.403   .     A
C289   F311    1.359   .     S
C289   C327    1.368   .     S
C290   C292    1.403   .     A
C290   F312    1.359   .     S
C293   C313    1.443   .     S
C293   N298    1.369   .     A
C294   N297    1.369   .     A
C294   C315    1.443   .     S
C294   C55     1.426   1_565 S
C295   N298    1.369   .     A
C295   C317    1.443   .     S
C296   C319    1.443   .     S
C296   N297    1.369   .     A
C296   C53     1.426   1_565 S
N297   Zn307   2.018   .     S
N298   Zn308   2.018   .     S
O299   Zn307   2.014   .     S
O300   Zn308   2.014   .     S
O301   Zn307   2.013   .     S
O302   Zn308   2.013   .     S
O303   Zn307   1.950   .     S
O304   Zn308   1.950   .     S
O305   Zn307   1.950   .     S
O306   Zn308   1.950   .     S
C313   N314    1.158   .     T
C315   N316    1.158   .     T
C317   N318    1.158   .     T
C319   N320    1.158   .     T
C321   O342    1.289   .     A
C321   C332    1.430   .     S
C321   O339    1.289   .     A
C322   O341    1.289   .     A
C322   C331    1.430   .     S
C322   O340    1.289   .     A
C323   O343    1.279   .     A
C323   O346    1.279   .     A
C323   C325    1.366   .     S
C324   O345    1.279   .     A
C324   O344    1.279   .     A
C324   C326    1.366   .     S
C325   C1046   1.165   1_554 S
C326   C685    1.165   .     S
C327   F349    1.359   .     S
C327   C332    1.403   .     A
C328   F350    1.359   .     S
C328   C331    1.403   .     A
C328   C250    1.368   1_655 S
C329   C331    1.403   .     A
C329   F351    1.359   .     S
C329   C247    1.368   1_655 S
C330   C332    1.403   .     A
C330   F352    1.359   .     S
C333   C353    1.443   .     S
C333   N338    1.369   .     A
C334   N337    1.369   .     A
C334   C355    1.443   .     S
C334   C95     1.426   1_565 S
C335   N338    1.369   .     A
C335   C357    1.443   .     S
C336   C359    1.443   .     S
C336   N337    1.369   .     A
C336   C93     1.426   1_565 S
N337   Zn347   2.018   .     S
N338   Zn348   2.018   .     S
O339   Zn347   2.014   .     S
O340   Zn348   2.014   .     S
O341   Zn347   2.013   .     S
O342   Zn348   2.013   .     S
O343   Zn347   1.950   .     S
O344   Zn348   1.950   .     S
O345   Zn347   1.950   .     S
O346   Zn348   1.950   .     S
C353   N354    1.158   .     T
C355   N356    1.158   .     T
C357   N358    1.158   .     T
C359   N360    1.158   .     T
C361   O382    1.289   .     A
C361   C372    1.430   .     S
C361   O379    1.289   .     A
C362   O381    1.289   .     A
C362   C371    1.430   .     S
C362   O380    1.289   .     A
C363   O383    1.279   .     A
C363   O386    1.279   .     A
C363   C365    1.366   .     S
C364   O385    1.279   .     A
C364   O384    1.279   .     A
C364   C366    1.366   .     S
C366   C725    1.165   .     S
C367   F389    1.359   .     S
C367   C372    1.403   .     A
C367   C449    1.368   1_455 S
C368   F390    1.359   .     S
C368   C371    1.403   .     A
C368   C410    1.368   .     S
C369   C371    1.403   .     A
C369   F391    1.359   .     S
C369   C407    1.368   .     S
C370   C372    1.403   .     A
C370   F392    1.359   .     S
C370   C448    1.368   1_455 S
C373   C393    1.443   .     S
C373   N378    1.369   .     A
C373   C616    1.426   1_545 S
C374   N377    1.369   .     A
C374   C395    1.443   .     S
C374   C495    1.426   .     S
C375   N378    1.369   .     A
C375   C397    1.443   .     S
C375   C614    1.426   1_545 S
C376   C399    1.443   .     S
C376   N377    1.369   .     A
C376   C493    1.426   .     S
N377   Zn387   2.018   .     S
N378   Zn388   2.018   .     S
O379   Zn387   2.014   .     S
O380   Zn388   2.014   .     S
O381   Zn387   2.013   .     S
O382   Zn388   2.013   .     S
O383   Zn387   1.950   .     S
O384   Zn388   1.950   .     S
O385   Zn387   1.950   .     S
O386   Zn388   1.950   .     S
C393   N394    1.158   .     T
C395   N396    1.158   .     T
C397   N398    1.158   .     T
C399   N400    1.158   .     T
C401   O422    1.289   .     A
C401   C412    1.430   .     S
C401   O419    1.289   .     A
C402   O421    1.289   .     A
C402   C411    1.430   .     S
C402   O420    1.289   .     A
C403   O423    1.279   .     A
C403   O426    1.279   .     A
C403   C405    1.366   .     S
C404   O425    1.279   .     A
C404   O424    1.279   .     A
C404   C406    1.366   .     S
C406   C765    1.165   .     S
C407   F429    1.359   .     S
C407   C412    1.403   .     A
C408   F430    1.359   .     S
C408   C411    1.403   .     A
C408   C450    1.368   .     S
C409   C411    1.403   .     A
C409   F431    1.359   .     S
C409   C447    1.368   .     S
C410   C412    1.403   .     A
C410   F432    1.359   .     S
C413   C433    1.443   .     S
C413   N418    1.369   .     A
C413   C656    1.426   1_545 S
C414   N417    1.369   .     A
C414   C435    1.443   .     S
C414   C535    1.426   .     S
C415   N418    1.369   .     A
C415   C437    1.443   .     S
C415   C654    1.426   1_545 S
C416   C439    1.443   .     S
C416   N417    1.369   .     A
C416   C533    1.426   .     S
N417   Zn427   2.018   .     S
N418   Zn428   2.018   .     S
O419   Zn427   2.014   .     S
O420   Zn428   2.014   .     S
O421   Zn427   2.013   .     S
O422   Zn428   2.013   .     S
O423   Zn427   1.950   .     S
O424   Zn428   1.950   .     S
O425   Zn427   1.950   .     S
O426   Zn428   1.950   .     S
C433   N434    1.158   .     T
C435   N436    1.158   .     T
C437   N438    1.158   .     T
C439   N440    1.158   .     T
C441   O462    1.289   .     A
C441   C452    1.430   .     S
C441   O459    1.289   .     A
C442   O461    1.289   .     A
C442   C451    1.430   .     S
C442   O460    1.289   .     A
C443   O463    1.279   .     A
C443   O466    1.279   .     A
C443   C445    1.366   .     S
C444   O465    1.279   .     A
C444   O464    1.279   .     A
C444   C446    1.366   .     S
C446   C805    1.165   .     S
C447   F469    1.359   .     S
C447   C452    1.403   .     A
C448   F470    1.359   .     S
C448   C451    1.403   .     A
C448   C370    1.368   1_655 S
C449   C451    1.403   .     A
C449   F471    1.359   .     S
C449   C367    1.368   1_655 S
C450   C452    1.403   .     A
C450   F472    1.359   .     S
C453   C473    1.443   .     S
C453   N458    1.369   .     A
C453   C696    1.426   1_545 S
C454   N457    1.369   .     A
C454   C475    1.443   .     S
C454   C575    1.426   .     S
C455   N458    1.369   .     A
C455   C477    1.443   .     S
C455   C694    1.426   1_545 S
C456   C479    1.443   .     S
C456   N457    1.369   .     A
C456   C573    1.426   .     S
N457   Zn467   2.018   .     S
N458   Zn468   2.018   .     S
O459   Zn467   2.014   .     S
O460   Zn468   2.014   .     S
O461   Zn467   2.013   .     S
O462   Zn468   2.013   .     S
O463   Zn467   1.950   .     S
O464   Zn468   1.950   .     S
O465   Zn467   1.950   .     S
O466   Zn468   1.950   .     S
C473   N474    1.158   .     T
C475   N476    1.158   .     T
C477   N478    1.158   .     T
C479   N480    1.158   .     T
C481   O502    1.289   .     A
C481   C492    1.430   .     S
C481   O499    1.289   .     A
C482   O501    1.289   .     A
C482   C491    1.430   .     S
C482   O500    1.289   .     A
C483   O503    1.279   .     A
C483   O506    1.279   .     A
C483   C485    1.366   .     S
C484   O505    1.279   .     A
C484   O504    1.279   .     A
C484   C486    1.366   .     S
C486   C845    1.165   .     S
C487   F509    1.359   .     S
C487   C492    1.403   .     A
C487   C569    1.368   1_455 S
C488   F510    1.359   .     S
C488   C491    1.403   .     A
C488   C530    1.368   .     S
C489   C491    1.403   .     A
C489   F511    1.359   .     S
C489   C527    1.368   .     S
C490   C492    1.403   .     A
C490   F512    1.359   .     S
C490   C568    1.368   1_455 S
C493   C513    1.443   .     S
C493   N498    1.369   .     A
C494   N497    1.369   .     A
C494   C515    1.443   .     S
C494   C615    1.426   .     S
C495   N498    1.369   .     A
C495   C517    1.443   .     S
C496   C519    1.443   .     S
C496   N497    1.369   .     A
C496   C613    1.426   .     S
N497   Zn507   2.018   .     S
N498   Zn508   2.018   .     S
O499   Zn507   2.014   .     S
O500   Zn508   2.014   .     S
O501   Zn507   2.013   .     S
O502   Zn508   2.013   .     S
O503   Zn507   1.950   .     S
O504   Zn508   1.950   .     S
O505   Zn507   1.950   .     S
O506   Zn508   1.950   .     S
C513   N514    1.158   .     T
C515   N516    1.158   .     T
C517   N518    1.158   .     T
C519   N520    1.158   .     T
C521   O542    1.289   .     A
C521   C532    1.430   .     S
C521   O539    1.289   .     A
C522   O541    1.289   .     A
C522   C531    1.430   .     S
C522   O540    1.289   .     A
C523   O543    1.279   .     A
C523   O546    1.279   .     A
C523   C525    1.366   .     S
C524   O545    1.279   .     A
C524   O544    1.279   .     A
C524   C526    1.366   .     S
C526   C885    1.165   .     S
C527   F549    1.359   .     S
C527   C532    1.403   .     A
C528   F550    1.359   .     S
C528   C531    1.403   .     A
C528   C570    1.368   .     S
C529   C531    1.403   .     A
C529   F551    1.359   .     S
C529   C567    1.368   .     S
C530   C532    1.403   .     A
C530   F552    1.359   .     S
C533   C553    1.443   .     S
C533   N538    1.369   .     A
C534   N537    1.369   .     A
C534   C555    1.443   .     S
C534   C655    1.426   .     S
C535   N538    1.369   .     A
C535   C557    1.443   .     S
C536   C559    1.443   .     S
C536   N537    1.369   .     A
C536   C653    1.426   .     S
N537   Zn547   2.018   .     S
N538   Zn548   2.018   .     S
O539   Zn547   2.014   .     S
O540   Zn548   2.014   .     S
O541   Zn547   2.013   .     S
O542   Zn548   2.013   .     S
O543   Zn547   1.950   .     S
O544   Zn548   1.950   .     S
O545   Zn547   1.950   .     S
O546   Zn548   1.950   .     S
C553   N554    1.158   .     T
C555   N556    1.158   .     T
C557   N558    1.158   .     T
C559   N560    1.158   .     T
C561   O582    1.289   .     A
C561   C572    1.430   .     S
C561   O579    1.289   .     A
C562   O581    1.289   .     A
C562   C571    1.430   .     S
C562   O580    1.289   .     A
C563   O583    1.279   .     A
C563   O586    1.279   .     A
C563   C565    1.366   .     S
C564   O585    1.279   .     A
C564   O584    1.279   .     A
C564   C566    1.366   .     S
C566   C925    1.165   .     S
C567   F589    1.359   .     S
C567   C572    1.403   .     A
C568   F590    1.359   .     S
C568   C571    1.403   .     A
C568   C490    1.368   1_655 S
C569   C571    1.403   .     A
C569   F591    1.359   .     S
C569   C487    1.368   1_655 S
C570   C572    1.403   .     A
C570   F592    1.359   .     S
C573   C593    1.443   .     S
C573   N578    1.369   .     A
C574   N577    1.369   .     A
C574   C595    1.443   .     S
C574   C695    1.426   .     S
C575   N578    1.369   .     A
C575   C597    1.443   .     S
C576   C599    1.443   .     S
C576   N577    1.369   .     A
C576   C693    1.426   .     S
N577   Zn587   2.018   .     S
N578   Zn588   2.018   .     S
O579   Zn587   2.014   .     S
O580   Zn588   2.014   .     S
O581   Zn587   2.013   .     S
O582   Zn588   2.013   .     S
O583   Zn587   1.950   .     S
O584   Zn588   1.950   .     S
O585   Zn587   1.950   .     S
O586   Zn588   1.950   .     S
C593   N594    1.158   .     T
C595   N596    1.158   .     T
C597   N598    1.158   .     T
C599   N600    1.158   .     T
C601   O622    1.289   .     A
C601   C612    1.430   .     S
C601   O619    1.289   .     A
C602   O621    1.289   .     A
C602   C611    1.430   .     S
C602   O620    1.289   .     A
C603   O623    1.279   .     A
C603   O626    1.279   .     A
C603   C605    1.366   .     S
C604   O625    1.279   .     A
C604   O624    1.279   .     A
C604   C606    1.366   .     S
C606   C965    1.165   .     S
C607   F629    1.359   .     S
C607   C612    1.403   .     A
C607   C689    1.368   1_455 S
C608   F630    1.359   .     S
C608   C611    1.403   .     A
C608   C650    1.368   .     S
C609   C611    1.403   .     A
C609   F631    1.359   .     S
C609   C647    1.368   .     S
C610   C612    1.403   .     A
C610   F632    1.359   .     S
C610   C688    1.368   1_455 S
C613   C633    1.443   .     S
C613   N618    1.369   .     A
C614   N617    1.369   .     A
C614   C635    1.443   .     S
C614   C375    1.426   1_565 S
C615   N618    1.369   .     A
C615   C637    1.443   .     S
C616   C639    1.443   .     S
C616   N617    1.369   .     A
C616   C373    1.426   1_565 S
N617   Zn627   2.018   .     S
N618   Zn628   2.018   .     S
O619   Zn627   2.014   .     S
O620   Zn628   2.014   .     S
O621   Zn627   2.013   .     S
O622   Zn628   2.013   .     S
O623   Zn627   1.950   .     S
O624   Zn628   1.950   .     S
O625   Zn627   1.950   .     S
O626   Zn628   1.950   .     S
C633   N634    1.158   .     T
C635   N636    1.158   .     T
C637   N638    1.158   .     T
C639   N640    1.158   .     T
C641   O662    1.289   .     A
C641   C652    1.430   .     S
C641   O659    1.289   .     A
C642   O661    1.289   .     A
C642   C651    1.430   .     S
C642   O660    1.289   .     A
C643   O663    1.279   .     A
C643   O666    1.279   .     A
C643   C645    1.366   .     S
C644   O665    1.279   .     A
C644   O664    1.279   .     A
C644   C646    1.366   .     S
C646   C1005   1.165   .     S
C647   F669    1.359   .     S
C647   C652    1.403   .     A
C648   F670    1.359   .     S
C648   C651    1.403   .     A
C648   C690    1.368   .     S
C649   C651    1.403   .     A
C649   F671    1.359   .     S
C649   C687    1.368   .     S
C650   C652    1.403   .     A
C650   F672    1.359   .     S
C653   C673    1.443   .     S
C653   N658    1.369   .     A
C654   N657    1.369   .     A
C654   C675    1.443   .     S
C654   C415    1.426   1_565 S
C655   N658    1.369   .     A
C655   C677    1.443   .     S
C656   C679    1.443   .     S
C656   N657    1.369   .     A
C656   C413    1.426   1_565 S
N657   Zn667   2.018   .     S
N658   Zn668   2.018   .     S
O659   Zn667   2.014   .     S
O660   Zn668   2.014   .     S
O661   Zn667   2.013   .     S
O662   Zn668   2.013   .     S
O663   Zn667   1.950   .     S
O664   Zn668   1.950   .     S
O665   Zn667   1.950   .     S
O666   Zn668   1.950   .     S
C673   N674    1.158   .     T
C675   N676    1.158   .     T
C677   N678    1.158   .     T
C679   N680    1.158   .     T
C681   O702    1.289   .     A
C681   C692    1.430   .     S
C681   O699    1.289   .     A
C682   O701    1.289   .     A
C682   C691    1.430   .     S
C682   O700    1.289   .     A
C683   O703    1.279   .     A
C683   O706    1.279   .     A
C683   C685    1.366   .     S
C684   O705    1.279   .     A
C684   O704    1.279   .     A
C684   C686    1.366   .     S
C686   C1045   1.165   .     S
C687   F709    1.359   .     S
C687   C692    1.403   .     A
C688   F710    1.359   .     S
C688   C691    1.403   .     A
C688   C610    1.368   1_655 S
C689   C691    1.403   .     A
C689   F711    1.359   .     S
C689   C607    1.368   1_655 S
C690   C692    1.403   .     A
C690   F712    1.359   .     S
C693   C713    1.443   .     S
C693   N698    1.369   .     A
C694   N697    1.369   .     A
C694   C715    1.443   .     S
C694   C455    1.426   1_565 S
C695   N698    1.369   .     A
C695   C717    1.443   .     S
C696   C719    1.443   .     S
C696   N697    1.369   .     A
C696   C453    1.426   1_565 S
N697   Zn707   2.018   .     S
N698   Zn708   2.018   .     S
O699   Zn707   2.014   .     S
O700   Zn708   2.014   .     S
O701   Zn707   2.013   .     S
O702   Zn708   2.013   .     S
O703   Zn707   1.950   .     S
O704   Zn708   1.950   .     S
O705   Zn707   1.950   .     S
O706   Zn708   1.950   .     S
C713   N714    1.158   .     T
C715   N716    1.158   .     T
C717   N718    1.158   .     T
C719   N720    1.158   .     T
C721   O742    1.289   .     A
C721   C732    1.430   .     S
C721   O739    1.289   .     A
C722   O741    1.289   .     A
C722   C731    1.430   .     S
C722   O740    1.289   .     A
C723   O743    1.279   .     A
C723   O746    1.279   .     A
C723   C725    1.366   .     S
C724   O745    1.279   .     A
C724   O744    1.279   .     A
C724   C726    1.366   .     S
C726   C5      1.165   1_556 S
C727   F749    1.359   .     S
C727   C732    1.403   .     A
C727   C809    1.368   1_455 S
C728   F750    1.359   .     S
C728   C731    1.403   .     A
C728   C770    1.368   .     S
C729   C731    1.403   .     A
C729   F751    1.359   .     S
C729   C767    1.368   .     S
C730   C732    1.403   .     A
C730   F752    1.359   .     S
C730   C808    1.368   1_455 S
C733   C753    1.443   .     S
C733   N738    1.369   .     A
C733   C976    1.426   1_545 S
C734   N737    1.369   .     A
C734   C755    1.443   .     S
C734   C855    1.426   .     S
C735   N738    1.369   .     A
C735   C757    1.443   .     S
C735   C974    1.426   1_545 S
C736   C759    1.443   .     S
C736   N737    1.369   .     A
C736   C853    1.426   .     S
N737   Zn747   2.018   .     S
N738   Zn748   2.018   .     S
O739   Zn747   2.014   .     S
O740   Zn748   2.014   .     S
O741   Zn747   2.013   .     S
O742   Zn748   2.013   .     S
O743   Zn747   1.950   .     S
O744   Zn748   1.950   .     S
O745   Zn747   1.950   .     S
O746   Zn748   1.950   .     S
C753   N754    1.158   .     T
C755   N756    1.158   .     T
C757   N758    1.158   .     T
C759   N760    1.158   .     T
C761   O782    1.289   .     A
C761   C772    1.430   .     S
C761   O779    1.289   .     A
C762   O781    1.289   .     A
C762   C771    1.430   .     S
C762   O780    1.289   .     A
C763   O783    1.279   .     A
C763   O786    1.279   .     A
C763   C765    1.366   .     S
C764   O785    1.279   .     A
C764   O784    1.279   .     A
C764   C766    1.366   .     S
C766   C45     1.165   1_556 S
C767   F789    1.359   .     S
C767   C772    1.403   .     A
C768   F790    1.359   .     S
C768   C771    1.403   .     A
C768   C810    1.368   .     S
C769   C771    1.403   .     A
C769   F791    1.359   .     S
C769   C807    1.368   .     S
C770   C772    1.403   .     A
C770   F792    1.359   .     S
C773   C793    1.443   .     S
C773   N778    1.369   .     A
C773   C1016   1.426   1_545 S
C774   N777    1.369   .     A
C774   C795    1.443   .     S
C774   C895    1.426   .     S
C775   N778    1.369   .     A
C775   C797    1.443   .     S
C775   C1014   1.426   1_545 S
C776   C799    1.443   .     S
C776   N777    1.369   .     A
C776   C893    1.426   .     S
N777   Zn787   2.018   .     S
N778   Zn788   2.018   .     S
O779   Zn787   2.014   .     S
O780   Zn788   2.014   .     S
O781   Zn787   2.013   .     S
O782   Zn788   2.013   .     S
O783   Zn787   1.950   .     S
O784   Zn788   1.950   .     S
O785   Zn787   1.950   .     S
O786   Zn788   1.950   .     S
C793   N794    1.158   .     T
C795   N796    1.158   .     T
C797   N798    1.158   .     T
C799   N800    1.158   .     T
C801   O822    1.289   .     A
C801   C812    1.430   .     S
C801   O819    1.289   .     A
C802   O821    1.289   .     A
C802   C811    1.430   .     S
C802   O820    1.289   .     A
C803   O823    1.279   .     A
C803   O826    1.279   .     A
C803   C805    1.366   .     S
C804   O825    1.279   .     A
C804   O824    1.279   .     A
C804   C806    1.366   .     S
C806   C85     1.165   1_556 S
C807   F829    1.359   .     S
C807   C812    1.403   .     A
C808   F830    1.359   .     S
C808   C811    1.403   .     A
C808   C730    1.368   1_655 S
C809   C811    1.403   .     A
C809   F831    1.359   .     S
C809   C727    1.368   1_655 S
C810   C812    1.403   .     A
C810   F832    1.359   .     S
C813   C833    1.443   .     S
C813   N818    1.369   .     A
C813   C1056   1.426   1_545 S
C814   N817    1.369   .     A
C814   C835    1.443   .     S
C814   C935    1.426   .     S
C815   N818    1.369   .     A
C815   C837    1.443   .     S
C815   C1054   1.426   1_545 S
C816   C839    1.443   .     S
C816   N817    1.369   .     A
C816   C933    1.426   .     S
N817   Zn827   2.018   .     S
N818   Zn828   2.018   .     S
O819   Zn827   2.014   .     S
O820   Zn828   2.014   .     S
O821   Zn827   2.013   .     S
O822   Zn828   2.013   .     S
O823   Zn827   1.950   .     S
O824   Zn828   1.950   .     S
O825   Zn827   1.950   .     S
O826   Zn828   1.950   .     S
C833   N834    1.158   .     T
C835   N836    1.158   .     T
C837   N838    1.158   .     T
C839   N840    1.158   .     T
C841   O862    1.289   .     A
C841   C852    1.430   .     S
C841   O859    1.289   .     A
C842   O861    1.289   .     A
C842   C851    1.430   .     S
C842   O860    1.289   .     A
C843   O863    1.279   .     A
C843   O866    1.279   .     A
C843   C845    1.366   .     S
C844   O865    1.279   .     A
C844   O864    1.279   .     A
C844   C846    1.366   .     S
C846   C125    1.165   1_556 S
C847   F869    1.359   .     S
C847   C852    1.403   .     A
C847   C929    1.368   1_455 S
C848   F870    1.359   .     S
C848   C851    1.403   .     A
C848   C890    1.368   .     S
C849   C851    1.403   .     A
C849   F871    1.359   .     S
C849   C887    1.368   .     S
C850   C852    1.403   .     A
C850   F872    1.359   .     S
C850   C928    1.368   1_455 S
C853   C873    1.443   .     S
C853   N858    1.369   .     A
C854   N857    1.369   .     A
C854   C875    1.443   .     S
C854   C975    1.426   .     S
C855   N858    1.369   .     A
C855   C877    1.443   .     S
C856   C879    1.443   .     S
C856   N857    1.369   .     A
C856   C973    1.426   .     S
N857   Zn867   2.018   .     S
N858   Zn868   2.018   .     S
O859   Zn867   2.014   .     S
O860   Zn868   2.014   .     S
O861   Zn867   2.013   .     S
O862   Zn868   2.013   .     S
O863   Zn867   1.950   .     S
O864   Zn868   1.950   .     S
O865   Zn867   1.950   .     S
O866   Zn868   1.950   .     S
C873   N874    1.158   .     T
C875   N876    1.158   .     T
C877   N878    1.158   .     T
C879   N880    1.158   .     T
C881   O902    1.289   .     A
C881   C892    1.430   .     S
C881   O899    1.289   .     A
C882   O901    1.289   .     A
C882   C891    1.430   .     S
C882   O900    1.289   .     A
C883   O903    1.279   .     A
C883   O906    1.279   .     A
C883   C885    1.366   .     S
C884   O905    1.279   .     A
C884   O904    1.279   .     A
C884   C886    1.366   .     S
C886   C165    1.165   1_556 S
C887   F909    1.359   .     S
C887   C892    1.403   .     A
C888   F910    1.359   .     S
C888   C891    1.403   .     A
C888   C930    1.368   .     S
C889   C891    1.403   .     A
C889   F911    1.359   .     S
C889   C927    1.368   .     S
C890   C892    1.403   .     A
C890   F912    1.359   .     S
C893   C913    1.443   .     S
C893   N898    1.369   .     A
C894   N897    1.369   .     A
C894   C915    1.443   .     S
C894   C1015   1.426   .     S
C895   N898    1.369   .     A
C895   C917    1.443   .     S
C896   C919    1.443   .     S
C896   N897    1.369   .     A
C896   C1013   1.426   .     S
N897   Zn907   2.018   .     S
N898   Zn908   2.018   .     S
O899   Zn907   2.014   .     S
O900   Zn908   2.014   .     S
O901   Zn907   2.013   .     S
O902   Zn908   2.013   .     S
O903   Zn907   1.950   .     S
O904   Zn908   1.950   .     S
O905   Zn907   1.950   .     S
O906   Zn908   1.950   .     S
C913   N914    1.158   .     T
C915   N916    1.158   .     T
C917   N918    1.158   .     T
C919   N920    1.158   .     T
C921   O942    1.289   .     A
C921   C932    1.430   .     S
C921   O939    1.289   .     A
C922   O941    1.289   .     A
C922   C931    1.430   .     S
C922   O940    1.289   .     A
C923   O943    1.279   .     A
C923   O946    1.279   .     A
C923   C925    1.366   .     S
C924   O945    1.279   .     A
C924   O944    1.279   .     A
C924   C926    1.366   .     S
C926   C205    1.165   1_556 S
C927   F949    1.359   .     S
C927   C932    1.403   .     A
C928   F950    1.359   .     S
C928   C931    1.403   .     A
C928   C850    1.368   1_655 S
C929   C931    1.403   .     A
C929   F951    1.359   .     S
C929   C847    1.368   1_655 S
C930   C932    1.403   .     A
C930   F952    1.359   .     S
C933   C953    1.443   .     S
C933   N938    1.369   .     A
C934   N937    1.369   .     A
C934   C955    1.443   .     S
C934   C1055   1.426   .     S
C935   N938    1.369   .     A
C935   C957    1.443   .     S
C936   C959    1.443   .     S
C936   N937    1.369   .     A
C936   C1053   1.426   .     S
N937   Zn947   2.018   .     S
N938   Zn948   2.018   .     S
O939   Zn947   2.014   .     S
O940   Zn948   2.014   .     S
O941   Zn947   2.013   .     S
O942   Zn948   2.013   .     S
O943   Zn947   1.950   .     S
O944   Zn948   1.950   .     S
O945   Zn947   1.950   .     S
O946   Zn948   1.950   .     S
C953   N954    1.158   .     T
C955   N956    1.158   .     T
C957   N958    1.158   .     T
C959   N960    1.158   .     T
C961   O982    1.289   .     A
C961   C972    1.430   .     S
C961   O979    1.289   .     A
C962   O981    1.289   .     A
C962   C971    1.430   .     S
C962   O980    1.289   .     A
C963   O983    1.279   .     A
C963   O986    1.279   .     A
C963   C965    1.366   .     S
C964   O985    1.279   .     A
C964   O984    1.279   .     A
C964   C966    1.366   .     S
C966   C245    1.165   1_556 S
C967   F989    1.359   .     S
C967   C972    1.403   .     A
C967   C1049   1.368   1_455 S
C968   F990    1.359   .     S
C968   C971    1.403   .     A
C968   C1010   1.368   .     S
C969   C971    1.403   .     A
C969   F991    1.359   .     S
C969   C1007   1.368   .     S
C970   C972    1.403   .     A
C970   F992    1.359   .     S
C970   C1048   1.368   1_455 S
C973   C993    1.443   .     S
C973   N978    1.369   .     A
C974   N977    1.369   .     A
C974   C995    1.443   .     S
C974   C735    1.426   1_565 S
C975   N978    1.369   .     A
C975   C997    1.443   .     S
C976   C999    1.443   .     S
C976   N977    1.369   .     A
C976   C733    1.426   1_565 S
N977   Zn987   2.018   .     S
N978   Zn988   2.018   .     S
O979   Zn987   2.014   .     S
O980   Zn988   2.014   .     S
O981   Zn987   2.013   .     S
O982   Zn988   2.013   .     S
O983   Zn987   1.950   .     S
O984   Zn988   1.950   .     S
O985   Zn987   1.950   .     S
O986   Zn988   1.950   .     S
C993   N994    1.158   .     T
C995   N996    1.158   .     T
C997   N998    1.158   .     T
C999   N1000   1.158   .     T
C1001  O1022   1.289   .     A
C1001  C1012   1.430   .     S
C1001  O1019   1.289   .     A
C1002  O1021   1.289   .     A
C1002  C1011   1.430   .     S
C1002  O1020   1.289   .     A
C1003  O1023   1.279   .     A
C1003  O1026   1.279   .     A
C1003  C1005   1.366   .     S
C1004  O1025   1.279   .     A
C1004  O1024   1.279   .     A
C1004  C1006   1.366   .     S
C1006  C285    1.165   1_556 S
C1007  F1029   1.359   .     S
C1007  C1012   1.403   .     A
C1008  F1030   1.359   .     S
C1008  C1011   1.403   .     A
C1008  C1050   1.368   .     S
C1009  C1011   1.403   .     A
C1009  F1031   1.359   .     S
C1009  C1047   1.368   .     S
C1010  C1012   1.403   .     A
C1010  F1032   1.359   .     S
C1013  C1033   1.443   .     S
C1013  N1018   1.369   .     A
C1014  N1017   1.369   .     A
C1014  C1035   1.443   .     S
C1014  C775    1.426   1_565 S
C1015  N1018   1.369   .     A
C1015  C1037   1.443   .     S
C1016  C1039   1.443   .     S
C1016  N1017   1.369   .     A
C1016  C773    1.426   1_565 S
N1017  Zn1027  2.018   .     S
N1018  Zn1028  2.018   .     S
O1019  Zn1027  2.014   .     S
O1020  Zn1028  2.014   .     S
O1021  Zn1027  2.013   .     S
O1022  Zn1028  2.013   .     S
O1023  Zn1027  1.950   .     S
O1024  Zn1028  1.950   .     S
O1025  Zn1027  1.950   .     S
O1026  Zn1028  1.950   .     S
C1033  N1034   1.158   .     T
C1035  N1036   1.158   .     T
C1037  N1038   1.158   .     T
C1039  N1040   1.158   .     T
C1041  O1062   1.289   .     A
C1041  C1052   1.430   .     S
C1041  O1059   1.289   .     A
C1042  O1061   1.289   .     A
C1042  C1051   1.430   .     S
C1042  O1060   1.289   .     A
C1043  O1063   1.279   .     A
C1043  O1066   1.279   .     A
C1043  C1045   1.366   .     S
C1044  O1065   1.279   .     A
C1044  O1064   1.279   .     A
C1044  C1046   1.366   .     S
C1046  C325    1.165   1_556 S
C1047  F1069   1.359   .     S
C1047  C1052   1.403   .     A
C1048  F1070   1.359   .     S
C1048  C1051   1.403   .     A
C1048  C970    1.368   1_655 S
C1049  C1051   1.403   .     A
C1049  F1071   1.359   .     S
C1049  C967    1.368   1_655 S
C1050  C1052   1.403   .     A
C1050  F1072   1.359   .     S
C1053  C1073   1.443   .     S
C1053  N1058   1.369   .     A
C1054  N1057   1.369   .     A
C1054  C1075   1.443   .     S
C1054  C815    1.426   1_565 S
C1055  N1058   1.369   .     A
C1055  C1077   1.443   .     S
C1056  C1079   1.443   .     S
C1056  N1057   1.369   .     A
C1056  C813    1.426   1_565 S
N1057  Zn1067  2.018   .     S
N1058  Zn1068  2.018   .     S
O1059  Zn1067  2.014   .     S
O1060  Zn1068  2.014   .     S
O1061  Zn1067  2.013   .     S
O1062  Zn1068  2.013   .     S
O1063  Zn1067  1.950   .     S
O1064  Zn1068  1.950   .     S
O1065  Zn1067  1.950   .     S
O1066  Zn1068  1.950   .     S
C1073  N1074   1.158   .     T
C1075  N1076   1.158   .     T
C1077  N1078   1.158   .     T
C1079  N1080   1.158   .     T
