data_str_m3_o1_o18_pcu_sym.125
_audit_creation_date              2020-01-03
_audit_creation_method            'Materials Studio'
_symmetry_space_group_name_H-M    'P1'
_symmetry_Int_Tables_number       1
_symmetry_cell_setting            triclinic
loop_
_symmetry_equiv_pos_as_xyz
  x,y,z
_cell_length_a                    29.5336
_cell_length_b                    32.0656
_cell_length_c                    30.8348
_cell_angle_alpha                 91.0280
_cell_angle_beta                  68.2617
_cell_angle_gamma                 90.2175
loop_
_atom_site_label
_atom_site_type_symbol
_atom_site_fract_x
_atom_site_fract_y
_atom_site_fract_z
_atom_site_U_iso_or_equiv
_atom_site_adp_type
_atom_site_occupancy
O1     O     0.12846   0.22775   0.25000   0.00000  Uiso   1.00
O2     O     0.20488   0.10558   0.25000   0.00000  Uiso   1.00
O3     O     0.20490   0.22774   0.25000   0.00000  Uiso   1.00
O4     O     0.12843   0.10559   0.25000   0.00000  Uiso   1.00
C5     C     0.16631   0.24661   0.25106   0.00000  Uiso   1.00
C6     C     0.16680   0.08670   0.24955   0.00000  Uiso   1.00
O7     O     0.10661   0.16667   0.31612   0.00000  Uiso   1.00
O8     O     0.22672   0.16666   0.18387   0.00000  Uiso   1.00
O9     O     0.18305   0.16666   0.31612   0.00000  Uiso   1.00
O10    O     0.15028   0.16667   0.18388   0.00000  Uiso   1.00
C11    C     0.13633   0.16469   0.33809   0.00000  Uiso   1.00
C12    C     0.19713   0.16708   0.16163   0.00000  Uiso   1.00
Zn13   Zn    0.11562   0.16667   0.25000   0.00000  Uiso   1.00
Zn14   Zn    0.21771   0.16666   0.25000   0.00000  Uiso   1.00
C15    C     0.11888   0.15317   0.38750   0.00000  Uiso   1.00
C16    C     0.21688   0.16580   0.11008   0.00000  Uiso   1.00
C17    C     0.07288   0.10846   0.45152   0.00000  Uiso   1.00
C18    C     0.28151   0.17734   0.03489   0.00000  Uiso   1.00
C19    C     0.08023   0.12458   0.40753   0.00000  Uiso   1.00
C20    C     0.26485   0.17920   0.08361   0.00000  Uiso   1.00
C21    C     0.14897   0.16411   0.41186   0.00000  Uiso   1.00
C22    C     0.18723   0.14991   0.08690   0.00000  Uiso   1.00
C23    C     0.14829   0.14072   0.45000   0.00000  Uiso   1.00
C24    C     0.20511   0.14586   0.03798   0.00000  Uiso   1.00
C25    C     0.10733   0.11532   0.47214   0.00000  Uiso   1.00
C26    C     0.25127   0.16279   0.01219   0.00000  Uiso   1.00
C27    C     0.18625   0.14293   0.46773   0.00000  Uiso   1.00
C28    C     0.17593   0.12983   0.01391   0.00000  Uiso   1.00
C29    C     0.13751   0.10079   0.03346   0.00000  Uiso   1.00
C30    C     0.23471   0.15579   0.44102   0.00000  Uiso   1.00
C31    C     0.10301   0.09472   0.01285   0.00000  Uiso   1.00
C32    C     0.26641   0.16585   0.46390   0.00000  Uiso   1.00
H33    H     0.07368   0.07262   0.02767   0.00000  Uiso   1.00
H34    H     0.30299   0.17651   0.44390   0.00000  Uiso   1.00
H35    H     0.04283   0.08726   0.46749   0.00000  Uiso   1.00
H36    H     0.31740   0.18938   0.01471   0.00000  Uiso   1.00
C37    C     0.18425   0.31304   0.28153   0.00000  Uiso   1.00
C38    C     0.14744   0.02016   0.22075   0.00000  Uiso   1.00
C39    C     0.18534   0.02268   0.27936   0.00000  Uiso   1.00
C40    C     0.14707   0.31062   0.22234   0.00000  Uiso   1.00
C41    C     0.16703   0.04253   0.24924   0.00000  Uiso   1.00
C42    C     0.16563   0.29073   0.25218   0.00000  Uiso   1.00
C43    C     0.31591   0.13314   0.23275   0.00000  Uiso   1.00
C44    C     0.01762   0.20038   0.26675   0.00000  Uiso   1.00
H45    H     0.30311   0.10633   0.21886   0.00000  Uiso   1.00
H46    H     0.03047   0.22726   0.28048   0.00000  Uiso   1.00
C47    C     0.03049   0.13316   0.23277   0.00000  Uiso   1.00
C48    C     0.30301   0.20036   0.26676   0.00000  Uiso   1.00
H49    H     0.05384   0.10641   0.21887   0.00000  Uiso   1.00
H50    H     0.27971   0.22718   0.28052   0.00000  Uiso   1.00
N51    N     0.04759   0.16668   0.25001   0.00000  Uiso   1.00
N52    N     0.28574   0.16666   0.24999   0.00000  Uiso   1.00
F53    F     0.13940   0.14215   0.11178   0.00000  Uiso   1.00
F54    F     0.17931   0.19733   0.39763   0.00000  Uiso   1.00
N55    N     0.29570   0.19793   0.10513   0.00000  Uiso   1.00
O56    O     0.28007   0.22981   0.13346   0.00000  Uiso   1.00
O57    O     0.00857   0.18861   0.08966   0.00000  Uiso   1.00
N58    N     0.05146   0.10822   0.38249   0.00000  Uiso   1.00
O59    O     0.07311   0.08927   0.34254   0.00000  Uiso   1.00
O60    O     0.00535   0.10105   0.40487   0.00000  Uiso   1.00
N61    N     0.13812   0.07212   0.06849   0.00000  Uiso   1.00
O62    O     0.17946   0.05708   0.06725   0.00000  Uiso   1.00
O63    O     0.09776   0.05513   0.09576   0.00000  Uiso   1.00
N64    N     0.25457   0.15300   0.39086   0.00000  Uiso   1.00
O65    O     0.24288   0.12195   0.36933   0.00000  Uiso   1.00
O66    O     0.29033   0.17717   0.36721   0.00000  Uiso   1.00
N67    N     0.19954   0.29262   0.31498   0.00000  Uiso   1.00
O68    O     0.17215   0.26420   0.34173   0.00000  Uiso   1.00
O69    O     0.23771   0.30570   0.32267   0.00000  Uiso   1.00
N70    N     0.12932   0.04044   0.18930   0.00000  Uiso   1.00
O71    O     0.15424   0.07005   0.16274   0.00000  Uiso   1.00
O72    O     0.08927   0.02759   0.18509   0.00000  Uiso   1.00
F73    F     0.20116   0.04529   0.30874   0.00000  Uiso   1.00
F74    F     0.13110   0.28819   0.19294   0.00000  Uiso   1.00
O75    O     0.46179   0.22775   0.25000   0.00000  Uiso   1.00
O76    O     0.53821   0.10558   0.25000   0.00000  Uiso   1.00
O77    O     0.53823   0.22774   0.25000   0.00000  Uiso   1.00
O78    O     0.46177   0.10559   0.25000   0.00000  Uiso   1.00
C79    C     0.49964   0.24661   0.25106   0.00000  Uiso   1.00
C80    C     0.50014   0.08670   0.24955   0.00000  Uiso   1.00
O81    O     0.43994   0.16667   0.31612   0.00000  Uiso   1.00
O82    O     0.56006   0.16666   0.18387   0.00000  Uiso   1.00
O83    O     0.51639   0.16666   0.31612   0.00000  Uiso   1.00
O84    O     0.48361   0.16667   0.18388   0.00000  Uiso   1.00
C85    C     0.46966   0.16469   0.33809   0.00000  Uiso   1.00
C86    C     0.53046   0.16708   0.16163   0.00000  Uiso   1.00
Zn87   Zn    0.44896   0.16667   0.25000   0.00000  Uiso   1.00
Zn88   Zn    0.55104   0.16666   0.25000   0.00000  Uiso   1.00
C89    C     0.45221   0.15317   0.38750   0.00000  Uiso   1.00
C90    C     0.55021   0.16580   0.11008   0.00000  Uiso   1.00
C91    C     0.40621   0.10846   0.45152   0.00000  Uiso   1.00
C92    C     0.61485   0.17734   0.03489   0.00000  Uiso   1.00
C93    C     0.41356   0.12458   0.40753   0.00000  Uiso   1.00
C94    C     0.59818   0.17920   0.08361   0.00000  Uiso   1.00
C95    C     0.48231   0.16411   0.41186   0.00000  Uiso   1.00
C96    C     0.52057   0.14991   0.08690   0.00000  Uiso   1.00
C97    C     0.48162   0.14072   0.45000   0.00000  Uiso   1.00
C98    C     0.53844   0.14586   0.03798   0.00000  Uiso   1.00
C99    C     0.44066   0.11532   0.47214   0.00000  Uiso   1.00
C100   C     0.58460   0.16279   0.01219   0.00000  Uiso   1.00
C101   C     0.51959   0.14293   0.46773   0.00000  Uiso   1.00
C102   C     0.50926   0.12983   0.01391   0.00000  Uiso   1.00
C103   C     0.47084   0.10079   0.03346   0.00000  Uiso   1.00
C104   C     0.56805   0.15579   0.44102   0.00000  Uiso   1.00
C105   C     0.43634   0.09472   0.01285   0.00000  Uiso   1.00
C106   C     0.59974   0.16585   0.46390   0.00000  Uiso   1.00
H107   H     0.40701   0.07262   0.02767   0.00000  Uiso   1.00
H108   H     0.63632   0.17651   0.44390   0.00000  Uiso   1.00
H109   H     0.37617   0.08726   0.46749   0.00000  Uiso   1.00
H110   H     0.65073   0.18938   0.01471   0.00000  Uiso   1.00
C111   C     0.51758   0.31304   0.28153   0.00000  Uiso   1.00
C112   C     0.48078   0.02016   0.22075   0.00000  Uiso   1.00
C113   C     0.51867   0.02268   0.27936   0.00000  Uiso   1.00
C114   C     0.48041   0.31062   0.22234   0.00000  Uiso   1.00
C115   C     0.50037   0.04253   0.24924   0.00000  Uiso   1.00
C116   C     0.49896   0.29073   0.25218   0.00000  Uiso   1.00
C117   C     0.64925   0.13314   0.23275   0.00000  Uiso   1.00
C118   C     0.35095   0.20038   0.26675   0.00000  Uiso   1.00
H119   H     0.63645   0.10633   0.21886   0.00000  Uiso   1.00
H120   H     0.36381   0.22726   0.28048   0.00000  Uiso   1.00
C121   C     0.36383   0.13316   0.23277   0.00000  Uiso   1.00
C122   C     0.63634   0.20036   0.26676   0.00000  Uiso   1.00
H123   H     0.38717   0.10641   0.21887   0.00000  Uiso   1.00
H124   H     0.61305   0.22718   0.28052   0.00000  Uiso   1.00
N125   N     0.38093   0.16668   0.25001   0.00000  Uiso   1.00
N126   N     0.61907   0.16666   0.24999   0.00000  Uiso   1.00
F127   F     0.47273   0.14215   0.11178   0.00000  Uiso   1.00
F128   F     0.51264   0.19733   0.39763   0.00000  Uiso   1.00
N129   N     0.62903   0.19793   0.10513   0.00000  Uiso   1.00
O130   O     0.61341   0.22981   0.13346   0.00000  Uiso   1.00
O131   O     0.34190   0.18861   0.08966   0.00000  Uiso   1.00
N132   N     0.38480   0.10822   0.38249   0.00000  Uiso   1.00
O133   O     0.40644   0.08927   0.34254   0.00000  Uiso   1.00
O134   O     0.33869   0.10105   0.40487   0.00000  Uiso   1.00
N135   N     0.47145   0.07212   0.06849   0.00000  Uiso   1.00
O136   O     0.51280   0.05708   0.06725   0.00000  Uiso   1.00
O137   O     0.43110   0.05513   0.09576   0.00000  Uiso   1.00
N138   N     0.58791   0.15300   0.39086   0.00000  Uiso   1.00
O139   O     0.57622   0.12195   0.36933   0.00000  Uiso   1.00
O140   O     0.62366   0.17717   0.36721   0.00000  Uiso   1.00
N141   N     0.53287   0.29262   0.31498   0.00000  Uiso   1.00
O142   O     0.50548   0.26420   0.34173   0.00000  Uiso   1.00
O143   O     0.57104   0.30570   0.32267   0.00000  Uiso   1.00
N144   N     0.46265   0.04044   0.18930   0.00000  Uiso   1.00
O145   O     0.48757   0.07005   0.16274   0.00000  Uiso   1.00
O146   O     0.42260   0.02759   0.18509   0.00000  Uiso   1.00
F147   F     0.53449   0.04529   0.30874   0.00000  Uiso   1.00
F148   F     0.46443   0.28819   0.19294   0.00000  Uiso   1.00
O149   O     0.79512   0.22775   0.25000   0.00000  Uiso   1.00
O150   O     0.87154   0.10558   0.25000   0.00000  Uiso   1.00
O151   O     0.87157   0.22774   0.25000   0.00000  Uiso   1.00
O152   O     0.79510   0.10559   0.25000   0.00000  Uiso   1.00
C153   C     0.83298   0.24661   0.25106   0.00000  Uiso   1.00
C154   C     0.83347   0.08670   0.24955   0.00000  Uiso   1.00
O155   O     0.77328   0.16667   0.31612   0.00000  Uiso   1.00
O156   O     0.89339   0.16666   0.18387   0.00000  Uiso   1.00
O157   O     0.84972   0.16666   0.31612   0.00000  Uiso   1.00
O158   O     0.81695   0.16667   0.18388   0.00000  Uiso   1.00
C159   C     0.80300   0.16469   0.33809   0.00000  Uiso   1.00
C160   C     0.86379   0.16708   0.16163   0.00000  Uiso   1.00
Zn161  Zn    0.78229   0.16667   0.25000   0.00000  Uiso   1.00
Zn162  Zn    0.88438   0.16666   0.25000   0.00000  Uiso   1.00
C163   C     0.78555   0.15317   0.38750   0.00000  Uiso   1.00
C164   C     0.88355   0.16580   0.11008   0.00000  Uiso   1.00
C165   C     0.73955   0.10846   0.45152   0.00000  Uiso   1.00
C166   C     0.94818   0.17734   0.03489   0.00000  Uiso   1.00
C167   C     0.74690   0.12458   0.40753   0.00000  Uiso   1.00
C168   C     0.93151   0.17920   0.08361   0.00000  Uiso   1.00
C169   C     0.81564   0.16411   0.41186   0.00000  Uiso   1.00
C170   C     0.85390   0.14991   0.08690   0.00000  Uiso   1.00
C171   C     0.81496   0.14072   0.45000   0.00000  Uiso   1.00
C172   C     0.87177   0.14586   0.03798   0.00000  Uiso   1.00
C173   C     0.77399   0.11532   0.47214   0.00000  Uiso   1.00
C174   C     0.91794   0.16279   0.01219   0.00000  Uiso   1.00
C175   C     0.85292   0.14293   0.46773   0.00000  Uiso   1.00
C176   C     0.84259   0.12983   0.01391   0.00000  Uiso   1.00
C177   C     0.80418   0.10079   0.03346   0.00000  Uiso   1.00
C178   C     0.90138   0.15579   0.44102   0.00000  Uiso   1.00
C179   C     0.76968   0.09472   0.01285   0.00000  Uiso   1.00
C180   C     0.93307   0.16585   0.46390   0.00000  Uiso   1.00
H181   H     0.74034   0.07262   0.02767   0.00000  Uiso   1.00
H182   H     0.96966   0.17651   0.44390   0.00000  Uiso   1.00
H183   H     0.70950   0.08726   0.46749   0.00000  Uiso   1.00
H184   H     0.98406   0.18938   0.01471   0.00000  Uiso   1.00
C185   C     0.85092   0.31304   0.28153   0.00000  Uiso   1.00
C186   C     0.81411   0.02016   0.22075   0.00000  Uiso   1.00
C187   C     0.85200   0.02268   0.27936   0.00000  Uiso   1.00
C188   C     0.81374   0.31062   0.22234   0.00000  Uiso   1.00
C189   C     0.83370   0.04253   0.24924   0.00000  Uiso   1.00
C190   C     0.83229   0.29073   0.25218   0.00000  Uiso   1.00
C191   C     0.98258   0.13314   0.23275   0.00000  Uiso   1.00
C192   C     0.68428   0.20038   0.26675   0.00000  Uiso   1.00
H193   H     0.96978   0.10633   0.21886   0.00000  Uiso   1.00
H194   H     0.69714   0.22726   0.28048   0.00000  Uiso   1.00
C195   C     0.69716   0.13316   0.23277   0.00000  Uiso   1.00
C196   C     0.96968   0.20036   0.26676   0.00000  Uiso   1.00
H197   H     0.72050   0.10641   0.21887   0.00000  Uiso   1.00
H198   H     0.94638   0.22718   0.28052   0.00000  Uiso   1.00
N199   N     0.71426   0.16668   0.25001   0.00000  Uiso   1.00
N200   N     0.95241   0.16666   0.24999   0.00000  Uiso   1.00
F201   F     0.80606   0.14215   0.11178   0.00000  Uiso   1.00
F202   F     0.84598   0.19733   0.39763   0.00000  Uiso   1.00
N203   N     0.96237   0.19793   0.10513   0.00000  Uiso   1.00
O204   O     0.94674   0.22981   0.13346   0.00000  Uiso   1.00
O205   O     0.67523   0.18861   0.08966   0.00000  Uiso   1.00
N206   N     0.71813   0.10822   0.38249   0.00000  Uiso   1.00
O207   O     0.73977   0.08927   0.34254   0.00000  Uiso   1.00
O208   O     0.67202   0.10105   0.40487   0.00000  Uiso   1.00
N209   N     0.80478   0.07212   0.06849   0.00000  Uiso   1.00
O210   O     0.84613   0.05708   0.06725   0.00000  Uiso   1.00
O211   O     0.76443   0.05513   0.09576   0.00000  Uiso   1.00
N212   N     0.92124   0.15300   0.39086   0.00000  Uiso   1.00
O213   O     0.90955   0.12195   0.36933   0.00000  Uiso   1.00
O214   O     0.95700   0.17717   0.36721   0.00000  Uiso   1.00
N215   N     0.86620   0.29262   0.31498   0.00000  Uiso   1.00
O216   O     0.83881   0.26420   0.34173   0.00000  Uiso   1.00
O217   O     0.90437   0.30570   0.32267   0.00000  Uiso   1.00
N218   N     0.79598   0.04044   0.18930   0.00000  Uiso   1.00
O219   O     0.82091   0.07005   0.16274   0.00000  Uiso   1.00
O220   O     0.75594   0.02759   0.18509   0.00000  Uiso   1.00
F221   F     0.86782   0.04529   0.30874   0.00000  Uiso   1.00
F222   F     0.79777   0.28819   0.19294   0.00000  Uiso   1.00
O223   O     0.12846   0.56108   0.25000   0.00000  Uiso   1.00
O224   O     0.20488   0.43892   0.25000   0.00000  Uiso   1.00
O225   O     0.20490   0.56107   0.25000   0.00000  Uiso   1.00
O226   O     0.12843   0.43893   0.25000   0.00000  Uiso   1.00
C227   C     0.16631   0.57994   0.25106   0.00000  Uiso   1.00
C228   C     0.16680   0.42003   0.24955   0.00000  Uiso   1.00
O229   O     0.10661   0.50001   0.31612   0.00000  Uiso   1.00
O230   O     0.22672   0.49999   0.18387   0.00000  Uiso   1.00
O231   O     0.18305   0.50000   0.31612   0.00000  Uiso   1.00
O232   O     0.15028   0.50000   0.18388   0.00000  Uiso   1.00
C233   C     0.13633   0.49803   0.33809   0.00000  Uiso   1.00
C234   C     0.19713   0.50042   0.16163   0.00000  Uiso   1.00
Zn235  Zn    0.11562   0.50001   0.25000   0.00000  Uiso   1.00
Zn236  Zn    0.21771   0.49999   0.25000   0.00000  Uiso   1.00
C237   C     0.11888   0.48650   0.38750   0.00000  Uiso   1.00
C238   C     0.21688   0.49913   0.11008   0.00000  Uiso   1.00
C239   C     0.07288   0.44180   0.45152   0.00000  Uiso   1.00
C240   C     0.28151   0.51067   0.03489   0.00000  Uiso   1.00
C241   C     0.08023   0.45791   0.40753   0.00000  Uiso   1.00
C242   C     0.26485   0.51253   0.08361   0.00000  Uiso   1.00
C243   C     0.14897   0.49744   0.41186   0.00000  Uiso   1.00
C244   C     0.18723   0.48324   0.08690   0.00000  Uiso   1.00
C245   C     0.14829   0.47405   0.45000   0.00000  Uiso   1.00
C246   C     0.20511   0.47920   0.03798   0.00000  Uiso   1.00
C247   C     0.10733   0.44866   0.47214   0.00000  Uiso   1.00
C248   C     0.25127   0.49612   0.01219   0.00000  Uiso   1.00
C249   C     0.18625   0.47626   0.46773   0.00000  Uiso   1.00
C250   C     0.17593   0.46317   0.01391   0.00000  Uiso   1.00
C251   C     0.13751   0.43412   0.03346   0.00000  Uiso   1.00
C252   C     0.23471   0.48913   0.44102   0.00000  Uiso   1.00
C253   C     0.10301   0.42805   0.01285   0.00000  Uiso   1.00
C254   C     0.26641   0.49919   0.46390   0.00000  Uiso   1.00
H255   H     0.07368   0.40595   0.02767   0.00000  Uiso   1.00
H256   H     0.30299   0.50985   0.44390   0.00000  Uiso   1.00
H257   H     0.04283   0.42060   0.46749   0.00000  Uiso   1.00
H258   H     0.31740   0.52272   0.01471   0.00000  Uiso   1.00
C259   C     0.18425   0.64637   0.28153   0.00000  Uiso   1.00
C260   C     0.14744   0.35349   0.22075   0.00000  Uiso   1.00
C261   C     0.18534   0.35601   0.27936   0.00000  Uiso   1.00
C262   C     0.14707   0.64396   0.22234   0.00000  Uiso   1.00
C263   C     0.16703   0.37587   0.24924   0.00000  Uiso   1.00
C264   C     0.16563   0.62407   0.25218   0.00000  Uiso   1.00
C265   C     0.31591   0.46648   0.23275   0.00000  Uiso   1.00
C266   C     0.01762   0.53372   0.26675   0.00000  Uiso   1.00
H267   H     0.30311   0.43966   0.21886   0.00000  Uiso   1.00
H268   H     0.03047   0.56059   0.28048   0.00000  Uiso   1.00
C269   C     0.03049   0.46650   0.23277   0.00000  Uiso   1.00
C270   C     0.30301   0.53369   0.26676   0.00000  Uiso   1.00
H271   H     0.05384   0.43974   0.21887   0.00000  Uiso   1.00
H272   H     0.27971   0.56051   0.28052   0.00000  Uiso   1.00
N273   N     0.04759   0.50001   0.25001   0.00000  Uiso   1.00
N274   N     0.28574   0.49999   0.24999   0.00000  Uiso   1.00
F275   F     0.13940   0.47549   0.11178   0.00000  Uiso   1.00
F276   F     0.17931   0.53066   0.39763   0.00000  Uiso   1.00
N277   N     0.29570   0.53126   0.10513   0.00000  Uiso   1.00
O278   O     0.28007   0.56315   0.13346   0.00000  Uiso   1.00
O279   O     0.00857   0.52195   0.08966   0.00000  Uiso   1.00
N280   N     0.05146   0.44156   0.38249   0.00000  Uiso   1.00
O281   O     0.07311   0.42261   0.34254   0.00000  Uiso   1.00
O282   O     0.00535   0.43438   0.40487   0.00000  Uiso   1.00
N283   N     0.13812   0.40545   0.06849   0.00000  Uiso   1.00
O284   O     0.17946   0.39042   0.06725   0.00000  Uiso   1.00
O285   O     0.09776   0.38846   0.09576   0.00000  Uiso   1.00
N286   N     0.25457   0.48633   0.39086   0.00000  Uiso   1.00
O287   O     0.24288   0.45528   0.36933   0.00000  Uiso   1.00
O288   O     0.29033   0.51051   0.36721   0.00000  Uiso   1.00
N289   N     0.19954   0.62595   0.31498   0.00000  Uiso   1.00
O290   O     0.17215   0.59753   0.34173   0.00000  Uiso   1.00
O291   O     0.23771   0.63903   0.32267   0.00000  Uiso   1.00
N292   N     0.12932   0.37377   0.18930   0.00000  Uiso   1.00
O293   O     0.15424   0.40339   0.16274   0.00000  Uiso   1.00
O294   O     0.08927   0.36092   0.18509   0.00000  Uiso   1.00
F295   F     0.20116   0.37862   0.30874   0.00000  Uiso   1.00
F296   F     0.13110   0.62152   0.19294   0.00000  Uiso   1.00
O297   O     0.46179   0.56108   0.25000   0.00000  Uiso   1.00
O298   O     0.53821   0.43892   0.25000   0.00000  Uiso   1.00
O299   O     0.53823   0.56107   0.25000   0.00000  Uiso   1.00
O300   O     0.46177   0.43893   0.25000   0.00000  Uiso   1.00
C301   C     0.49964   0.57994   0.25106   0.00000  Uiso   1.00
C302   C     0.50014   0.42003   0.24955   0.00000  Uiso   1.00
O303   O     0.43994   0.50001   0.31612   0.00000  Uiso   1.00
O304   O     0.56006   0.49999   0.18387   0.00000  Uiso   1.00
O305   O     0.51639   0.50000   0.31612   0.00000  Uiso   1.00
O306   O     0.48361   0.50000   0.18388   0.00000  Uiso   1.00
C307   C     0.46966   0.49803   0.33809   0.00000  Uiso   1.00
C308   C     0.53046   0.50042   0.16163   0.00000  Uiso   1.00
Zn309  Zn    0.44896   0.50001   0.25000   0.00000  Uiso   1.00
Zn310  Zn    0.55104   0.49999   0.25000   0.00000  Uiso   1.00
C311   C     0.45221   0.48650   0.38750   0.00000  Uiso   1.00
C312   C     0.55021   0.49913   0.11008   0.00000  Uiso   1.00
C313   C     0.40621   0.44180   0.45152   0.00000  Uiso   1.00
C314   C     0.61485   0.51067   0.03489   0.00000  Uiso   1.00
C315   C     0.41356   0.45791   0.40753   0.00000  Uiso   1.00
C316   C     0.59818   0.51253   0.08361   0.00000  Uiso   1.00
C317   C     0.48231   0.49744   0.41186   0.00000  Uiso   1.00
C318   C     0.52057   0.48324   0.08690   0.00000  Uiso   1.00
C319   C     0.48162   0.47405   0.45000   0.00000  Uiso   1.00
C320   C     0.53844   0.47920   0.03798   0.00000  Uiso   1.00
C321   C     0.44066   0.44866   0.47214   0.00000  Uiso   1.00
C322   C     0.58460   0.49612   0.01219   0.00000  Uiso   1.00
C323   C     0.51959   0.47626   0.46773   0.00000  Uiso   1.00
C324   C     0.50926   0.46317   0.01391   0.00000  Uiso   1.00
C325   C     0.47084   0.43412   0.03346   0.00000  Uiso   1.00
C326   C     0.56805   0.48913   0.44102   0.00000  Uiso   1.00
C327   C     0.43634   0.42805   0.01285   0.00000  Uiso   1.00
C328   C     0.59974   0.49919   0.46390   0.00000  Uiso   1.00
H329   H     0.40701   0.40595   0.02767   0.00000  Uiso   1.00
H330   H     0.63632   0.50985   0.44390   0.00000  Uiso   1.00
H331   H     0.37617   0.42060   0.46749   0.00000  Uiso   1.00
H332   H     0.65073   0.52272   0.01471   0.00000  Uiso   1.00
C333   C     0.51758   0.64637   0.28153   0.00000  Uiso   1.00
C334   C     0.48078   0.35349   0.22075   0.00000  Uiso   1.00
C335   C     0.51867   0.35601   0.27936   0.00000  Uiso   1.00
C336   C     0.48041   0.64396   0.22234   0.00000  Uiso   1.00
C337   C     0.50037   0.37587   0.24924   0.00000  Uiso   1.00
C338   C     0.49896   0.62407   0.25218   0.00000  Uiso   1.00
C339   C     0.64925   0.46648   0.23275   0.00000  Uiso   1.00
C340   C     0.35095   0.53372   0.26675   0.00000  Uiso   1.00
H341   H     0.63645   0.43966   0.21886   0.00000  Uiso   1.00
H342   H     0.36381   0.56059   0.28048   0.00000  Uiso   1.00
C343   C     0.36383   0.46650   0.23277   0.00000  Uiso   1.00
C344   C     0.63634   0.53369   0.26676   0.00000  Uiso   1.00
H345   H     0.38717   0.43974   0.21887   0.00000  Uiso   1.00
H346   H     0.61305   0.56051   0.28052   0.00000  Uiso   1.00
N347   N     0.38093   0.50001   0.25001   0.00000  Uiso   1.00
N348   N     0.61907   0.49999   0.24999   0.00000  Uiso   1.00
F349   F     0.47273   0.47549   0.11178   0.00000  Uiso   1.00
F350   F     0.51264   0.53066   0.39763   0.00000  Uiso   1.00
N351   N     0.62903   0.53126   0.10513   0.00000  Uiso   1.00
O352   O     0.61341   0.56315   0.13346   0.00000  Uiso   1.00
O353   O     0.34190   0.52195   0.08966   0.00000  Uiso   1.00
N354   N     0.38480   0.44156   0.38249   0.00000  Uiso   1.00
O355   O     0.40644   0.42261   0.34254   0.00000  Uiso   1.00
O356   O     0.33869   0.43438   0.40487   0.00000  Uiso   1.00
N357   N     0.47145   0.40545   0.06849   0.00000  Uiso   1.00
O358   O     0.51280   0.39042   0.06725   0.00000  Uiso   1.00
O359   O     0.43110   0.38846   0.09576   0.00000  Uiso   1.00
N360   N     0.58791   0.48633   0.39086   0.00000  Uiso   1.00
O361   O     0.57622   0.45528   0.36933   0.00000  Uiso   1.00
O362   O     0.62366   0.51051   0.36721   0.00000  Uiso   1.00
N363   N     0.53287   0.62595   0.31498   0.00000  Uiso   1.00
O364   O     0.50548   0.59753   0.34173   0.00000  Uiso   1.00
O365   O     0.57104   0.63903   0.32267   0.00000  Uiso   1.00
N366   N     0.46265   0.37377   0.18930   0.00000  Uiso   1.00
O367   O     0.48757   0.40339   0.16274   0.00000  Uiso   1.00
O368   O     0.42260   0.36092   0.18509   0.00000  Uiso   1.00
F369   F     0.53449   0.37862   0.30874   0.00000  Uiso   1.00
F370   F     0.46443   0.62152   0.19294   0.00000  Uiso   1.00
O371   O     0.79512   0.56108   0.25000   0.00000  Uiso   1.00
O372   O     0.87154   0.43892   0.25000   0.00000  Uiso   1.00
O373   O     0.87157   0.56107   0.25000   0.00000  Uiso   1.00
O374   O     0.79510   0.43893   0.25000   0.00000  Uiso   1.00
C375   C     0.83298   0.57994   0.25106   0.00000  Uiso   1.00
C376   C     0.83347   0.42003   0.24955   0.00000  Uiso   1.00
O377   O     0.77328   0.50001   0.31612   0.00000  Uiso   1.00
O378   O     0.89339   0.49999   0.18387   0.00000  Uiso   1.00
O379   O     0.84972   0.50000   0.31612   0.00000  Uiso   1.00
O380   O     0.81695   0.50000   0.18388   0.00000  Uiso   1.00
C381   C     0.80300   0.49803   0.33809   0.00000  Uiso   1.00
C382   C     0.86379   0.50042   0.16163   0.00000  Uiso   1.00
Zn383  Zn    0.78229   0.50001   0.25000   0.00000  Uiso   1.00
Zn384  Zn    0.88438   0.49999   0.25000   0.00000  Uiso   1.00
C385   C     0.78555   0.48650   0.38750   0.00000  Uiso   1.00
C386   C     0.88355   0.49913   0.11008   0.00000  Uiso   1.00
C387   C     0.73955   0.44180   0.45152   0.00000  Uiso   1.00
C388   C     0.94818   0.51067   0.03489   0.00000  Uiso   1.00
C389   C     0.74690   0.45791   0.40753   0.00000  Uiso   1.00
C390   C     0.93151   0.51253   0.08361   0.00000  Uiso   1.00
C391   C     0.81564   0.49744   0.41186   0.00000  Uiso   1.00
C392   C     0.85390   0.48324   0.08690   0.00000  Uiso   1.00
C393   C     0.81496   0.47405   0.45000   0.00000  Uiso   1.00
C394   C     0.87177   0.47920   0.03798   0.00000  Uiso   1.00
C395   C     0.77399   0.44866   0.47214   0.00000  Uiso   1.00
C396   C     0.91794   0.49612   0.01219   0.00000  Uiso   1.00
C397   C     0.85292   0.47626   0.46773   0.00000  Uiso   1.00
C398   C     0.84259   0.46317   0.01391   0.00000  Uiso   1.00
C399   C     0.80418   0.43412   0.03346   0.00000  Uiso   1.00
C400   C     0.90138   0.48913   0.44102   0.00000  Uiso   1.00
C401   C     0.76968   0.42805   0.01285   0.00000  Uiso   1.00
C402   C     0.93307   0.49919   0.46390   0.00000  Uiso   1.00
H403   H     0.74034   0.40595   0.02767   0.00000  Uiso   1.00
H404   H     0.96966   0.50985   0.44390   0.00000  Uiso   1.00
H405   H     0.70950   0.42060   0.46749   0.00000  Uiso   1.00
H406   H     0.98406   0.52272   0.01471   0.00000  Uiso   1.00
C407   C     0.85092   0.64637   0.28153   0.00000  Uiso   1.00
C408   C     0.81411   0.35349   0.22075   0.00000  Uiso   1.00
C409   C     0.85200   0.35601   0.27936   0.00000  Uiso   1.00
C410   C     0.81374   0.64396   0.22234   0.00000  Uiso   1.00
C411   C     0.83370   0.37587   0.24924   0.00000  Uiso   1.00
C412   C     0.83229   0.62407   0.25218   0.00000  Uiso   1.00
C413   C     0.98258   0.46648   0.23275   0.00000  Uiso   1.00
C414   C     0.68428   0.53372   0.26675   0.00000  Uiso   1.00
H415   H     0.96978   0.43966   0.21886   0.00000  Uiso   1.00
H416   H     0.69714   0.56059   0.28048   0.00000  Uiso   1.00
C417   C     0.69716   0.46650   0.23277   0.00000  Uiso   1.00
C418   C     0.96968   0.53369   0.26676   0.00000  Uiso   1.00
H419   H     0.72050   0.43974   0.21887   0.00000  Uiso   1.00
H420   H     0.94638   0.56051   0.28052   0.00000  Uiso   1.00
N421   N     0.71426   0.50001   0.25001   0.00000  Uiso   1.00
N422   N     0.95241   0.49999   0.24999   0.00000  Uiso   1.00
F423   F     0.80606   0.47549   0.11178   0.00000  Uiso   1.00
F424   F     0.84598   0.53066   0.39763   0.00000  Uiso   1.00
N425   N     0.96237   0.53126   0.10513   0.00000  Uiso   1.00
O426   O     0.94674   0.56315   0.13346   0.00000  Uiso   1.00
O427   O     0.67523   0.52195   0.08966   0.00000  Uiso   1.00
N428   N     0.71813   0.44156   0.38249   0.00000  Uiso   1.00
O429   O     0.73977   0.42261   0.34254   0.00000  Uiso   1.00
O430   O     0.67202   0.43438   0.40487   0.00000  Uiso   1.00
N431   N     0.80478   0.40545   0.06849   0.00000  Uiso   1.00
O432   O     0.84613   0.39042   0.06725   0.00000  Uiso   1.00
O433   O     0.76443   0.38846   0.09576   0.00000  Uiso   1.00
N434   N     0.92124   0.48633   0.39086   0.00000  Uiso   1.00
O435   O     0.90955   0.45528   0.36933   0.00000  Uiso   1.00
O436   O     0.95700   0.51051   0.36721   0.00000  Uiso   1.00
N437   N     0.86620   0.62595   0.31498   0.00000  Uiso   1.00
O438   O     0.83881   0.59753   0.34173   0.00000  Uiso   1.00
O439   O     0.90437   0.63903   0.32267   0.00000  Uiso   1.00
N440   N     0.79598   0.37377   0.18930   0.00000  Uiso   1.00
O441   O     0.82091   0.40339   0.16274   0.00000  Uiso   1.00
O442   O     0.75594   0.36092   0.18509   0.00000  Uiso   1.00
F443   F     0.86782   0.37862   0.30874   0.00000  Uiso   1.00
F444   F     0.79777   0.62152   0.19294   0.00000  Uiso   1.00
O445   O     0.12846   0.89442   0.25000   0.00000  Uiso   1.00
O446   O     0.20488   0.77225   0.25000   0.00000  Uiso   1.00
O447   O     0.20490   0.89441   0.25000   0.00000  Uiso   1.00
O448   O     0.12843   0.77226   0.25000   0.00000  Uiso   1.00
C449   C     0.16631   0.91327   0.25106   0.00000  Uiso   1.00
C450   C     0.16680   0.75337   0.24955   0.00000  Uiso   1.00
O451   O     0.10661   0.83334   0.31612   0.00000  Uiso   1.00
O452   O     0.22672   0.83333   0.18387   0.00000  Uiso   1.00
O453   O     0.18305   0.83333   0.31612   0.00000  Uiso   1.00
O454   O     0.15028   0.83334   0.18388   0.00000  Uiso   1.00
C455   C     0.13633   0.83136   0.33809   0.00000  Uiso   1.00
C456   C     0.19713   0.83375   0.16163   0.00000  Uiso   1.00
Zn457  Zn    0.11562   0.83334   0.25000   0.00000  Uiso   1.00
Zn458  Zn    0.21771   0.83333   0.25000   0.00000  Uiso   1.00
C459   C     0.11888   0.81983   0.38750   0.00000  Uiso   1.00
C460   C     0.21688   0.83246   0.11008   0.00000  Uiso   1.00
C461   C     0.07288   0.77513   0.45152   0.00000  Uiso   1.00
C462   C     0.28151   0.84400   0.03489   0.00000  Uiso   1.00
C463   C     0.08023   0.79125   0.40753   0.00000  Uiso   1.00
C464   C     0.26485   0.84587   0.08361   0.00000  Uiso   1.00
C465   C     0.14897   0.83077   0.41186   0.00000  Uiso   1.00
C466   C     0.18723   0.81657   0.08690   0.00000  Uiso   1.00
C467   C     0.14829   0.80738   0.45000   0.00000  Uiso   1.00
C468   C     0.20511   0.81253   0.03798   0.00000  Uiso   1.00
C469   C     0.10733   0.78199   0.47214   0.00000  Uiso   1.00
C470   C     0.25127   0.82945   0.01219   0.00000  Uiso   1.00
C471   C     0.18625   0.80959   0.46773   0.00000  Uiso   1.00
C472   C     0.17593   0.79650   0.01391   0.00000  Uiso   1.00
C473   C     0.13751   0.76745   0.03346   0.00000  Uiso   1.00
C474   C     0.23471   0.82246   0.44102   0.00000  Uiso   1.00
C475   C     0.10301   0.76138   0.01285   0.00000  Uiso   1.00
C476   C     0.26641   0.83252   0.46390   0.00000  Uiso   1.00
H477   H     0.07368   0.73928   0.02767   0.00000  Uiso   1.00
H478   H     0.30299   0.84318   0.44390   0.00000  Uiso   1.00
H479   H     0.04283   0.75393   0.46749   0.00000  Uiso   1.00
H480   H     0.31740   0.85605   0.01471   0.00000  Uiso   1.00
C481   C     0.18425   0.97970   0.28153   0.00000  Uiso   1.00
C482   C     0.14744   0.68683   0.22075   0.00000  Uiso   1.00
C483   C     0.18534   0.68934   0.27936   0.00000  Uiso   1.00
C484   C     0.14707   0.97729   0.22234   0.00000  Uiso   1.00
C485   C     0.16703   0.70920   0.24924   0.00000  Uiso   1.00
C486   C     0.16563   0.95740   0.25218   0.00000  Uiso   1.00
C487   C     0.31591   0.79981   0.23275   0.00000  Uiso   1.00
C488   C     0.01762   0.86705   0.26675   0.00000  Uiso   1.00
H489   H     0.30311   0.77300   0.21886   0.00000  Uiso   1.00
H490   H     0.03047   0.89392   0.28048   0.00000  Uiso   1.00
C491   C     0.03049   0.79983   0.23277   0.00000  Uiso   1.00
C492   C     0.30301   0.86702   0.26676   0.00000  Uiso   1.00
H493   H     0.05384   0.77308   0.21887   0.00000  Uiso   1.00
H494   H     0.27971   0.89385   0.28052   0.00000  Uiso   1.00
N495   N     0.04759   0.83334   0.25001   0.00000  Uiso   1.00
N496   N     0.28574   0.83332   0.24999   0.00000  Uiso   1.00
F497   F     0.13940   0.80882   0.11178   0.00000  Uiso   1.00
F498   F     0.17931   0.86399   0.39763   0.00000  Uiso   1.00
N499   N     0.29570   0.86460   0.10513   0.00000  Uiso   1.00
O500   O     0.28007   0.89648   0.13346   0.00000  Uiso   1.00
O501   O     0.00857   0.85528   0.08966   0.00000  Uiso   1.00
N502   N     0.05146   0.77489   0.38249   0.00000  Uiso   1.00
O503   O     0.07311   0.75594   0.34254   0.00000  Uiso   1.00
O504   O     0.00535   0.76772   0.40487   0.00000  Uiso   1.00
N505   N     0.13812   0.73878   0.06849   0.00000  Uiso   1.00
O506   O     0.17946   0.72375   0.06725   0.00000  Uiso   1.00
O507   O     0.09776   0.72179   0.09576   0.00000  Uiso   1.00
N508   N     0.25457   0.81966   0.39086   0.00000  Uiso   1.00
O509   O     0.24288   0.78861   0.36933   0.00000  Uiso   1.00
O510   O     0.29033   0.84384   0.36721   0.00000  Uiso   1.00
N511   N     0.19954   0.95928   0.31498   0.00000  Uiso   1.00
O512   O     0.17215   0.93087   0.34173   0.00000  Uiso   1.00
O513   O     0.23771   0.97236   0.32267   0.00000  Uiso   1.00
N514   N     0.12932   0.70711   0.18930   0.00000  Uiso   1.00
O515   O     0.15424   0.73672   0.16274   0.00000  Uiso   1.00
O516   O     0.08927   0.69426   0.18509   0.00000  Uiso   1.00
F517   F     0.20116   0.71195   0.30874   0.00000  Uiso   1.00
F518   F     0.13110   0.95485   0.19294   0.00000  Uiso   1.00
O519   O     0.46179   0.89442   0.25000   0.00000  Uiso   1.00
O520   O     0.53821   0.77225   0.25000   0.00000  Uiso   1.00
O521   O     0.53823   0.89441   0.25000   0.00000  Uiso   1.00
O522   O     0.46177   0.77226   0.25000   0.00000  Uiso   1.00
C523   C     0.49964   0.91327   0.25106   0.00000  Uiso   1.00
C524   C     0.50014   0.75337   0.24955   0.00000  Uiso   1.00
O525   O     0.43994   0.83334   0.31612   0.00000  Uiso   1.00
O526   O     0.56006   0.83333   0.18387   0.00000  Uiso   1.00
O527   O     0.51639   0.83333   0.31612   0.00000  Uiso   1.00
O528   O     0.48361   0.83334   0.18388   0.00000  Uiso   1.00
C529   C     0.46966   0.83136   0.33809   0.00000  Uiso   1.00
C530   C     0.53046   0.83375   0.16163   0.00000  Uiso   1.00
Zn531  Zn    0.44896   0.83334   0.25000   0.00000  Uiso   1.00
Zn532  Zn    0.55104   0.83333   0.25000   0.00000  Uiso   1.00
C533   C     0.45221   0.81983   0.38750   0.00000  Uiso   1.00
C534   C     0.55021   0.83246   0.11008   0.00000  Uiso   1.00
C535   C     0.40621   0.77513   0.45152   0.00000  Uiso   1.00
C536   C     0.61485   0.84400   0.03489   0.00000  Uiso   1.00
C537   C     0.41356   0.79125   0.40753   0.00000  Uiso   1.00
C538   C     0.59818   0.84587   0.08361   0.00000  Uiso   1.00
C539   C     0.48231   0.83077   0.41186   0.00000  Uiso   1.00
C540   C     0.52057   0.81657   0.08690   0.00000  Uiso   1.00
C541   C     0.48162   0.80738   0.45000   0.00000  Uiso   1.00
C542   C     0.53844   0.81253   0.03798   0.00000  Uiso   1.00
C543   C     0.44066   0.78199   0.47214   0.00000  Uiso   1.00
C544   C     0.58460   0.82945   0.01219   0.00000  Uiso   1.00
C545   C     0.51959   0.80959   0.46773   0.00000  Uiso   1.00
C546   C     0.50926   0.79650   0.01391   0.00000  Uiso   1.00
C547   C     0.47084   0.76745   0.03346   0.00000  Uiso   1.00
C548   C     0.56805   0.82246   0.44102   0.00000  Uiso   1.00
C549   C     0.43634   0.76138   0.01285   0.00000  Uiso   1.00
C550   C     0.59974   0.83252   0.46390   0.00000  Uiso   1.00
H551   H     0.40701   0.73928   0.02767   0.00000  Uiso   1.00
H552   H     0.63632   0.84318   0.44390   0.00000  Uiso   1.00
H553   H     0.37617   0.75393   0.46749   0.00000  Uiso   1.00
H554   H     0.65073   0.85605   0.01471   0.00000  Uiso   1.00
C555   C     0.51758   0.97970   0.28153   0.00000  Uiso   1.00
C556   C     0.48078   0.68683   0.22075   0.00000  Uiso   1.00
C557   C     0.51867   0.68934   0.27936   0.00000  Uiso   1.00
C558   C     0.48041   0.97729   0.22234   0.00000  Uiso   1.00
C559   C     0.50037   0.70920   0.24924   0.00000  Uiso   1.00
C560   C     0.49896   0.95740   0.25218   0.00000  Uiso   1.00
C561   C     0.64925   0.79981   0.23275   0.00000  Uiso   1.00
C562   C     0.35095   0.86705   0.26675   0.00000  Uiso   1.00
H563   H     0.63645   0.77300   0.21886   0.00000  Uiso   1.00
H564   H     0.36381   0.89392   0.28048   0.00000  Uiso   1.00
C565   C     0.36383   0.79983   0.23277   0.00000  Uiso   1.00
C566   C     0.63634   0.86702   0.26676   0.00000  Uiso   1.00
H567   H     0.38717   0.77308   0.21887   0.00000  Uiso   1.00
H568   H     0.61305   0.89385   0.28052   0.00000  Uiso   1.00
N569   N     0.38093   0.83334   0.25001   0.00000  Uiso   1.00
N570   N     0.61907   0.83332   0.24999   0.00000  Uiso   1.00
F571   F     0.47273   0.80882   0.11178   0.00000  Uiso   1.00
F572   F     0.51264   0.86399   0.39763   0.00000  Uiso   1.00
N573   N     0.62903   0.86460   0.10513   0.00000  Uiso   1.00
O574   O     0.61341   0.89648   0.13346   0.00000  Uiso   1.00
O575   O     0.34190   0.85528   0.08966   0.00000  Uiso   1.00
N576   N     0.38480   0.77489   0.38249   0.00000  Uiso   1.00
O577   O     0.40644   0.75594   0.34254   0.00000  Uiso   1.00
O578   O     0.33869   0.76772   0.40487   0.00000  Uiso   1.00
N579   N     0.47145   0.73878   0.06849   0.00000  Uiso   1.00
O580   O     0.51280   0.72375   0.06725   0.00000  Uiso   1.00
O581   O     0.43110   0.72179   0.09576   0.00000  Uiso   1.00
N582   N     0.58791   0.81966   0.39086   0.00000  Uiso   1.00
O583   O     0.57622   0.78861   0.36933   0.00000  Uiso   1.00
O584   O     0.62366   0.84384   0.36721   0.00000  Uiso   1.00
N585   N     0.53287   0.95928   0.31498   0.00000  Uiso   1.00
O586   O     0.50548   0.93087   0.34173   0.00000  Uiso   1.00
O587   O     0.57104   0.97236   0.32267   0.00000  Uiso   1.00
N588   N     0.46265   0.70711   0.18930   0.00000  Uiso   1.00
O589   O     0.48757   0.73672   0.16274   0.00000  Uiso   1.00
O590   O     0.42260   0.69426   0.18509   0.00000  Uiso   1.00
F591   F     0.53449   0.71195   0.30874   0.00000  Uiso   1.00
F592   F     0.46443   0.95485   0.19294   0.00000  Uiso   1.00
O593   O     0.79512   0.89442   0.25000   0.00000  Uiso   1.00
O594   O     0.87154   0.77225   0.25000   0.00000  Uiso   1.00
O595   O     0.87157   0.89441   0.25000   0.00000  Uiso   1.00
O596   O     0.79510   0.77226   0.25000   0.00000  Uiso   1.00
C597   C     0.83298   0.91327   0.25106   0.00000  Uiso   1.00
C598   C     0.83347   0.75337   0.24955   0.00000  Uiso   1.00
O599   O     0.77328   0.83334   0.31612   0.00000  Uiso   1.00
O600   O     0.89339   0.83333   0.18387   0.00000  Uiso   1.00
O601   O     0.84972   0.83333   0.31612   0.00000  Uiso   1.00
O602   O     0.81695   0.83334   0.18388   0.00000  Uiso   1.00
C603   C     0.80300   0.83136   0.33809   0.00000  Uiso   1.00
C604   C     0.86379   0.83375   0.16163   0.00000  Uiso   1.00
Zn605  Zn    0.78229   0.83334   0.25000   0.00000  Uiso   1.00
Zn606  Zn    0.88438   0.83333   0.25000   0.00000  Uiso   1.00
C607   C     0.78555   0.81983   0.38750   0.00000  Uiso   1.00
C608   C     0.88355   0.83246   0.11008   0.00000  Uiso   1.00
C609   C     0.73955   0.77513   0.45152   0.00000  Uiso   1.00
C610   C     0.94818   0.84400   0.03489   0.00000  Uiso   1.00
C611   C     0.74690   0.79125   0.40753   0.00000  Uiso   1.00
C612   C     0.93151   0.84587   0.08361   0.00000  Uiso   1.00
C613   C     0.81564   0.83077   0.41186   0.00000  Uiso   1.00
C614   C     0.85390   0.81657   0.08690   0.00000  Uiso   1.00
C615   C     0.81496   0.80738   0.45000   0.00000  Uiso   1.00
C616   C     0.87177   0.81253   0.03798   0.00000  Uiso   1.00
C617   C     0.77399   0.78199   0.47214   0.00000  Uiso   1.00
C618   C     0.91794   0.82945   0.01219   0.00000  Uiso   1.00
C619   C     0.85292   0.80959   0.46773   0.00000  Uiso   1.00
C620   C     0.84259   0.79650   0.01391   0.00000  Uiso   1.00
C621   C     0.80418   0.76745   0.03346   0.00000  Uiso   1.00
C622   C     0.90138   0.82246   0.44102   0.00000  Uiso   1.00
C623   C     0.76968   0.76138   0.01285   0.00000  Uiso   1.00
C624   C     0.93307   0.83252   0.46390   0.00000  Uiso   1.00
H625   H     0.74034   0.73928   0.02767   0.00000  Uiso   1.00
H626   H     0.96966   0.84318   0.44390   0.00000  Uiso   1.00
H627   H     0.70950   0.75393   0.46749   0.00000  Uiso   1.00
H628   H     0.98406   0.85605   0.01471   0.00000  Uiso   1.00
C629   C     0.85092   0.97970   0.28153   0.00000  Uiso   1.00
C630   C     0.81411   0.68683   0.22075   0.00000  Uiso   1.00
C631   C     0.85200   0.68934   0.27936   0.00000  Uiso   1.00
C632   C     0.81374   0.97729   0.22234   0.00000  Uiso   1.00
C633   C     0.83370   0.70920   0.24924   0.00000  Uiso   1.00
C634   C     0.83229   0.95740   0.25218   0.00000  Uiso   1.00
C635   C     0.98258   0.79981   0.23275   0.00000  Uiso   1.00
C636   C     0.68428   0.86705   0.26675   0.00000  Uiso   1.00
H637   H     0.96978   0.77300   0.21886   0.00000  Uiso   1.00
H638   H     0.69714   0.89392   0.28048   0.00000  Uiso   1.00
C639   C     0.69716   0.79983   0.23277   0.00000  Uiso   1.00
C640   C     0.96968   0.86702   0.26676   0.00000  Uiso   1.00
H641   H     0.72050   0.77308   0.21887   0.00000  Uiso   1.00
H642   H     0.94638   0.89385   0.28052   0.00000  Uiso   1.00
N643   N     0.71426   0.83334   0.25001   0.00000  Uiso   1.00
N644   N     0.95241   0.83332   0.24999   0.00000  Uiso   1.00
F645   F     0.80606   0.80882   0.11178   0.00000  Uiso   1.00
F646   F     0.84598   0.86399   0.39763   0.00000  Uiso   1.00
N647   N     0.96237   0.86460   0.10513   0.00000  Uiso   1.00
O648   O     0.94674   0.89648   0.13346   0.00000  Uiso   1.00
O649   O     0.67523   0.85528   0.08966   0.00000  Uiso   1.00
N650   N     0.71813   0.77489   0.38249   0.00000  Uiso   1.00
O651   O     0.73977   0.75594   0.34254   0.00000  Uiso   1.00
O652   O     0.67202   0.76772   0.40487   0.00000  Uiso   1.00
N653   N     0.80478   0.73878   0.06849   0.00000  Uiso   1.00
O654   O     0.84613   0.72375   0.06725   0.00000  Uiso   1.00
O655   O     0.76443   0.72179   0.09576   0.00000  Uiso   1.00
N656   N     0.92124   0.81966   0.39086   0.00000  Uiso   1.00
O657   O     0.90955   0.78861   0.36933   0.00000  Uiso   1.00
O658   O     0.95700   0.84384   0.36721   0.00000  Uiso   1.00
N659   N     0.86620   0.95928   0.31498   0.00000  Uiso   1.00
O660   O     0.83881   0.93087   0.34173   0.00000  Uiso   1.00
O661   O     0.90437   0.97236   0.32267   0.00000  Uiso   1.00
N662   N     0.79598   0.70711   0.18930   0.00000  Uiso   1.00
O663   O     0.82091   0.73672   0.16274   0.00000  Uiso   1.00
O664   O     0.75594   0.69426   0.18509   0.00000  Uiso   1.00
F665   F     0.86782   0.71195   0.30874   0.00000  Uiso   1.00
F666   F     0.79777   0.95485   0.19294   0.00000  Uiso   1.00
O667   O     0.12846   0.22775   0.75000   0.00000  Uiso   1.00
O668   O     0.20488   0.10558   0.75000   0.00000  Uiso   1.00
O669   O     0.20490   0.22774   0.75000   0.00000  Uiso   1.00
O670   O     0.12843   0.10559   0.75000   0.00000  Uiso   1.00
C671   C     0.16631   0.24661   0.75106   0.00000  Uiso   1.00
C672   C     0.16680   0.08670   0.74955   0.00000  Uiso   1.00
O673   O     0.10661   0.16667   0.81612   0.00000  Uiso   1.00
O674   O     0.22672   0.16666   0.68387   0.00000  Uiso   1.00
O675   O     0.18305   0.16666   0.81612   0.00000  Uiso   1.00
O676   O     0.15028   0.16667   0.68388   0.00000  Uiso   1.00
C677   C     0.13633   0.16469   0.83809   0.00000  Uiso   1.00
C678   C     0.19713   0.16708   0.66163   0.00000  Uiso   1.00
Zn679  Zn    0.11562   0.16667   0.75000   0.00000  Uiso   1.00
Zn680  Zn    0.21771   0.16666   0.75000   0.00000  Uiso   1.00
C681   C     0.11888   0.15317   0.88750   0.00000  Uiso   1.00
C682   C     0.21688   0.16580   0.61008   0.00000  Uiso   1.00
C683   C     0.07288   0.10846   0.95152   0.00000  Uiso   1.00
C684   C     0.28151   0.17734   0.53489   0.00000  Uiso   1.00
C685   C     0.08023   0.12458   0.90753   0.00000  Uiso   1.00
C686   C     0.26485   0.17920   0.58361   0.00000  Uiso   1.00
C687   C     0.14897   0.16411   0.91186   0.00000  Uiso   1.00
C688   C     0.18723   0.14991   0.58690   0.00000  Uiso   1.00
C689   C     0.14829   0.14072   0.95000   0.00000  Uiso   1.00
C690   C     0.20511   0.14586   0.53798   0.00000  Uiso   1.00
C691   C     0.10733   0.11532   0.97214   0.00000  Uiso   1.00
C692   C     0.25127   0.16279   0.51219   0.00000  Uiso   1.00
C693   C     0.18625   0.14293   0.96773   0.00000  Uiso   1.00
C694   C     0.17593   0.12983   0.51391   0.00000  Uiso   1.00
C695   C     0.13751   0.10079   0.53346   0.00000  Uiso   1.00
C696   C     0.23471   0.15579   0.94102   0.00000  Uiso   1.00
C697   C     0.10301   0.09472   0.51285   0.00000  Uiso   1.00
C698   C     0.26641   0.16585   0.96390   0.00000  Uiso   1.00
H699   H     0.07368   0.07262   0.52767   0.00000  Uiso   1.00
H700   H     0.30299   0.17651   0.94390   0.00000  Uiso   1.00
H701   H     0.04283   0.08726   0.96749   0.00000  Uiso   1.00
H702   H     0.31740   0.18938   0.51471   0.00000  Uiso   1.00
C703   C     0.18425   0.31304   0.78153   0.00000  Uiso   1.00
C704   C     0.14744   0.02016   0.72075   0.00000  Uiso   1.00
C705   C     0.18534   0.02268   0.77936   0.00000  Uiso   1.00
C706   C     0.14707   0.31062   0.72234   0.00000  Uiso   1.00
C707   C     0.16703   0.04253   0.74924   0.00000  Uiso   1.00
C708   C     0.16563   0.29073   0.75218   0.00000  Uiso   1.00
C709   C     0.31591   0.13314   0.73275   0.00000  Uiso   1.00
C710   C     0.01762   0.20038   0.76675   0.00000  Uiso   1.00
H711   H     0.30311   0.10633   0.71886   0.00000  Uiso   1.00
H712   H     0.03047   0.22726   0.78048   0.00000  Uiso   1.00
C713   C     0.03049   0.13316   0.73277   0.00000  Uiso   1.00
C714   C     0.30301   0.20036   0.76676   0.00000  Uiso   1.00
H715   H     0.05384   0.10641   0.71887   0.00000  Uiso   1.00
H716   H     0.27971   0.22718   0.78052   0.00000  Uiso   1.00
N717   N     0.04759   0.16668   0.75001   0.00000  Uiso   1.00
N718   N     0.28574   0.16666   0.74999   0.00000  Uiso   1.00
F719   F     0.13940   0.14215   0.61178   0.00000  Uiso   1.00
F720   F     0.17931   0.19733   0.89763   0.00000  Uiso   1.00
N721   N     0.29570   0.19793   0.60513   0.00000  Uiso   1.00
O722   O     0.28007   0.22981   0.63346   0.00000  Uiso   1.00
O723   O     0.00857   0.18861   0.58966   0.00000  Uiso   1.00
N724   N     0.05146   0.10822   0.88249   0.00000  Uiso   1.00
O725   O     0.07311   0.08927   0.84254   0.00000  Uiso   1.00
O726   O     0.00535   0.10105   0.90487   0.00000  Uiso   1.00
N727   N     0.13812   0.07212   0.56849   0.00000  Uiso   1.00
O728   O     0.17946   0.05708   0.56725   0.00000  Uiso   1.00
O729   O     0.09776   0.05513   0.59576   0.00000  Uiso   1.00
N730   N     0.25457   0.15300   0.89086   0.00000  Uiso   1.00
O731   O     0.24288   0.12195   0.86933   0.00000  Uiso   1.00
O732   O     0.29033   0.17717   0.86721   0.00000  Uiso   1.00
N733   N     0.19954   0.29262   0.81498   0.00000  Uiso   1.00
O734   O     0.17215   0.26420   0.84173   0.00000  Uiso   1.00
O735   O     0.23771   0.30570   0.82267   0.00000  Uiso   1.00
N736   N     0.12932   0.04044   0.68930   0.00000  Uiso   1.00
O737   O     0.15424   0.07005   0.66274   0.00000  Uiso   1.00
O738   O     0.08927   0.02759   0.68509   0.00000  Uiso   1.00
F739   F     0.20116   0.04529   0.80874   0.00000  Uiso   1.00
F740   F     0.13110   0.28819   0.69294   0.00000  Uiso   1.00
O741   O     0.46179   0.22775   0.75000   0.00000  Uiso   1.00
O742   O     0.53821   0.10558   0.75000   0.00000  Uiso   1.00
O743   O     0.53823   0.22774   0.75000   0.00000  Uiso   1.00
O744   O     0.46177   0.10559   0.75000   0.00000  Uiso   1.00
C745   C     0.49964   0.24661   0.75106   0.00000  Uiso   1.00
C746   C     0.50014   0.08670   0.74955   0.00000  Uiso   1.00
O747   O     0.43994   0.16667   0.81612   0.00000  Uiso   1.00
O748   O     0.56006   0.16666   0.68387   0.00000  Uiso   1.00
O749   O     0.51639   0.16666   0.81612   0.00000  Uiso   1.00
O750   O     0.48361   0.16667   0.68388   0.00000  Uiso   1.00
C751   C     0.46966   0.16469   0.83809   0.00000  Uiso   1.00
C752   C     0.53046   0.16708   0.66163   0.00000  Uiso   1.00
Zn753  Zn    0.44896   0.16667   0.75000   0.00000  Uiso   1.00
Zn754  Zn    0.55104   0.16666   0.75000   0.00000  Uiso   1.00
C755   C     0.45221   0.15317   0.88750   0.00000  Uiso   1.00
C756   C     0.55021   0.16580   0.61008   0.00000  Uiso   1.00
C757   C     0.40621   0.10846   0.95152   0.00000  Uiso   1.00
C758   C     0.61485   0.17734   0.53489   0.00000  Uiso   1.00
C759   C     0.41356   0.12458   0.90753   0.00000  Uiso   1.00
C760   C     0.59818   0.17920   0.58361   0.00000  Uiso   1.00
C761   C     0.48231   0.16411   0.91186   0.00000  Uiso   1.00
C762   C     0.52057   0.14991   0.58690   0.00000  Uiso   1.00
C763   C     0.48162   0.14072   0.95000   0.00000  Uiso   1.00
C764   C     0.53844   0.14586   0.53798   0.00000  Uiso   1.00
C765   C     0.44066   0.11532   0.97214   0.00000  Uiso   1.00
C766   C     0.58460   0.16279   0.51219   0.00000  Uiso   1.00
C767   C     0.51959   0.14293   0.96773   0.00000  Uiso   1.00
C768   C     0.50926   0.12983   0.51391   0.00000  Uiso   1.00
C769   C     0.47084   0.10079   0.53346   0.00000  Uiso   1.00
C770   C     0.56805   0.15579   0.94102   0.00000  Uiso   1.00
C771   C     0.43634   0.09472   0.51285   0.00000  Uiso   1.00
C772   C     0.59974   0.16585   0.96390   0.00000  Uiso   1.00
H773   H     0.40701   0.07262   0.52767   0.00000  Uiso   1.00
H774   H     0.63632   0.17651   0.94390   0.00000  Uiso   1.00
H775   H     0.37617   0.08726   0.96749   0.00000  Uiso   1.00
H776   H     0.65073   0.18938   0.51471   0.00000  Uiso   1.00
C777   C     0.51758   0.31304   0.78153   0.00000  Uiso   1.00
C778   C     0.48078   0.02016   0.72075   0.00000  Uiso   1.00
C779   C     0.51867   0.02268   0.77936   0.00000  Uiso   1.00
C780   C     0.48041   0.31062   0.72234   0.00000  Uiso   1.00
C781   C     0.50037   0.04253   0.74924   0.00000  Uiso   1.00
C782   C     0.49896   0.29073   0.75218   0.00000  Uiso   1.00
C783   C     0.64925   0.13314   0.73275   0.00000  Uiso   1.00
C784   C     0.35095   0.20038   0.76675   0.00000  Uiso   1.00
H785   H     0.63645   0.10633   0.71886   0.00000  Uiso   1.00
H786   H     0.36381   0.22726   0.78048   0.00000  Uiso   1.00
C787   C     0.36383   0.13316   0.73277   0.00000  Uiso   1.00
C788   C     0.63634   0.20036   0.76676   0.00000  Uiso   1.00
H789   H     0.38717   0.10641   0.71887   0.00000  Uiso   1.00
H790   H     0.61305   0.22718   0.78052   0.00000  Uiso   1.00
N791   N     0.38093   0.16668   0.75001   0.00000  Uiso   1.00
N792   N     0.61907   0.16666   0.74999   0.00000  Uiso   1.00
F793   F     0.47273   0.14215   0.61178   0.00000  Uiso   1.00
F794   F     0.51264   0.19733   0.89763   0.00000  Uiso   1.00
N795   N     0.62903   0.19793   0.60513   0.00000  Uiso   1.00
O796   O     0.61341   0.22981   0.63346   0.00000  Uiso   1.00
O797   O     0.34190   0.18861   0.58966   0.00000  Uiso   1.00
N798   N     0.38480   0.10822   0.88249   0.00000  Uiso   1.00
O799   O     0.40644   0.08927   0.84254   0.00000  Uiso   1.00
O800   O     0.33869   0.10105   0.90487   0.00000  Uiso   1.00
N801   N     0.47145   0.07212   0.56849   0.00000  Uiso   1.00
O802   O     0.51280   0.05708   0.56725   0.00000  Uiso   1.00
O803   O     0.43110   0.05513   0.59576   0.00000  Uiso   1.00
N804   N     0.58791   0.15300   0.89086   0.00000  Uiso   1.00
O805   O     0.57622   0.12195   0.86933   0.00000  Uiso   1.00
O806   O     0.62366   0.17717   0.86721   0.00000  Uiso   1.00
N807   N     0.53287   0.29262   0.81498   0.00000  Uiso   1.00
O808   O     0.50548   0.26420   0.84173   0.00000  Uiso   1.00
O809   O     0.57104   0.30570   0.82267   0.00000  Uiso   1.00
N810   N     0.46265   0.04044   0.68930   0.00000  Uiso   1.00
O811   O     0.48757   0.07005   0.66274   0.00000  Uiso   1.00
O812   O     0.42260   0.02759   0.68509   0.00000  Uiso   1.00
F813   F     0.53449   0.04529   0.80874   0.00000  Uiso   1.00
F814   F     0.46443   0.28819   0.69294   0.00000  Uiso   1.00
O815   O     0.79512   0.22775   0.75000   0.00000  Uiso   1.00
O816   O     0.87154   0.10558   0.75000   0.00000  Uiso   1.00
O817   O     0.87157   0.22774   0.75000   0.00000  Uiso   1.00
O818   O     0.79510   0.10559   0.75000   0.00000  Uiso   1.00
C819   C     0.83298   0.24661   0.75106   0.00000  Uiso   1.00
C820   C     0.83347   0.08670   0.74955   0.00000  Uiso   1.00
O821   O     0.77328   0.16667   0.81612   0.00000  Uiso   1.00
O822   O     0.89339   0.16666   0.68387   0.00000  Uiso   1.00
O823   O     0.84972   0.16666   0.81612   0.00000  Uiso   1.00
O824   O     0.81695   0.16667   0.68388   0.00000  Uiso   1.00
C825   C     0.80300   0.16469   0.83809   0.00000  Uiso   1.00
C826   C     0.86379   0.16708   0.66163   0.00000  Uiso   1.00
Zn827  Zn    0.78229   0.16667   0.75000   0.00000  Uiso   1.00
Zn828  Zn    0.88438   0.16666   0.75000   0.00000  Uiso   1.00
C829   C     0.78555   0.15317   0.88750   0.00000  Uiso   1.00
C830   C     0.88355   0.16580   0.61008   0.00000  Uiso   1.00
C831   C     0.73955   0.10846   0.95152   0.00000  Uiso   1.00
C832   C     0.94818   0.17734   0.53489   0.00000  Uiso   1.00
C833   C     0.74690   0.12458   0.90753   0.00000  Uiso   1.00
C834   C     0.93151   0.17920   0.58361   0.00000  Uiso   1.00
C835   C     0.81564   0.16411   0.91186   0.00000  Uiso   1.00
C836   C     0.85390   0.14991   0.58690   0.00000  Uiso   1.00
C837   C     0.81496   0.14072   0.95000   0.00000  Uiso   1.00
C838   C     0.87177   0.14586   0.53798   0.00000  Uiso   1.00
C839   C     0.77399   0.11532   0.97214   0.00000  Uiso   1.00
C840   C     0.91794   0.16279   0.51219   0.00000  Uiso   1.00
C841   C     0.85292   0.14293   0.96773   0.00000  Uiso   1.00
C842   C     0.84259   0.12983   0.51391   0.00000  Uiso   1.00
C843   C     0.80418   0.10079   0.53346   0.00000  Uiso   1.00
C844   C     0.90138   0.15579   0.94102   0.00000  Uiso   1.00
C845   C     0.76968   0.09472   0.51285   0.00000  Uiso   1.00
C846   C     0.93307   0.16585   0.96390   0.00000  Uiso   1.00
H847   H     0.74034   0.07262   0.52767   0.00000  Uiso   1.00
H848   H     0.96966   0.17651   0.94390   0.00000  Uiso   1.00
H849   H     0.70950   0.08726   0.96749   0.00000  Uiso   1.00
H850   H     0.98406   0.18938   0.51471   0.00000  Uiso   1.00
C851   C     0.85092   0.31304   0.78153   0.00000  Uiso   1.00
C852   C     0.81411   0.02016   0.72075   0.00000  Uiso   1.00
C853   C     0.85200   0.02268   0.77936   0.00000  Uiso   1.00
C854   C     0.81374   0.31062   0.72234   0.00000  Uiso   1.00
C855   C     0.83370   0.04253   0.74924   0.00000  Uiso   1.00
C856   C     0.83229   0.29073   0.75218   0.00000  Uiso   1.00
C857   C     0.98258   0.13314   0.73275   0.00000  Uiso   1.00
C858   C     0.68428   0.20038   0.76675   0.00000  Uiso   1.00
H859   H     0.96978   0.10633   0.71886   0.00000  Uiso   1.00
H860   H     0.69714   0.22726   0.78048   0.00000  Uiso   1.00
C861   C     0.69716   0.13316   0.73277   0.00000  Uiso   1.00
C862   C     0.96968   0.20036   0.76676   0.00000  Uiso   1.00
H863   H     0.72050   0.10641   0.71887   0.00000  Uiso   1.00
H864   H     0.94638   0.22718   0.78052   0.00000  Uiso   1.00
N865   N     0.71426   0.16668   0.75001   0.00000  Uiso   1.00
N866   N     0.95241   0.16666   0.74999   0.00000  Uiso   1.00
F867   F     0.80606   0.14215   0.61178   0.00000  Uiso   1.00
F868   F     0.84598   0.19733   0.89763   0.00000  Uiso   1.00
N869   N     0.96237   0.19793   0.60513   0.00000  Uiso   1.00
O870   O     0.94674   0.22981   0.63346   0.00000  Uiso   1.00
O871   O     0.67523   0.18861   0.58966   0.00000  Uiso   1.00
N872   N     0.71813   0.10822   0.88249   0.00000  Uiso   1.00
O873   O     0.73977   0.08927   0.84254   0.00000  Uiso   1.00
O874   O     0.67202   0.10105   0.90487   0.00000  Uiso   1.00
N875   N     0.80478   0.07212   0.56849   0.00000  Uiso   1.00
O876   O     0.84613   0.05708   0.56725   0.00000  Uiso   1.00
O877   O     0.76443   0.05513   0.59576   0.00000  Uiso   1.00
N878   N     0.92124   0.15300   0.89086   0.00000  Uiso   1.00
O879   O     0.90955   0.12195   0.86933   0.00000  Uiso   1.00
O880   O     0.95700   0.17717   0.86721   0.00000  Uiso   1.00
N881   N     0.86620   0.29262   0.81498   0.00000  Uiso   1.00
O882   O     0.83881   0.26420   0.84173   0.00000  Uiso   1.00
O883   O     0.90437   0.30570   0.82267   0.00000  Uiso   1.00
N884   N     0.79598   0.04044   0.68930   0.00000  Uiso   1.00
O885   O     0.82091   0.07005   0.66274   0.00000  Uiso   1.00
O886   O     0.75594   0.02759   0.68509   0.00000  Uiso   1.00
F887   F     0.86782   0.04529   0.80874   0.00000  Uiso   1.00
F888   F     0.79777   0.28819   0.69294   0.00000  Uiso   1.00
O889   O     0.12846   0.56108   0.75000   0.00000  Uiso   1.00
O890   O     0.20488   0.43892   0.75000   0.00000  Uiso   1.00
O891   O     0.20490   0.56107   0.75000   0.00000  Uiso   1.00
O892   O     0.12843   0.43893   0.75000   0.00000  Uiso   1.00
C893   C     0.16631   0.57994   0.75106   0.00000  Uiso   1.00
C894   C     0.16680   0.42003   0.74955   0.00000  Uiso   1.00
O895   O     0.10661   0.50001   0.81612   0.00000  Uiso   1.00
O896   O     0.22672   0.49999   0.68387   0.00000  Uiso   1.00
O897   O     0.18305   0.50000   0.81612   0.00000  Uiso   1.00
O898   O     0.15028   0.50000   0.68388   0.00000  Uiso   1.00
C899   C     0.13633   0.49803   0.83809   0.00000  Uiso   1.00
C900   C     0.19713   0.50042   0.66163   0.00000  Uiso   1.00
Zn901  Zn    0.11562   0.50001   0.75000   0.00000  Uiso   1.00
Zn902  Zn    0.21771   0.49999   0.75000   0.00000  Uiso   1.00
C903   C     0.11888   0.48650   0.88750   0.00000  Uiso   1.00
C904   C     0.21688   0.49913   0.61008   0.00000  Uiso   1.00
C905   C     0.07288   0.44180   0.95152   0.00000  Uiso   1.00
C906   C     0.28151   0.51067   0.53489   0.00000  Uiso   1.00
C907   C     0.08023   0.45791   0.90753   0.00000  Uiso   1.00
C908   C     0.26485   0.51253   0.58361   0.00000  Uiso   1.00
C909   C     0.14897   0.49744   0.91186   0.00000  Uiso   1.00
C910   C     0.18723   0.48324   0.58690   0.00000  Uiso   1.00
C911   C     0.14829   0.47405   0.95000   0.00000  Uiso   1.00
C912   C     0.20511   0.47920   0.53798   0.00000  Uiso   1.00
C913   C     0.10733   0.44866   0.97214   0.00000  Uiso   1.00
C914   C     0.25127   0.49612   0.51219   0.00000  Uiso   1.00
C915   C     0.18625   0.47626   0.96773   0.00000  Uiso   1.00
C916   C     0.17593   0.46317   0.51391   0.00000  Uiso   1.00
C917   C     0.13751   0.43412   0.53346   0.00000  Uiso   1.00
C918   C     0.23471   0.48913   0.94102   0.00000  Uiso   1.00
C919   C     0.10301   0.42805   0.51285   0.00000  Uiso   1.00
C920   C     0.26641   0.49919   0.96390   0.00000  Uiso   1.00
H921   H     0.07368   0.40595   0.52767   0.00000  Uiso   1.00
H922   H     0.30299   0.50985   0.94390   0.00000  Uiso   1.00
H923   H     0.04283   0.42060   0.96749   0.00000  Uiso   1.00
H924   H     0.31740   0.52272   0.51471   0.00000  Uiso   1.00
C925   C     0.18425   0.64637   0.78153   0.00000  Uiso   1.00
C926   C     0.14744   0.35349   0.72075   0.00000  Uiso   1.00
C927   C     0.18534   0.35601   0.77936   0.00000  Uiso   1.00
C928   C     0.14707   0.64396   0.72234   0.00000  Uiso   1.00
C929   C     0.16703   0.37587   0.74924   0.00000  Uiso   1.00
C930   C     0.16563   0.62407   0.75218   0.00000  Uiso   1.00
C931   C     0.31591   0.46648   0.73275   0.00000  Uiso   1.00
C932   C     0.01762   0.53372   0.76675   0.00000  Uiso   1.00
H933   H     0.30311   0.43966   0.71886   0.00000  Uiso   1.00
H934   H     0.03047   0.56059   0.78048   0.00000  Uiso   1.00
C935   C     0.03049   0.46650   0.73277   0.00000  Uiso   1.00
C936   C     0.30301   0.53369   0.76676   0.00000  Uiso   1.00
H937   H     0.05384   0.43974   0.71887   0.00000  Uiso   1.00
H938   H     0.27971   0.56051   0.78052   0.00000  Uiso   1.00
N939   N     0.04759   0.50001   0.75001   0.00000  Uiso   1.00
N940   N     0.28574   0.49999   0.74999   0.00000  Uiso   1.00
F941   F     0.13940   0.47549   0.61178   0.00000  Uiso   1.00
F942   F     0.17931   0.53066   0.89763   0.00000  Uiso   1.00
N943   N     0.29570   0.53126   0.60513   0.00000  Uiso   1.00
O944   O     0.28007   0.56315   0.63346   0.00000  Uiso   1.00
O945   O     0.00857   0.52195   0.58966   0.00000  Uiso   1.00
N946   N     0.05146   0.44156   0.88249   0.00000  Uiso   1.00
O947   O     0.07311   0.42261   0.84254   0.00000  Uiso   1.00
O948   O     0.00535   0.43438   0.90487   0.00000  Uiso   1.00
N949   N     0.13812   0.40545   0.56849   0.00000  Uiso   1.00
O950   O     0.17946   0.39042   0.56725   0.00000  Uiso   1.00
O951   O     0.09776   0.38846   0.59576   0.00000  Uiso   1.00
N952   N     0.25457   0.48633   0.89086   0.00000  Uiso   1.00
O953   O     0.24288   0.45528   0.86933   0.00000  Uiso   1.00
O954   O     0.29033   0.51051   0.86721   0.00000  Uiso   1.00
N955   N     0.19954   0.62595   0.81498   0.00000  Uiso   1.00
O956   O     0.17215   0.59753   0.84173   0.00000  Uiso   1.00
O957   O     0.23771   0.63903   0.82267   0.00000  Uiso   1.00
N958   N     0.12932   0.37377   0.68930   0.00000  Uiso   1.00
O959   O     0.15424   0.40339   0.66274   0.00000  Uiso   1.00
O960   O     0.08927   0.36092   0.68509   0.00000  Uiso   1.00
F961   F     0.20116   0.37862   0.80874   0.00000  Uiso   1.00
F962   F     0.13110   0.62152   0.69294   0.00000  Uiso   1.00
O963   O     0.46179   0.56108   0.75000   0.00000  Uiso   1.00
O964   O     0.53821   0.43892   0.75000   0.00000  Uiso   1.00
O965   O     0.53823   0.56107   0.75000   0.00000  Uiso   1.00
O966   O     0.46177   0.43893   0.75000   0.00000  Uiso   1.00
C967   C     0.49964   0.57994   0.75106   0.00000  Uiso   1.00
C968   C     0.50014   0.42003   0.74955   0.00000  Uiso   1.00
O969   O     0.43994   0.50001   0.81612   0.00000  Uiso   1.00
O970   O     0.56006   0.49999   0.68387   0.00000  Uiso   1.00
O971   O     0.51639   0.50000   0.81612   0.00000  Uiso   1.00
O972   O     0.48361   0.50000   0.68388   0.00000  Uiso   1.00
C973   C     0.46966   0.49803   0.83809   0.00000  Uiso   1.00
C974   C     0.53046   0.50042   0.66163   0.00000  Uiso   1.00
Zn975  Zn    0.44896   0.50001   0.75000   0.00000  Uiso   1.00
Zn976  Zn    0.55104   0.49999   0.75000   0.00000  Uiso   1.00
C977   C     0.45221   0.48650   0.88750   0.00000  Uiso   1.00
C978   C     0.55021   0.49913   0.61008   0.00000  Uiso   1.00
C979   C     0.40621   0.44180   0.95152   0.00000  Uiso   1.00
C980   C     0.61485   0.51067   0.53489   0.00000  Uiso   1.00
C981   C     0.41356   0.45791   0.90753   0.00000  Uiso   1.00
C982   C     0.59818   0.51253   0.58361   0.00000  Uiso   1.00
C983   C     0.48231   0.49744   0.91186   0.00000  Uiso   1.00
C984   C     0.52057   0.48324   0.58690   0.00000  Uiso   1.00
C985   C     0.48162   0.47405   0.95000   0.00000  Uiso   1.00
C986   C     0.53844   0.47920   0.53798   0.00000  Uiso   1.00
C987   C     0.44066   0.44866   0.97214   0.00000  Uiso   1.00
C988   C     0.58460   0.49612   0.51219   0.00000  Uiso   1.00
C989   C     0.51959   0.47626   0.96773   0.00000  Uiso   1.00
C990   C     0.50926   0.46317   0.51391   0.00000  Uiso   1.00
C991   C     0.47084   0.43412   0.53346   0.00000  Uiso   1.00
C992   C     0.56805   0.48913   0.94102   0.00000  Uiso   1.00
C993   C     0.43634   0.42805   0.51285   0.00000  Uiso   1.00
C994   C     0.59974   0.49919   0.96390   0.00000  Uiso   1.00
H995   H     0.40701   0.40595   0.52767   0.00000  Uiso   1.00
H996   H     0.63632   0.50985   0.94390   0.00000  Uiso   1.00
H997   H     0.37617   0.42060   0.96749   0.00000  Uiso   1.00
H998   H     0.65073   0.52272   0.51471   0.00000  Uiso   1.00
C999   C     0.51758   0.64637   0.78153   0.00000  Uiso   1.00
C1000  C     0.48078   0.35349   0.72075   0.00000  Uiso   1.00
C1001  C     0.51867   0.35601   0.77936   0.00000  Uiso   1.00
C1002  C     0.48041   0.64396   0.72234   0.00000  Uiso   1.00
C1003  C     0.50037   0.37587   0.74924   0.00000  Uiso   1.00
C1004  C     0.49896   0.62407   0.75218   0.00000  Uiso   1.00
C1005  C     0.64925   0.46648   0.73275   0.00000  Uiso   1.00
C1006  C     0.35095   0.53372   0.76675   0.00000  Uiso   1.00
H1007  H     0.63645   0.43966   0.71886   0.00000  Uiso   1.00
H1008  H     0.36381   0.56059   0.78048   0.00000  Uiso   1.00
C1009  C     0.36383   0.46650   0.73277   0.00000  Uiso   1.00
C1010  C     0.63634   0.53369   0.76676   0.00000  Uiso   1.00
H1011  H     0.38717   0.43974   0.71887   0.00000  Uiso   1.00
H1012  H     0.61305   0.56051   0.78052   0.00000  Uiso   1.00
N1013  N     0.38093   0.50001   0.75001   0.00000  Uiso   1.00
N1014  N     0.61907   0.49999   0.74999   0.00000  Uiso   1.00
F1015  F     0.47273   0.47549   0.61178   0.00000  Uiso   1.00
F1016  F     0.51264   0.53066   0.89763   0.00000  Uiso   1.00
N1017  N     0.62903   0.53126   0.60513   0.00000  Uiso   1.00
O1018  O     0.61341   0.56315   0.63346   0.00000  Uiso   1.00
O1019  O     0.34190   0.52195   0.58966   0.00000  Uiso   1.00
N1020  N     0.38480   0.44156   0.88249   0.00000  Uiso   1.00
O1021  O     0.40644   0.42261   0.84254   0.00000  Uiso   1.00
O1022  O     0.33869   0.43438   0.90487   0.00000  Uiso   1.00
N1023  N     0.47145   0.40545   0.56849   0.00000  Uiso   1.00
O1024  O     0.51280   0.39042   0.56725   0.00000  Uiso   1.00
O1025  O     0.43110   0.38846   0.59576   0.00000  Uiso   1.00
N1026  N     0.58791   0.48633   0.89086   0.00000  Uiso   1.00
O1027  O     0.57622   0.45528   0.86933   0.00000  Uiso   1.00
O1028  O     0.62366   0.51051   0.86721   0.00000  Uiso   1.00
N1029  N     0.53287   0.62595   0.81498   0.00000  Uiso   1.00
O1030  O     0.50548   0.59753   0.84173   0.00000  Uiso   1.00
O1031  O     0.57104   0.63903   0.82267   0.00000  Uiso   1.00
N1032  N     0.46265   0.37377   0.68930   0.00000  Uiso   1.00
O1033  O     0.48757   0.40339   0.66274   0.00000  Uiso   1.00
O1034  O     0.42260   0.36092   0.68509   0.00000  Uiso   1.00
F1035  F     0.53449   0.37862   0.80874   0.00000  Uiso   1.00
F1036  F     0.46443   0.62152   0.69294   0.00000  Uiso   1.00
O1037  O     0.79512   0.56108   0.75000   0.00000  Uiso   1.00
O1038  O     0.87154   0.43892   0.75000   0.00000  Uiso   1.00
O1039  O     0.87157   0.56107   0.75000   0.00000  Uiso   1.00
O1040  O     0.79510   0.43893   0.75000   0.00000  Uiso   1.00
C1041  C     0.83298   0.57994   0.75106   0.00000  Uiso   1.00
C1042  C     0.83347   0.42003   0.74955   0.00000  Uiso   1.00
O1043  O     0.77328   0.50001   0.81612   0.00000  Uiso   1.00
O1044  O     0.89339   0.49999   0.68387   0.00000  Uiso   1.00
O1045  O     0.84972   0.50000   0.81612   0.00000  Uiso   1.00
O1046  O     0.81695   0.50000   0.68388   0.00000  Uiso   1.00
C1047  C     0.80300   0.49803   0.83809   0.00000  Uiso   1.00
C1048  C     0.86379   0.50042   0.66163   0.00000  Uiso   1.00
Zn1049 Zn    0.78229   0.50001   0.75000   0.00000  Uiso   1.00
Zn1050 Zn    0.88438   0.49999   0.75000   0.00000  Uiso   1.00
C1051  C     0.78555   0.48650   0.88750   0.00000  Uiso   1.00
C1052  C     0.88355   0.49913   0.61008   0.00000  Uiso   1.00
C1053  C     0.73955   0.44180   0.95152   0.00000  Uiso   1.00
C1054  C     0.94818   0.51067   0.53489   0.00000  Uiso   1.00
C1055  C     0.74690   0.45791   0.90753   0.00000  Uiso   1.00
C1056  C     0.93151   0.51253   0.58361   0.00000  Uiso   1.00
C1057  C     0.81564   0.49744   0.91186   0.00000  Uiso   1.00
C1058  C     0.85390   0.48324   0.58690   0.00000  Uiso   1.00
C1059  C     0.81496   0.47405   0.95000   0.00000  Uiso   1.00
C1060  C     0.87177   0.47920   0.53798   0.00000  Uiso   1.00
C1061  C     0.77399   0.44866   0.97214   0.00000  Uiso   1.00
C1062  C     0.91794   0.49612   0.51219   0.00000  Uiso   1.00
C1063  C     0.85292   0.47626   0.96773   0.00000  Uiso   1.00
C1064  C     0.84259   0.46317   0.51391   0.00000  Uiso   1.00
C1065  C     0.80418   0.43412   0.53346   0.00000  Uiso   1.00
C1066  C     0.90138   0.48913   0.94102   0.00000  Uiso   1.00
C1067  C     0.76968   0.42805   0.51285   0.00000  Uiso   1.00
C1068  C     0.93307   0.49919   0.96390   0.00000  Uiso   1.00
H1069  H     0.74034   0.40595   0.52767   0.00000  Uiso   1.00
H1070  H     0.96966   0.50985   0.94390   0.00000  Uiso   1.00
H1071  H     0.70950   0.42060   0.96749   0.00000  Uiso   1.00
H1072  H     0.98406   0.52272   0.51471   0.00000  Uiso   1.00
C1073  C     0.85092   0.64637   0.78153   0.00000  Uiso   1.00
C1074  C     0.81411   0.35349   0.72075   0.00000  Uiso   1.00
C1075  C     0.85200   0.35601   0.77936   0.00000  Uiso   1.00
C1076  C     0.81374   0.64396   0.72234   0.00000  Uiso   1.00
C1077  C     0.83370   0.37587   0.74924   0.00000  Uiso   1.00
C1078  C     0.83229   0.62407   0.75218   0.00000  Uiso   1.00
C1079  C     0.98258   0.46648   0.73275   0.00000  Uiso   1.00
C1080  C     0.68428   0.53372   0.76675   0.00000  Uiso   1.00
H1081  H     0.96978   0.43966   0.71886   0.00000  Uiso   1.00
H1082  H     0.69714   0.56059   0.78048   0.00000  Uiso   1.00
C1083  C     0.69716   0.46650   0.73277   0.00000  Uiso   1.00
C1084  C     0.96968   0.53369   0.76676   0.00000  Uiso   1.00
H1085  H     0.72050   0.43974   0.71887   0.00000  Uiso   1.00
H1086  H     0.94638   0.56051   0.78052   0.00000  Uiso   1.00
N1087  N     0.71426   0.50001   0.75001   0.00000  Uiso   1.00
N1088  N     0.95241   0.49999   0.74999   0.00000  Uiso   1.00
F1089  F     0.80606   0.47549   0.61178   0.00000  Uiso   1.00
F1090  F     0.84598   0.53066   0.89763   0.00000  Uiso   1.00
N1091  N     0.96237   0.53126   0.60513   0.00000  Uiso   1.00
O1092  O     0.94674   0.56315   0.63346   0.00000  Uiso   1.00
O1093  O     0.67523   0.52195   0.58966   0.00000  Uiso   1.00
N1094  N     0.71813   0.44156   0.88249   0.00000  Uiso   1.00
O1095  O     0.73977   0.42261   0.84254   0.00000  Uiso   1.00
O1096  O     0.67202   0.43438   0.90487   0.00000  Uiso   1.00
N1097  N     0.80478   0.40545   0.56849   0.00000  Uiso   1.00
O1098  O     0.84613   0.39042   0.56725   0.00000  Uiso   1.00
O1099  O     0.76443   0.38846   0.59576   0.00000  Uiso   1.00
N1100  N     0.92124   0.48633   0.89086   0.00000  Uiso   1.00
O1101  O     0.90955   0.45528   0.86933   0.00000  Uiso   1.00
O1102  O     0.95700   0.51051   0.86721   0.00000  Uiso   1.00
N1103  N     0.86620   0.62595   0.81498   0.00000  Uiso   1.00
O1104  O     0.83881   0.59753   0.84173   0.00000  Uiso   1.00
O1105  O     0.90437   0.63903   0.82267   0.00000  Uiso   1.00
N1106  N     0.79598   0.37377   0.68930   0.00000  Uiso   1.00
O1107  O     0.82091   0.40339   0.66274   0.00000  Uiso   1.00
O1108  O     0.75594   0.36092   0.68509   0.00000  Uiso   1.00
F1109  F     0.86782   0.37862   0.80874   0.00000  Uiso   1.00
F1110  F     0.79777   0.62152   0.69294   0.00000  Uiso   1.00
O1111  O     0.12846   0.89442   0.75000   0.00000  Uiso   1.00
O1112  O     0.20488   0.77225   0.75000   0.00000  Uiso   1.00
O1113  O     0.20490   0.89441   0.75000   0.00000  Uiso   1.00
O1114  O     0.12843   0.77226   0.75000   0.00000  Uiso   1.00
C1115  C     0.16631   0.91327   0.75106   0.00000  Uiso   1.00
C1116  C     0.16680   0.75337   0.74955   0.00000  Uiso   1.00
O1117  O     0.10661   0.83334   0.81612   0.00000  Uiso   1.00
O1118  O     0.22672   0.83333   0.68387   0.00000  Uiso   1.00
O1119  O     0.18305   0.83333   0.81612   0.00000  Uiso   1.00
O1120  O     0.15028   0.83334   0.68388   0.00000  Uiso   1.00
C1121  C     0.13633   0.83136   0.83809   0.00000  Uiso   1.00
C1122  C     0.19713   0.83375   0.66163   0.00000  Uiso   1.00
Zn1123 Zn    0.11562   0.83334   0.75000   0.00000  Uiso   1.00
Zn1124 Zn    0.21771   0.83333   0.75000   0.00000  Uiso   1.00
C1125  C     0.11888   0.81983   0.88750   0.00000  Uiso   1.00
C1126  C     0.21688   0.83246   0.61008   0.00000  Uiso   1.00
C1127  C     0.07288   0.77513   0.95152   0.00000  Uiso   1.00
C1128  C     0.28151   0.84400   0.53489   0.00000  Uiso   1.00
C1129  C     0.08023   0.79125   0.90753   0.00000  Uiso   1.00
C1130  C     0.26485   0.84587   0.58361   0.00000  Uiso   1.00
C1131  C     0.14897   0.83077   0.91186   0.00000  Uiso   1.00
C1132  C     0.18723   0.81657   0.58690   0.00000  Uiso   1.00
C1133  C     0.14829   0.80738   0.95000   0.00000  Uiso   1.00
C1134  C     0.20511   0.81253   0.53798   0.00000  Uiso   1.00
C1135  C     0.10733   0.78199   0.97214   0.00000  Uiso   1.00
C1136  C     0.25127   0.82945   0.51219   0.00000  Uiso   1.00
C1137  C     0.18625   0.80959   0.96773   0.00000  Uiso   1.00
C1138  C     0.17593   0.79650   0.51391   0.00000  Uiso   1.00
C1139  C     0.13751   0.76745   0.53346   0.00000  Uiso   1.00
C1140  C     0.23471   0.82246   0.94102   0.00000  Uiso   1.00
C1141  C     0.10301   0.76138   0.51285   0.00000  Uiso   1.00
C1142  C     0.26641   0.83252   0.96390   0.00000  Uiso   1.00
H1143  H     0.07368   0.73928   0.52767   0.00000  Uiso   1.00
H1144  H     0.30299   0.84318   0.94390   0.00000  Uiso   1.00
H1145  H     0.04283   0.75393   0.96749   0.00000  Uiso   1.00
H1146  H     0.31740   0.85605   0.51471   0.00000  Uiso   1.00
C1147  C     0.18425   0.97970   0.78153   0.00000  Uiso   1.00
C1148  C     0.14744   0.68683   0.72075   0.00000  Uiso   1.00
C1149  C     0.18534   0.68934   0.77936   0.00000  Uiso   1.00
C1150  C     0.14707   0.97729   0.72234   0.00000  Uiso   1.00
C1151  C     0.16703   0.70920   0.74924   0.00000  Uiso   1.00
C1152  C     0.16563   0.95740   0.75218   0.00000  Uiso   1.00
C1153  C     0.31591   0.79981   0.73275   0.00000  Uiso   1.00
C1154  C     0.01762   0.86705   0.76675   0.00000  Uiso   1.00
H1155  H     0.30311   0.77300   0.71886   0.00000  Uiso   1.00
H1156  H     0.03047   0.89392   0.78048   0.00000  Uiso   1.00
C1157  C     0.03049   0.79983   0.73277   0.00000  Uiso   1.00
C1158  C     0.30301   0.86702   0.76676   0.00000  Uiso   1.00
H1159  H     0.05384   0.77308   0.71887   0.00000  Uiso   1.00
H1160  H     0.27971   0.89385   0.78052   0.00000  Uiso   1.00
N1161  N     0.04759   0.83334   0.75001   0.00000  Uiso   1.00
N1162  N     0.28574   0.83332   0.74999   0.00000  Uiso   1.00
F1163  F     0.13940   0.80882   0.61178   0.00000  Uiso   1.00
F1164  F     0.17931   0.86399   0.89763   0.00000  Uiso   1.00
N1165  N     0.29570   0.86460   0.60513   0.00000  Uiso   1.00
O1166  O     0.28007   0.89648   0.63346   0.00000  Uiso   1.00
O1167  O     0.00857   0.85528   0.58966   0.00000  Uiso   1.00
N1168  N     0.05146   0.77489   0.88249   0.00000  Uiso   1.00
O1169  O     0.07311   0.75594   0.84254   0.00000  Uiso   1.00
O1170  O     0.00535   0.76772   0.90487   0.00000  Uiso   1.00
N1171  N     0.13812   0.73878   0.56849   0.00000  Uiso   1.00
O1172  O     0.17946   0.72375   0.56725   0.00000  Uiso   1.00
O1173  O     0.09776   0.72179   0.59576   0.00000  Uiso   1.00
N1174  N     0.25457   0.81966   0.89086   0.00000  Uiso   1.00
O1175  O     0.24288   0.78861   0.86933   0.00000  Uiso   1.00
O1176  O     0.29033   0.84384   0.86721   0.00000  Uiso   1.00
N1177  N     0.19954   0.95928   0.81498   0.00000  Uiso   1.00
O1178  O     0.17215   0.93087   0.84173   0.00000  Uiso   1.00
O1179  O     0.23771   0.97236   0.82267   0.00000  Uiso   1.00
N1180  N     0.12932   0.70711   0.68930   0.00000  Uiso   1.00
O1181  O     0.15424   0.73672   0.66274   0.00000  Uiso   1.00
O1182  O     0.08927   0.69426   0.68509   0.00000  Uiso   1.00
F1183  F     0.20116   0.71195   0.80874   0.00000  Uiso   1.00
F1184  F     0.13110   0.95485   0.69294   0.00000  Uiso   1.00
O1185  O     0.46179   0.89442   0.75000   0.00000  Uiso   1.00
O1186  O     0.53821   0.77225   0.75000   0.00000  Uiso   1.00
O1187  O     0.53823   0.89441   0.75000   0.00000  Uiso   1.00
O1188  O     0.46177   0.77226   0.75000   0.00000  Uiso   1.00
C1189  C     0.49964   0.91327   0.75106   0.00000  Uiso   1.00
C1190  C     0.50014   0.75337   0.74955   0.00000  Uiso   1.00
O1191  O     0.43994   0.83334   0.81612   0.00000  Uiso   1.00
O1192  O     0.56006   0.83333   0.68387   0.00000  Uiso   1.00
O1193  O     0.51639   0.83333   0.81612   0.00000  Uiso   1.00
O1194  O     0.48361   0.83334   0.68388   0.00000  Uiso   1.00
C1195  C     0.46966   0.83136   0.83809   0.00000  Uiso   1.00
C1196  C     0.53046   0.83375   0.66163   0.00000  Uiso   1.00
Zn1197 Zn    0.44896   0.83334   0.75000   0.00000  Uiso   1.00
Zn1198 Zn    0.55104   0.83333   0.75000   0.00000  Uiso   1.00
C1199  C     0.45221   0.81983   0.88750   0.00000  Uiso   1.00
C1200  C     0.55021   0.83246   0.61008   0.00000  Uiso   1.00
C1201  C     0.40621   0.77513   0.95152   0.00000  Uiso   1.00
C1202  C     0.61485   0.84400   0.53489   0.00000  Uiso   1.00
C1203  C     0.41356   0.79125   0.90753   0.00000  Uiso   1.00
C1204  C     0.59818   0.84587   0.58361   0.00000  Uiso   1.00
C1205  C     0.48231   0.83077   0.91186   0.00000  Uiso   1.00
C1206  C     0.52057   0.81657   0.58690   0.00000  Uiso   1.00
C1207  C     0.48162   0.80738   0.95000   0.00000  Uiso   1.00
C1208  C     0.53844   0.81253   0.53798   0.00000  Uiso   1.00
C1209  C     0.44066   0.78199   0.97214   0.00000  Uiso   1.00
C1210  C     0.58460   0.82945   0.51219   0.00000  Uiso   1.00
C1211  C     0.51959   0.80959   0.96773   0.00000  Uiso   1.00
C1212  C     0.50926   0.79650   0.51391   0.00000  Uiso   1.00
C1213  C     0.47084   0.76745   0.53346   0.00000  Uiso   1.00
C1214  C     0.56805   0.82246   0.94102   0.00000  Uiso   1.00
C1215  C     0.43634   0.76138   0.51285   0.00000  Uiso   1.00
C1216  C     0.59974   0.83252   0.96390   0.00000  Uiso   1.00
H1217  H     0.40701   0.73928   0.52767   0.00000  Uiso   1.00
H1218  H     0.63632   0.84318   0.94390   0.00000  Uiso   1.00
H1219  H     0.37617   0.75393   0.96749   0.00000  Uiso   1.00
H1220  H     0.65073   0.85605   0.51471   0.00000  Uiso   1.00
C1221  C     0.51758   0.97970   0.78153   0.00000  Uiso   1.00
C1222  C     0.48078   0.68683   0.72075   0.00000  Uiso   1.00
C1223  C     0.51867   0.68934   0.77936   0.00000  Uiso   1.00
C1224  C     0.48041   0.97729   0.72234   0.00000  Uiso   1.00
C1225  C     0.50037   0.70920   0.74924   0.00000  Uiso   1.00
C1226  C     0.49896   0.95740   0.75218   0.00000  Uiso   1.00
C1227  C     0.64925   0.79981   0.73275   0.00000  Uiso   1.00
C1228  C     0.35095   0.86705   0.76675   0.00000  Uiso   1.00
H1229  H     0.63645   0.77300   0.71886   0.00000  Uiso   1.00
H1230  H     0.36381   0.89392   0.78048   0.00000  Uiso   1.00
C1231  C     0.36383   0.79983   0.73277   0.00000  Uiso   1.00
C1232  C     0.63634   0.86702   0.76676   0.00000  Uiso   1.00
H1233  H     0.38717   0.77308   0.71887   0.00000  Uiso   1.00
H1234  H     0.61305   0.89385   0.78052   0.00000  Uiso   1.00
N1235  N     0.38093   0.83334   0.75001   0.00000  Uiso   1.00
N1236  N     0.61907   0.83332   0.74999   0.00000  Uiso   1.00
F1237  F     0.47273   0.80882   0.61178   0.00000  Uiso   1.00
F1238  F     0.51264   0.86399   0.89763   0.00000  Uiso   1.00
N1239  N     0.62903   0.86460   0.60513   0.00000  Uiso   1.00
O1240  O     0.61341   0.89648   0.63346   0.00000  Uiso   1.00
O1241  O     0.34190   0.85528   0.58966   0.00000  Uiso   1.00
N1242  N     0.38480   0.77489   0.88249   0.00000  Uiso   1.00
O1243  O     0.40644   0.75594   0.84254   0.00000  Uiso   1.00
O1244  O     0.33869   0.76772   0.90487   0.00000  Uiso   1.00
N1245  N     0.47145   0.73878   0.56849   0.00000  Uiso   1.00
O1246  O     0.51280   0.72375   0.56725   0.00000  Uiso   1.00
O1247  O     0.43110   0.72179   0.59576   0.00000  Uiso   1.00
N1248  N     0.58791   0.81966   0.89086   0.00000  Uiso   1.00
O1249  O     0.57622   0.78861   0.86933   0.00000  Uiso   1.00
O1250  O     0.62366   0.84384   0.86721   0.00000  Uiso   1.00
N1251  N     0.53287   0.95928   0.81498   0.00000  Uiso   1.00
O1252  O     0.50548   0.93087   0.84173   0.00000  Uiso   1.00
O1253  O     0.57104   0.97236   0.82267   0.00000  Uiso   1.00
N1254  N     0.46265   0.70711   0.68930   0.00000  Uiso   1.00
O1255  O     0.48757   0.73672   0.66274   0.00000  Uiso   1.00
O1256  O     0.42260   0.69426   0.68509   0.00000  Uiso   1.00
F1257  F     0.53449   0.71195   0.80874   0.00000  Uiso   1.00
F1258  F     0.46443   0.95485   0.69294   0.00000  Uiso   1.00
O1259  O     0.79512   0.89442   0.75000   0.00000  Uiso   1.00
O1260  O     0.87154   0.77225   0.75000   0.00000  Uiso   1.00
O1261  O     0.87157   0.89441   0.75000   0.00000  Uiso   1.00
O1262  O     0.79510   0.77226   0.75000   0.00000  Uiso   1.00
C1263  C     0.83298   0.91327   0.75106   0.00000  Uiso   1.00
C1264  C     0.83347   0.75337   0.74955   0.00000  Uiso   1.00
O1265  O     0.77328   0.83334   0.81612   0.00000  Uiso   1.00
O1266  O     0.89339   0.83333   0.68387   0.00000  Uiso   1.00
O1267  O     0.84972   0.83333   0.81612   0.00000  Uiso   1.00
O1268  O     0.81695   0.83334   0.68388   0.00000  Uiso   1.00
C1269  C     0.80300   0.83136   0.83809   0.00000  Uiso   1.00
C1270  C     0.86379   0.83375   0.66163   0.00000  Uiso   1.00
Zn1271 Zn    0.78229   0.83334   0.75000   0.00000  Uiso   1.00
Zn1272 Zn    0.88438   0.83333   0.75000   0.00000  Uiso   1.00
C1273  C     0.78555   0.81983   0.88750   0.00000  Uiso   1.00
C1274  C     0.88355   0.83246   0.61008   0.00000  Uiso   1.00
C1275  C     0.73955   0.77513   0.95152   0.00000  Uiso   1.00
C1276  C     0.94818   0.84400   0.53489   0.00000  Uiso   1.00
C1277  C     0.74690   0.79125   0.90753   0.00000  Uiso   1.00
C1278  C     0.93151   0.84587   0.58361   0.00000  Uiso   1.00
C1279  C     0.81564   0.83077   0.91186   0.00000  Uiso   1.00
C1280  C     0.85390   0.81657   0.58690   0.00000  Uiso   1.00
C1281  C     0.81496   0.80738   0.95000   0.00000  Uiso   1.00
C1282  C     0.87177   0.81253   0.53798   0.00000  Uiso   1.00
C1283  C     0.77399   0.78199   0.97214   0.00000  Uiso   1.00
C1284  C     0.91794   0.82945   0.51219   0.00000  Uiso   1.00
C1285  C     0.85292   0.80959   0.96773   0.00000  Uiso   1.00
C1286  C     0.84259   0.79650   0.51391   0.00000  Uiso   1.00
C1287  C     0.80418   0.76745   0.53346   0.00000  Uiso   1.00
C1288  C     0.90138   0.82246   0.94102   0.00000  Uiso   1.00
C1289  C     0.76968   0.76138   0.51285   0.00000  Uiso   1.00
C1290  C     0.93307   0.83252   0.96390   0.00000  Uiso   1.00
H1291  H     0.74034   0.73928   0.52767   0.00000  Uiso   1.00
H1292  H     0.96966   0.84318   0.94390   0.00000  Uiso   1.00
H1293  H     0.70950   0.75393   0.96749   0.00000  Uiso   1.00
H1294  H     0.98406   0.85605   0.51471   0.00000  Uiso   1.00
C1295  C     0.85092   0.97970   0.78153   0.00000  Uiso   1.00
C1296  C     0.81411   0.68683   0.72075   0.00000  Uiso   1.00
C1297  C     0.85200   0.68934   0.77936   0.00000  Uiso   1.00
C1298  C     0.81374   0.97729   0.72234   0.00000  Uiso   1.00
C1299  C     0.83370   0.70920   0.74924   0.00000  Uiso   1.00
C1300  C     0.83229   0.95740   0.75218   0.00000  Uiso   1.00
C1301  C     0.98258   0.79981   0.73275   0.00000  Uiso   1.00
C1302  C     0.68428   0.86705   0.76675   0.00000  Uiso   1.00
H1303  H     0.96978   0.77300   0.71886   0.00000  Uiso   1.00
H1304  H     0.69714   0.89392   0.78048   0.00000  Uiso   1.00
C1305  C     0.69716   0.79983   0.73277   0.00000  Uiso   1.00
C1306  C     0.96968   0.86702   0.76676   0.00000  Uiso   1.00
H1307  H     0.72050   0.77308   0.71887   0.00000  Uiso   1.00
H1308  H     0.94638   0.89385   0.78052   0.00000  Uiso   1.00
N1309  N     0.71426   0.83334   0.75001   0.00000  Uiso   1.00
N1310  N     0.95241   0.83332   0.74999   0.00000  Uiso   1.00
F1311  F     0.80606   0.80882   0.61178   0.00000  Uiso   1.00
F1312  F     0.84598   0.86399   0.89763   0.00000  Uiso   1.00
N1313  N     0.96237   0.86460   0.60513   0.00000  Uiso   1.00
O1314  O     0.94674   0.89648   0.63346   0.00000  Uiso   1.00
O1315  O     0.67523   0.85528   0.58966   0.00000  Uiso   1.00
N1316  N     0.71813   0.77489   0.88249   0.00000  Uiso   1.00
O1317  O     0.73977   0.75594   0.84254   0.00000  Uiso   1.00
O1318  O     0.67202   0.76772   0.90487   0.00000  Uiso   1.00
N1319  N     0.80478   0.73878   0.56849   0.00000  Uiso   1.00
O1320  O     0.84613   0.72375   0.56725   0.00000  Uiso   1.00
O1321  O     0.76443   0.72179   0.59576   0.00000  Uiso   1.00
N1322  N     0.92124   0.81966   0.89086   0.00000  Uiso   1.00
O1323  O     0.90955   0.78861   0.86933   0.00000  Uiso   1.00
O1324  O     0.95700   0.84384   0.86721   0.00000  Uiso   1.00
N1325  N     0.86620   0.95928   0.81498   0.00000  Uiso   1.00
O1326  O     0.83881   0.93087   0.84173   0.00000  Uiso   1.00
O1327  O     0.90437   0.97236   0.82267   0.00000  Uiso   1.00
N1328  N     0.79598   0.70711   0.68930   0.00000  Uiso   1.00
O1329  O     0.82091   0.73672   0.66274   0.00000  Uiso   1.00
O1330  O     0.75594   0.69426   0.68509   0.00000  Uiso   1.00
F1331  F     0.86782   0.71195   0.80874   0.00000  Uiso   1.00
F1332  F     0.79777   0.95485   0.69294   0.00000  Uiso   1.00
loop_
_geom_bond_atom_site_label_1
_geom_bond_atom_site_label_2
_geom_bond_distance
_geom_bond_site_symmetry_2
_ccdc_geom_bond_type
O1     C5      1.280   .     A
O1     Zn13    1.993   .     S
O2     C6      1.280   .     A
O2     Zn14    1.993   .     S
O3     Zn14    1.996   .     S
O3     C5      1.282   .     A
O4     C6      1.282   .     A
O4     Zn13    1.996   .     S
C5     C42     1.415   .     S
C6     C41     1.416   .     S
O7     Zn13    1.956   .     S
O7     C11     1.294   .     A
O8     C12     1.296   .     A
O8     Zn14    1.956   .     S
O9     Zn14    1.913   .     S
O9     C11     1.294   .     A
O10    C12     1.297   .     A
O10    Zn13    1.913   .     S
C11    C15     1.470   .     S
C12    C16     1.476   .     S
Zn13   N51     2.009   .     S
Zn14   N52     2.009   .     S
C15    C19     1.419   .     A
C15    C21     1.400   .     A
C16    C20     1.417   .     A
C16    C22     1.409   .     A
C17    C25     1.400   .     A
C17    H35     1.084   .     S
C17    C19     1.400   .     A
C18    C26     1.398   .     A
C18    H36     1.085   .     S
C18    C20     1.397   .     A
C19    N58     1.436   .     S
C20    N55     1.436   .     S
C21    F54     1.360   .     S
C21    C23     1.400   .     A
C22    F53     1.359   .     S
C22    C24     1.405   .     A
C23    C27     1.419   .     A
C23    C25     1.412   .     A
C24    C26     1.412   .     A
C24    C28     1.419   .     A
C25    C697    1.392   .     S
C26    C698    1.392   1_554 S
C27    C30     1.425   .     A
C27    C694    1.412   .     S
C28    C29     1.423   .     A
C28    C693    1.412   1_554 S
C29    N61     1.436   .     S
C29    C31     1.398   .     A
C30    N64     1.438   .     S
C30    C32     1.399   .     A
C31    H33     1.084   .     S
C31    C691    1.392   1_554 S
C32    H34     1.084   .     S
C32    C692    1.392   .     S
C37    N67     1.438   .     S
C37    C42     1.406   .     A
C37    C261    1.380   .     S
C38    N70     1.435   .     S
C38    C41     1.404   .     A
C38    C484    1.376   1_545 S
C39    F73     1.361   .     S
C39    C41     1.399   .     A
C39    C481    1.380   1_545 S
C40    F74     1.361   .     S
C40    C42     1.397   .     A
C40    C260    1.376   .     S
C43    H45     1.082   .     S
C43    N52     1.367   .     A
C43    C121    1.415   .     S
C44    N51     1.366   .     A
C44    H46     1.082   .     S
C44    C196    1.416   1_455 S
C47    N51     1.366   .     A
C47    H49     1.080   .     S
C47    C191    1.415   1_455 S
C48    H50     1.081   .     S
C48    N52     1.366   .     A
C48    C118    1.416   .     S
N55    O56     1.302   .     A
N55    O131    1.302   .     S
O57    N203    1.302   1_455 S
N58    O60     1.300   .     A
N58    O59     1.299   .     A
N61    O62     1.302   .     A
N61    O63     1.301   .     A
N64    O65     1.302   .     A
N64    O66     1.301   .     A
N67    O68     1.301   .     A
N67    O69     1.301   .     A
N70    O71     1.300   .     A
N70    O72     1.301   .     A
O75    C79     1.280   .     A
O75    Zn87    1.993   .     S
O76    C80     1.280   .     A
O76    Zn88    1.993   .     S
O77    Zn88    1.996   .     S
O77    C79     1.282   .     A
O78    C80     1.282   .     A
O78    Zn87    1.996   .     S
C79    C116    1.415   .     S
C80    C115    1.416   .     S
O81    Zn87    1.956   .     S
O81    C85     1.294   .     A
O82    C86     1.296   .     A
O82    Zn88    1.956   .     S
O83    Zn88    1.913   .     S
O83    C85     1.294   .     A
O84    C86     1.297   .     A
O84    Zn87    1.913   .     S
C85    C89     1.470   .     S
C86    C90     1.476   .     S
Zn87   N125    2.009   .     S
Zn88   N126    2.009   .     S
C89    C93     1.419   .     A
C89    C95     1.400   .     A
C90    C94     1.417   .     A
C90    C96     1.409   .     A
C91    C99     1.400   .     A
C91    H109    1.084   .     S
C91    C93     1.400   .     A
C92    C100    1.398   .     A
C92    H110    1.085   .     S
C92    C94     1.397   .     A
C93    N132    1.436   .     S
C94    N129    1.436   .     S
C95    F128    1.360   .     S
C95    C97     1.400   .     A
C96    F127    1.359   .     S
C96    C98     1.405   .     A
C97    C101    1.419   .     A
C97    C99     1.412   .     A
C98    C100    1.412   .     A
C98    C102    1.419   .     A
C99    C771    1.392   .     S
C100   C772    1.392   1_554 S
C101   C104    1.425   .     A
C101   C768    1.412   .     S
C102   C103    1.423   .     A
C102   C767    1.412   1_554 S
C103   N135    1.436   .     S
C103   C105    1.398   .     A
C104   N138    1.438   .     S
C104   C106    1.399   .     A
C105   H107    1.084   .     S
C105   C765    1.392   1_554 S
C106   H108    1.084   .     S
C106   C766    1.392   .     S
C111   N141    1.438   .     S
C111   C116    1.406   .     A
C111   C335    1.380   .     S
C112   N144    1.435   .     S
C112   C115    1.404   .     A
C112   C558    1.376   1_545 S
C113   F147    1.361   .     S
C113   C115    1.399   .     A
C113   C555    1.380   1_545 S
C114   F148    1.361   .     S
C114   C116    1.397   .     A
C114   C334    1.376   .     S
C117   H119    1.082   .     S
C117   N126    1.367   .     A
C117   C195    1.415   .     S
C118   N125    1.366   .     A
C118   H120    1.082   .     S
C121   N125    1.366   .     A
C121   H123    1.080   .     S
C122   H124    1.081   .     S
C122   N126    1.366   .     A
C122   C192    1.416   .     S
N129   O130    1.302   .     A
N129   O205    1.302   .     S
N132   O134    1.300   .     A
N132   O133    1.299   .     A
N135   O136    1.302   .     A
N135   O137    1.301   .     A
N138   O139    1.302   .     A
N138   O140    1.301   .     A
N141   O142    1.301   .     A
N141   O143    1.301   .     A
N144   O145    1.300   .     A
N144   O146    1.301   .     A
O149   C153    1.280   .     A
O149   Zn161   1.993   .     S
O150   C154    1.280   .     A
O150   Zn162   1.993   .     S
O151   Zn162   1.996   .     S
O151   C153    1.282   .     A
O152   C154    1.282   .     A
O152   Zn161   1.996   .     S
C153   C190    1.415   .     S
C154   C189    1.416   .     S
O155   Zn161   1.956   .     S
O155   C159    1.294   .     A
O156   C160    1.296   .     A
O156   Zn162   1.956   .     S
O157   Zn162   1.913   .     S
O157   C159    1.294   .     A
O158   C160    1.297   .     A
O158   Zn161   1.913   .     S
C159   C163    1.470   .     S
C160   C164    1.476   .     S
Zn161  N199    2.009   .     S
Zn162  N200    2.009   .     S
C163   C167    1.419   .     A
C163   C169    1.400   .     A
C164   C168    1.417   .     A
C164   C170    1.409   .     A
C165   C173    1.400   .     A
C165   H183    1.084   .     S
C165   C167    1.400   .     A
C166   C174    1.398   .     A
C166   H184    1.085   .     S
C166   C168    1.397   .     A
C167   N206    1.436   .     S
C168   N203    1.436   .     S
C169   F202    1.360   .     S
C169   C171    1.400   .     A
C170   F201    1.359   .     S
C170   C172    1.405   .     A
C171   C175    1.419   .     A
C171   C173    1.412   .     A
C172   C174    1.412   .     A
C172   C176    1.419   .     A
C173   C845    1.392   .     S
C174   C846    1.392   1_554 S
C175   C178    1.425   .     A
C175   C842    1.412   .     S
C176   C177    1.423   .     A
C176   C841    1.412   1_554 S
C177   N209    1.436   .     S
C177   C179    1.398   .     A
C178   N212    1.438   .     S
C178   C180    1.399   .     A
C179   H181    1.084   .     S
C179   C839    1.392   1_554 S
C180   H182    1.084   .     S
C180   C840    1.392   .     S
C185   N215    1.438   .     S
C185   C190    1.406   .     A
C185   C409    1.380   .     S
C186   N218    1.435   .     S
C186   C189    1.404   .     A
C186   C632    1.376   1_545 S
C187   F221    1.361   .     S
C187   C189    1.399   .     A
C187   C629    1.380   1_545 S
C188   F222    1.361   .     S
C188   C190    1.397   .     A
C188   C408    1.376   .     S
C191   H193    1.082   .     S
C191   N200    1.367   .     A
C191   C47     1.415   1_655 S
C192   N199    1.366   .     A
C192   H194    1.082   .     S
C195   N199    1.366   .     A
C195   H197    1.080   .     S
C196   H198    1.081   .     S
C196   N200    1.366   .     A
C196   C44     1.416   1_655 S
N203   O204    1.302   .     A
N203   O57     1.302   1_655 S
N206   O208    1.300   .     A
N206   O207    1.299   .     A
N209   O210    1.302   .     A
N209   O211    1.301   .     A
N212   O213    1.302   .     A
N212   O214    1.301   .     A
N215   O216    1.301   .     A
N215   O217    1.301   .     A
N218   O219    1.300   .     A
N218   O220    1.301   .     A
O223   C227    1.280   .     A
O223   Zn235   1.993   .     S
O224   C228    1.280   .     A
O224   Zn236   1.993   .     S
O225   Zn236   1.996   .     S
O225   C227    1.282   .     A
O226   C228    1.282   .     A
O226   Zn235   1.996   .     S
C227   C264    1.415   .     S
C228   C263    1.416   .     S
O229   Zn235   1.956   .     S
O229   C233    1.294   .     A
O230   C234    1.296   .     A
O230   Zn236   1.956   .     S
O231   Zn236   1.913   .     S
O231   C233    1.294   .     A
O232   C234    1.297   .     A
O232   Zn235   1.913   .     S
C233   C237    1.470   .     S
C234   C238    1.476   .     S
Zn235  N273    2.009   .     S
Zn236  N274    2.009   .     S
C237   C241    1.419   .     A
C237   C243    1.400   .     A
C238   C242    1.417   .     A
C238   C244    1.409   .     A
C239   C247    1.400   .     A
C239   H257    1.084   .     S
C239   C241    1.400   .     A
C240   C248    1.398   .     A
C240   H258    1.085   .     S
C240   C242    1.397   .     A
C241   N280    1.436   .     S
C242   N277    1.436   .     S
C243   F276    1.360   .     S
C243   C245    1.400   .     A
C244   F275    1.359   .     S
C244   C246    1.405   .     A
C245   C249    1.419   .     A
C245   C247    1.412   .     A
C246   C248    1.412   .     A
C246   C250    1.419   .     A
C247   C919    1.392   .     S
C248   C920    1.392   1_554 S
C249   C252    1.425   .     A
C249   C916    1.412   .     S
C250   C251    1.423   .     A
C250   C915    1.412   1_554 S
C251   N283    1.436   .     S
C251   C253    1.398   .     A
C252   N286    1.438   .     S
C252   C254    1.399   .     A
C253   H255    1.084   .     S
C253   C913    1.392   1_554 S
C254   H256    1.084   .     S
C254   C914    1.392   .     S
C259   N289    1.438   .     S
C259   C264    1.406   .     A
C259   C483    1.380   .     S
C260   N292    1.435   .     S
C260   C263    1.404   .     A
C261   F295    1.361   .     S
C261   C263    1.399   .     A
C262   F296    1.361   .     S
C262   C264    1.397   .     A
C262   C482    1.376   .     S
C265   H267    1.082   .     S
C265   N274    1.367   .     A
C265   C343    1.415   .     S
C266   N273    1.366   .     A
C266   H268    1.082   .     S
C266   C418    1.416   1_455 S
C269   N273    1.366   .     A
C269   H271    1.080   .     S
C269   C413    1.415   1_455 S
C270   H272    1.081   .     S
C270   N274    1.366   .     A
C270   C340    1.416   .     S
N277   O278    1.302   .     A
N277   O353    1.302   .     S
O279   N425    1.302   1_455 S
N280   O282    1.300   .     A
N280   O281    1.299   .     A
N283   O284    1.302   .     A
N283   O285    1.301   .     A
N286   O287    1.302   .     A
N286   O288    1.301   .     A
N289   O290    1.301   .     A
N289   O291    1.301   .     A
N292   O293    1.300   .     A
N292   O294    1.301   .     A
O297   C301    1.280   .     A
O297   Zn309   1.993   .     S
O298   C302    1.280   .     A
O298   Zn310   1.993   .     S
O299   Zn310   1.996   .     S
O299   C301    1.282   .     A
O300   C302    1.282   .     A
O300   Zn309   1.996   .     S
C301   C338    1.415   .     S
C302   C337    1.416   .     S
O303   Zn309   1.956   .     S
O303   C307    1.294   .     A
O304   C308    1.296   .     A
O304   Zn310   1.956   .     S
O305   Zn310   1.913   .     S
O305   C307    1.294   .     A
O306   C308    1.297   .     A
O306   Zn309   1.913   .     S
C307   C311    1.470   .     S
C308   C312    1.476   .     S
Zn309  N347    2.009   .     S
Zn310  N348    2.009   .     S
C311   C315    1.419   .     A
C311   C317    1.400   .     A
C312   C316    1.417   .     A
C312   C318    1.409   .     A
C313   C321    1.400   .     A
C313   H331    1.084   .     S
C313   C315    1.400   .     A
C314   C322    1.398   .     A
C314   H332    1.085   .     S
C314   C316    1.397   .     A
C315   N354    1.436   .     S
C316   N351    1.436   .     S
C317   F350    1.360   .     S
C317   C319    1.400   .     A
C318   F349    1.359   .     S
C318   C320    1.405   .     A
C319   C323    1.419   .     A
C319   C321    1.412   .     A
C320   C322    1.412   .     A
C320   C324    1.419   .     A
C321   C993    1.392   .     S
C322   C994    1.392   1_554 S
C323   C326    1.425   .     A
C323   C990    1.412   .     S
C324   C325    1.423   .     A
C324   C989    1.412   1_554 S
C325   N357    1.436   .     S
C325   C327    1.398   .     A
C326   N360    1.438   .     S
C326   C328    1.399   .     A
C327   H329    1.084   .     S
C327   C987    1.392   1_554 S
C328   H330    1.084   .     S
C328   C988    1.392   .     S
C333   N363    1.438   .     S
C333   C338    1.406   .     A
C333   C557    1.380   .     S
C334   N366    1.435   .     S
C334   C337    1.404   .     A
C335   F369    1.361   .     S
C335   C337    1.399   .     A
C336   F370    1.361   .     S
C336   C338    1.397   .     A
C336   C556    1.376   .     S
C339   H341    1.082   .     S
C339   N348    1.367   .     A
C339   C417    1.415   .     S
C340   N347    1.366   .     A
C340   H342    1.082   .     S
C343   N347    1.366   .     A
C343   H345    1.080   .     S
C344   H346    1.081   .     S
C344   N348    1.366   .     A
C344   C414    1.416   .     S
N351   O352    1.302   .     A
N351   O427    1.302   .     S
N354   O356    1.300   .     A
N354   O355    1.299   .     A
N357   O358    1.302   .     A
N357   O359    1.301   .     A
N360   O361    1.302   .     A
N360   O362    1.301   .     A
N363   O364    1.301   .     A
N363   O365    1.301   .     A
N366   O367    1.300   .     A
N366   O368    1.301   .     A
O371   C375    1.280   .     A
O371   Zn383   1.993   .     S
O372   C376    1.280   .     A
O372   Zn384   1.993   .     S
O373   Zn384   1.996   .     S
O373   C375    1.282   .     A
O374   C376    1.282   .     A
O374   Zn383   1.996   .     S
C375   C412    1.415   .     S
C376   C411    1.416   .     S
O377   Zn383   1.956   .     S
O377   C381    1.294   .     A
O378   C382    1.296   .     A
O378   Zn384   1.956   .     S
O379   Zn384   1.913   .     S
O379   C381    1.294   .     A
O380   C382    1.297   .     A
O380   Zn383   1.913   .     S
C381   C385    1.470   .     S
C382   C386    1.476   .     S
Zn383  N421    2.009   .     S
Zn384  N422    2.009   .     S
C385   C389    1.419   .     A
C385   C391    1.400   .     A
C386   C390    1.417   .     A
C386   C392    1.409   .     A
C387   C395    1.400   .     A
C387   H405    1.084   .     S
C387   C389    1.400   .     A
C388   C396    1.398   .     A
C388   H406    1.085   .     S
C388   C390    1.397   .     A
C389   N428    1.436   .     S
C390   N425    1.436   .     S
C391   F424    1.360   .     S
C391   C393    1.400   .     A
C392   F423    1.359   .     S
C392   C394    1.405   .     A
C393   C397    1.419   .     A
C393   C395    1.412   .     A
C394   C396    1.412   .     A
C394   C398    1.419   .     A
C395   C1067   1.392   .     S
C396   C1068   1.392   1_554 S
C397   C400    1.425   .     A
C397   C1064   1.412   .     S
C398   C399    1.423   .     A
C398   C1063   1.412   1_554 S
C399   N431    1.436   .     S
C399   C401    1.398   .     A
C400   N434    1.438   .     S
C400   C402    1.399   .     A
C401   H403    1.084   .     S
C401   C1061   1.392   1_554 S
C402   H404    1.084   .     S
C402   C1062   1.392   .     S
C407   N437    1.438   .     S
C407   C412    1.406   .     A
C407   C631    1.380   .     S
C408   N440    1.435   .     S
C408   C411    1.404   .     A
C409   F443    1.361   .     S
C409   C411    1.399   .     A
C410   F444    1.361   .     S
C410   C412    1.397   .     A
C410   C630    1.376   .     S
C413   H415    1.082   .     S
C413   N422    1.367   .     A
C413   C269    1.415   1_655 S
C414   N421    1.366   .     A
C414   H416    1.082   .     S
C417   N421    1.366   .     A
C417   H419    1.080   .     S
C418   H420    1.081   .     S
C418   N422    1.366   .     A
C418   C266    1.416   1_655 S
N425   O426    1.302   .     A
N425   O279    1.302   1_655 S
N428   O430    1.300   .     A
N428   O429    1.299   .     A
N431   O432    1.302   .     A
N431   O433    1.301   .     A
N434   O435    1.302   .     A
N434   O436    1.301   .     A
N437   O438    1.301   .     A
N437   O439    1.301   .     A
N440   O441    1.300   .     A
N440   O442    1.301   .     A
O445   C449    1.280   .     A
O445   Zn457   1.993   .     S
O446   C450    1.280   .     A
O446   Zn458   1.993   .     S
O447   Zn458   1.996   .     S
O447   C449    1.282   .     A
O448   C450    1.282   .     A
O448   Zn457   1.996   .     S
C449   C486    1.415   .     S
C450   C485    1.416   .     S
O451   Zn457   1.956   .     S
O451   C455    1.294   .     A
O452   C456    1.296   .     A
O452   Zn458   1.956   .     S
O453   Zn458   1.913   .     S
O453   C455    1.294   .     A
O454   C456    1.297   .     A
O454   Zn457   1.913   .     S
C455   C459    1.470   .     S
C456   C460    1.476   .     S
Zn457  N495    2.009   .     S
Zn458  N496    2.009   .     S
C459   C463    1.419   .     A
C459   C465    1.400   .     A
C460   C464    1.417   .     A
C460   C466    1.409   .     A
C461   C469    1.400   .     A
C461   H479    1.084   .     S
C461   C463    1.400   .     A
C462   C470    1.398   .     A
C462   H480    1.085   .     S
C462   C464    1.397   .     A
C463   N502    1.436   .     S
C464   N499    1.436   .     S
C465   F498    1.360   .     S
C465   C467    1.400   .     A
C466   F497    1.359   .     S
C466   C468    1.405   .     A
C467   C471    1.419   .     A
C467   C469    1.412   .     A
C468   C470    1.412   .     A
C468   C472    1.419   .     A
C469   C1141   1.392   .     S
C470   C1142   1.392   1_554 S
C471   C474    1.425   .     A
C471   C1138   1.412   .     S
C472   C473    1.423   .     A
C472   C1137   1.412   1_554 S
C473   N505    1.436   .     S
C473   C475    1.398   .     A
C474   N508    1.438   .     S
C474   C476    1.399   .     A
C475   H477    1.084   .     S
C475   C1135   1.392   1_554 S
C476   H478    1.084   .     S
C476   C1136   1.392   .     S
C481   N511    1.438   .     S
C481   C486    1.406   .     A
C481   C39     1.380   1_565 S
C482   N514    1.435   .     S
C482   C485    1.404   .     A
C483   F517    1.361   .     S
C483   C485    1.399   .     A
C484   F518    1.361   .     S
C484   C486    1.397   .     A
C484   C38     1.376   1_565 S
C487   H489    1.082   .     S
C487   N496    1.367   .     A
C487   C565    1.415   .     S
C488   N495    1.366   .     A
C488   H490    1.082   .     S
C488   C640    1.416   1_455 S
C491   N495    1.366   .     A
C491   H493    1.080   .     S
C491   C635    1.415   1_455 S
C492   H494    1.081   .     S
C492   N496    1.366   .     A
C492   C562    1.416   .     S
N499   O500    1.302   .     A
N499   O575    1.302   .     S
O501   N647    1.302   1_455 S
N502   O504    1.300   .     A
N502   O503    1.299   .     A
N505   O506    1.302   .     A
N505   O507    1.301   .     A
N508   O509    1.302   .     A
N508   O510    1.301   .     A
N511   O512    1.301   .     A
N511   O513    1.301   .     A
N514   O515    1.300   .     A
N514   O516    1.301   .     A
O519   C523    1.280   .     A
O519   Zn531   1.993   .     S
O520   C524    1.280   .     A
O520   Zn532   1.993   .     S
O521   Zn532   1.996   .     S
O521   C523    1.282   .     A
O522   C524    1.282   .     A
O522   Zn531   1.996   .     S
C523   C560    1.415   .     S
C524   C559    1.416   .     S
O525   Zn531   1.956   .     S
O525   C529    1.294   .     A
O526   C530    1.296   .     A
O526   Zn532   1.956   .     S
O527   Zn532   1.913   .     S
O527   C529    1.294   .     A
O528   C530    1.297   .     A
O528   Zn531   1.913   .     S
C529   C533    1.470   .     S
C530   C534    1.476   .     S
Zn531  N569    2.009   .     S
Zn532  N570    2.009   .     S
C533   C537    1.419   .     A
C533   C539    1.400   .     A
C534   C538    1.417   .     A
C534   C540    1.409   .     A
C535   C543    1.400   .     A
C535   H553    1.084   .     S
C535   C537    1.400   .     A
C536   C544    1.398   .     A
C536   H554    1.085   .     S
C536   C538    1.397   .     A
C537   N576    1.436   .     S
C538   N573    1.436   .     S
C539   F572    1.360   .     S
C539   C541    1.400   .     A
C540   F571    1.359   .     S
C540   C542    1.405   .     A
C541   C545    1.419   .     A
C541   C543    1.412   .     A
C542   C544    1.412   .     A
C542   C546    1.419   .     A
C543   C1215   1.392   .     S
C544   C1216   1.392   1_554 S
C545   C548    1.425   .     A
C545   C1212   1.412   .     S
C546   C547    1.423   .     A
C546   C1211   1.412   1_554 S
C547   N579    1.436   .     S
C547   C549    1.398   .     A
C548   N582    1.438   .     S
C548   C550    1.399   .     A
C549   H551    1.084   .     S
C549   C1209   1.392   1_554 S
C550   H552    1.084   .     S
C550   C1210   1.392   .     S
C555   N585    1.438   .     S
C555   C560    1.406   .     A
C555   C113    1.380   1_565 S
C556   N588    1.435   .     S
C556   C559    1.404   .     A
C557   F591    1.361   .     S
C557   C559    1.399   .     A
C558   F592    1.361   .     S
C558   C560    1.397   .     A
C558   C112    1.376   1_565 S
C561   H563    1.082   .     S
C561   N570    1.367   .     A
C561   C639    1.415   .     S
C562   N569    1.366   .     A
C562   H564    1.082   .     S
C565   N569    1.366   .     A
C565   H567    1.080   .     S
C566   H568    1.081   .     S
C566   N570    1.366   .     A
C566   C636    1.416   .     S
N573   O574    1.302   .     A
N573   O649    1.302   .     S
N576   O578    1.300   .     A
N576   O577    1.299   .     A
N579   O580    1.302   .     A
N579   O581    1.301   .     A
N582   O583    1.302   .     A
N582   O584    1.301   .     A
N585   O586    1.301   .     A
N585   O587    1.301   .     A
N588   O589    1.300   .     A
N588   O590    1.301   .     A
O593   C597    1.280   .     A
O593   Zn605   1.993   .     S
O594   C598    1.280   .     A
O594   Zn606   1.993   .     S
O595   Zn606   1.996   .     S
O595   C597    1.282   .     A
O596   C598    1.282   .     A
O596   Zn605   1.996   .     S
C597   C634    1.415   .     S
C598   C633    1.416   .     S
O599   Zn605   1.956   .     S
O599   C603    1.294   .     A
O600   C604    1.296   .     A
O600   Zn606   1.956   .     S
O601   Zn606   1.913   .     S
O601   C603    1.294   .     A
O602   C604    1.297   .     A
O602   Zn605   1.913   .     S
C603   C607    1.470   .     S
C604   C608    1.476   .     S
Zn605  N643    2.009   .     S
Zn606  N644    2.009   .     S
C607   C611    1.419   .     A
C607   C613    1.400   .     A
C608   C612    1.417   .     A
C608   C614    1.409   .     A
C609   C617    1.400   .     A
C609   H627    1.084   .     S
C609   C611    1.400   .     A
C610   C618    1.398   .     A
C610   H628    1.085   .     S
C610   C612    1.397   .     A
C611   N650    1.436   .     S
C612   N647    1.436   .     S
C613   F646    1.360   .     S
C613   C615    1.400   .     A
C614   F645    1.359   .     S
C614   C616    1.405   .     A
C615   C619    1.419   .     A
C615   C617    1.412   .     A
C616   C618    1.412   .     A
C616   C620    1.419   .     A
C617   C1289   1.392   .     S
C618   C1290   1.392   1_554 S
C619   C622    1.425   .     A
C619   C1286   1.412   .     S
C620   C621    1.423   .     A
C620   C1285   1.412   1_554 S
C621   N653    1.436   .     S
C621   C623    1.398   .     A
C622   N656    1.438   .     S
C622   C624    1.399   .     A
C623   H625    1.084   .     S
C623   C1283   1.392   1_554 S
C624   H626    1.084   .     S
C624   C1284   1.392   .     S
C629   N659    1.438   .     S
C629   C634    1.406   .     A
C629   C187    1.380   1_565 S
C630   N662    1.435   .     S
C630   C633    1.404   .     A
C631   F665    1.361   .     S
C631   C633    1.399   .     A
C632   F666    1.361   .     S
C632   C634    1.397   .     A
C632   C186    1.376   1_565 S
C635   H637    1.082   .     S
C635   N644    1.367   .     A
C635   C491    1.415   1_655 S
C636   N643    1.366   .     A
C636   H638    1.082   .     S
C639   N643    1.366   .     A
C639   H641    1.080   .     S
C640   H642    1.081   .     S
C640   N644    1.366   .     A
C640   C488    1.416   1_655 S
N647   O648    1.302   .     A
N647   O501    1.302   1_655 S
N650   O652    1.300   .     A
N650   O651    1.299   .     A
N653   O654    1.302   .     A
N653   O655    1.301   .     A
N656   O657    1.302   .     A
N656   O658    1.301   .     A
N659   O660    1.301   .     A
N659   O661    1.301   .     A
N662   O663    1.300   .     A
N662   O664    1.301   .     A
O667   C671    1.280   .     A
O667   Zn679   1.993   .     S
O668   C672    1.280   .     A
O668   Zn680   1.993   .     S
O669   Zn680   1.996   .     S
O669   C671    1.282   .     A
O670   C672    1.282   .     A
O670   Zn679   1.996   .     S
C671   C708    1.415   .     S
C672   C707    1.416   .     S
O673   Zn679   1.956   .     S
O673   C677    1.294   .     A
O674   C678    1.296   .     A
O674   Zn680   1.956   .     S
O675   Zn680   1.913   .     S
O675   C677    1.294   .     A
O676   C678    1.297   .     A
O676   Zn679   1.913   .     S
C677   C681    1.470   .     S
C678   C682    1.476   .     S
Zn679  N717    2.009   .     S
Zn680  N718    2.009   .     S
C681   C685    1.419   .     A
C681   C687    1.400   .     A
C682   C686    1.417   .     A
C682   C688    1.409   .     A
C683   C691    1.400   .     A
C683   H701    1.084   .     S
C683   C685    1.400   .     A
C684   C692    1.398   .     A
C684   H702    1.085   .     S
C684   C686    1.397   .     A
C685   N724    1.436   .     S
C686   N721    1.436   .     S
C687   F720    1.360   .     S
C687   C689    1.400   .     A
C688   F719    1.359   .     S
C688   C690    1.405   .     A
C689   C693    1.419   .     A
C689   C691    1.412   .     A
C690   C692    1.412   .     A
C690   C694    1.419   .     A
C691   C31     1.392   1_556 S
C693   C696    1.425   .     A
C693   C28     1.412   1_556 S
C694   C695    1.423   .     A
C695   N727    1.436   .     S
C695   C697    1.398   .     A
C696   N730    1.438   .     S
C696   C698    1.399   .     A
C697   H699    1.084   .     S
C698   H700    1.084   .     S
C698   C26     1.392   1_556 S
C703   N733    1.438   .     S
C703   C708    1.406   .     A
C703   C927    1.380   .     S
C704   N736    1.435   .     S
C704   C707    1.404   .     A
C704   C1150   1.376   1_545 S
C705   F739    1.361   .     S
C705   C707    1.399   .     A
C705   C1147   1.380   1_545 S
C706   F740    1.361   .     S
C706   C708    1.397   .     A
C706   C926    1.376   .     S
C709   H711    1.082   .     S
C709   N718    1.367   .     A
C709   C787    1.415   .     S
C710   N717    1.366   .     A
C710   H712    1.082   .     S
C710   C862    1.416   1_455 S
C713   N717    1.366   .     A
C713   H715    1.080   .     S
C713   C857    1.415   1_455 S
C714   H716    1.081   .     S
C714   N718    1.366   .     A
C714   C784    1.416   .     S
N721   O722    1.302   .     A
N721   O797    1.302   .     S
O723   N869    1.302   1_455 S
N724   O726    1.300   .     A
N724   O725    1.299   .     A
N727   O728    1.302   .     A
N727   O729    1.301   .     A
N730   O731    1.302   .     A
N730   O732    1.301   .     A
N733   O734    1.301   .     A
N733   O735    1.301   .     A
N736   O737    1.300   .     A
N736   O738    1.301   .     A
O741   C745    1.280   .     A
O741   Zn753   1.993   .     S
O742   C746    1.280   .     A
O742   Zn754   1.993   .     S
O743   Zn754   1.996   .     S
O743   C745    1.282   .     A
O744   C746    1.282   .     A
O744   Zn753   1.996   .     S
C745   C782    1.415   .     S
C746   C781    1.416   .     S
O747   Zn753   1.956   .     S
O747   C751    1.294   .     A
O748   C752    1.296   .     A
O748   Zn754   1.956   .     S
O749   Zn754   1.913   .     S
O749   C751    1.294   .     A
O750   C752    1.297   .     A
O750   Zn753   1.913   .     S
C751   C755    1.470   .     S
C752   C756    1.476   .     S
Zn753  N791    2.009   .     S
Zn754  N792    2.009   .     S
C755   C759    1.419   .     A
C755   C761    1.400   .     A
C756   C760    1.417   .     A
C756   C762    1.409   .     A
C757   C765    1.400   .     A
C757   H775    1.084   .     S
C757   C759    1.400   .     A
C758   C766    1.398   .     A
C758   H776    1.085   .     S
C758   C760    1.397   .     A
C759   N798    1.436   .     S
C760   N795    1.436   .     S
C761   F794    1.360   .     S
C761   C763    1.400   .     A
C762   F793    1.359   .     S
C762   C764    1.405   .     A
C763   C767    1.419   .     A
C763   C765    1.412   .     A
C764   C766    1.412   .     A
C764   C768    1.419   .     A
C765   C105    1.392   1_556 S
C767   C770    1.425   .     A
C767   C102    1.412   1_556 S
C768   C769    1.423   .     A
C769   N801    1.436   .     S
C769   C771    1.398   .     A
C770   N804    1.438   .     S
C770   C772    1.399   .     A
C771   H773    1.084   .     S
C772   H774    1.084   .     S
C772   C100    1.392   1_556 S
C777   N807    1.438   .     S
C777   C782    1.406   .     A
C777   C1001   1.380   .     S
C778   N810    1.435   .     S
C778   C781    1.404   .     A
C778   C1224   1.376   1_545 S
C779   F813    1.361   .     S
C779   C781    1.399   .     A
C779   C1221   1.380   1_545 S
C780   F814    1.361   .     S
C780   C782    1.397   .     A
C780   C1000   1.376   .     S
C783   H785    1.082   .     S
C783   N792    1.367   .     A
C783   C861    1.415   .     S
C784   N791    1.366   .     A
C784   H786    1.082   .     S
C787   N791    1.366   .     A
C787   H789    1.080   .     S
C788   H790    1.081   .     S
C788   N792    1.366   .     A
C788   C858    1.416   .     S
N795   O796    1.302   .     A
N795   O871    1.302   .     S
N798   O800    1.300   .     A
N798   O799    1.299   .     A
N801   O802    1.302   .     A
N801   O803    1.301   .     A
N804   O805    1.302   .     A
N804   O806    1.301   .     A
N807   O808    1.301   .     A
N807   O809    1.301   .     A
N810   O811    1.300   .     A
N810   O812    1.301   .     A
O815   C819    1.280   .     A
O815   Zn827   1.993   .     S
O816   C820    1.280   .     A
O816   Zn828   1.993   .     S
O817   Zn828   1.996   .     S
O817   C819    1.282   .     A
O818   C820    1.282   .     A
O818   Zn827   1.996   .     S
C819   C856    1.415   .     S
C820   C855    1.416   .     S
O821   Zn827   1.956   .     S
O821   C825    1.294   .     A
O822   C826    1.296   .     A
O822   Zn828   1.956   .     S
O823   Zn828   1.913   .     S
O823   C825    1.294   .     A
O824   C826    1.297   .     A
O824   Zn827   1.913   .     S
C825   C829    1.470   .     S
C826   C830    1.476   .     S
Zn827  N865    2.009   .     S
Zn828  N866    2.009   .     S
C829   C833    1.419   .     A
C829   C835    1.400   .     A
C830   C834    1.417   .     A
C830   C836    1.409   .     A
C831   C839    1.400   .     A
C831   H849    1.084   .     S
C831   C833    1.400   .     A
C832   C840    1.398   .     A
C832   H850    1.085   .     S
C832   C834    1.397   .     A
C833   N872    1.436   .     S
C834   N869    1.436   .     S
C835   F868    1.360   .     S
C835   C837    1.400   .     A
C836   F867    1.359   .     S
C836   C838    1.405   .     A
C837   C841    1.419   .     A
C837   C839    1.412   .     A
C838   C840    1.412   .     A
C838   C842    1.419   .     A
C839   C179    1.392   1_556 S
C841   C844    1.425   .     A
C841   C176    1.412   1_556 S
C842   C843    1.423   .     A
C843   N875    1.436   .     S
C843   C845    1.398   .     A
C844   N878    1.438   .     S
C844   C846    1.399   .     A
C845   H847    1.084   .     S
C846   H848    1.084   .     S
C846   C174    1.392   1_556 S
C851   N881    1.438   .     S
C851   C856    1.406   .     A
C851   C1075   1.380   .     S
C852   N884    1.435   .     S
C852   C855    1.404   .     A
C852   C1298   1.376   1_545 S
C853   F887    1.361   .     S
C853   C855    1.399   .     A
C853   C1295   1.380   1_545 S
C854   F888    1.361   .     S
C854   C856    1.397   .     A
C854   C1074   1.376   .     S
C857   H859    1.082   .     S
C857   N866    1.367   .     A
C857   C713    1.415   1_655 S
C858   N865    1.366   .     A
C858   H860    1.082   .     S
C861   N865    1.366   .     A
C861   H863    1.080   .     S
C862   H864    1.081   .     S
C862   N866    1.366   .     A
C862   C710    1.416   1_655 S
N869   O870    1.302   .     A
N869   O723    1.302   1_655 S
N872   O874    1.300   .     A
N872   O873    1.299   .     A
N875   O876    1.302   .     A
N875   O877    1.301   .     A
N878   O879    1.302   .     A
N878   O880    1.301   .     A
N881   O882    1.301   .     A
N881   O883    1.301   .     A
N884   O885    1.300   .     A
N884   O886    1.301   .     A
O889   C893    1.280   .     A
O889   Zn901   1.993   .     S
O890   C894    1.280   .     A
O890   Zn902   1.993   .     S
O891   Zn902   1.996   .     S
O891   C893    1.282   .     A
O892   C894    1.282   .     A
O892   Zn901   1.996   .     S
C893   C930    1.415   .     S
C894   C929    1.416   .     S
O895   Zn901   1.956   .     S
O895   C899    1.294   .     A
O896   C900    1.296   .     A
O896   Zn902   1.956   .     S
O897   Zn902   1.913   .     S
O897   C899    1.294   .     A
O898   C900    1.297   .     A
O898   Zn901   1.913   .     S
C899   C903    1.470   .     S
C900   C904    1.476   .     S
Zn901  N939    2.009   .     S
Zn902  N940    2.009   .     S
C903   C907    1.419   .     A
C903   C909    1.400   .     A
C904   C908    1.417   .     A
C904   C910    1.409   .     A
C905   C913    1.400   .     A
C905   H923    1.084   .     S
C905   C907    1.400   .     A
C906   C914    1.398   .     A
C906   H924    1.085   .     S
C906   C908    1.397   .     A
C907   N946    1.436   .     S
C908   N943    1.436   .     S
C909   F942    1.360   .     S
C909   C911    1.400   .     A
C910   F941    1.359   .     S
C910   C912    1.405   .     A
C911   C915    1.419   .     A
C911   C913    1.412   .     A
C912   C914    1.412   .     A
C912   C916    1.419   .     A
C913   C253    1.392   1_556 S
C915   C918    1.425   .     A
C915   C250    1.412   1_556 S
C916   C917    1.423   .     A
C917   N949    1.436   .     S
C917   C919    1.398   .     A
C918   N952    1.438   .     S
C918   C920    1.399   .     A
C919   H921    1.084   .     S
C920   H922    1.084   .     S
C920   C248    1.392   1_556 S
C925   N955    1.438   .     S
C925   C930    1.406   .     A
C925   C1149   1.380   .     S
C926   N958    1.435   .     S
C926   C929    1.404   .     A
C927   F961    1.361   .     S
C927   C929    1.399   .     A
C928   F962    1.361   .     S
C928   C930    1.397   .     A
C928   C1148   1.376   .     S
C931   H933    1.082   .     S
C931   N940    1.367   .     A
C931   C1009   1.415   .     S
C932   N939    1.366   .     A
C932   H934    1.082   .     S
C932   C1084   1.416   1_455 S
C935   N939    1.366   .     A
C935   H937    1.080   .     S
C935   C1079   1.415   1_455 S
C936   H938    1.081   .     S
C936   N940    1.366   .     A
C936   C1006   1.416   .     S
N943   O944    1.302   .     A
N943   O1019   1.302   .     S
O945   N1091   1.302   1_455 S
N946   O948    1.300   .     A
N946   O947    1.299   .     A
N949   O950    1.302   .     A
N949   O951    1.301   .     A
N952   O953    1.302   .     A
N952   O954    1.301   .     A
N955   O956    1.301   .     A
N955   O957    1.301   .     A
N958   O959    1.300   .     A
N958   O960    1.301   .     A
O963   C967    1.280   .     A
O963   Zn975   1.993   .     S
O964   C968    1.280   .     A
O964   Zn976   1.993   .     S
O965   Zn976   1.996   .     S
O965   C967    1.282   .     A
O966   C968    1.282   .     A
O966   Zn975   1.996   .     S
C967   C1004   1.415   .     S
C968   C1003   1.416   .     S
O969   Zn975   1.956   .     S
O969   C973    1.294   .     A
O970   C974    1.296   .     A
O970   Zn976   1.956   .     S
O971   Zn976   1.913   .     S
O971   C973    1.294   .     A
O972   C974    1.297   .     A
O972   Zn975   1.913   .     S
C973   C977    1.470   .     S
C974   C978    1.476   .     S
Zn975  N1013   2.009   .     S
Zn976  N1014   2.009   .     S
C977   C981    1.419   .     A
C977   C983    1.400   .     A
C978   C982    1.417   .     A
C978   C984    1.409   .     A
C979   C987    1.400   .     A
C979   H997    1.084   .     S
C979   C981    1.400   .     A
C980   C988    1.398   .     A
C980   H998    1.085   .     S
C980   C982    1.397   .     A
C981   N1020   1.436   .     S
C982   N1017   1.436   .     S
C983   F1016   1.360   .     S
C983   C985    1.400   .     A
C984   F1015   1.359   .     S
C984   C986    1.405   .     A
C985   C989    1.419   .     A
C985   C987    1.412   .     A
C986   C988    1.412   .     A
C986   C990    1.419   .     A
C987   C327    1.392   1_556 S
C989   C992    1.425   .     A
C989   C324    1.412   1_556 S
C990   C991    1.423   .     A
C991   N1023   1.436   .     S
C991   C993    1.398   .     A
C992   N1026   1.438   .     S
C992   C994    1.399   .     A
C993   H995    1.084   .     S
C994   H996    1.084   .     S
C994   C322    1.392   1_556 S
C999   N1029   1.438   .     S
C999   C1004   1.406   .     A
C999   C1223   1.380   .     S
C1000  N1032   1.435   .     S
C1000  C1003   1.404   .     A
C1001  F1035   1.361   .     S
C1001  C1003   1.399   .     A
C1002  F1036   1.361   .     S
C1002  C1004   1.397   .     A
C1002  C1222   1.376   .     S
C1005  H1007   1.082   .     S
C1005  N1014   1.367   .     A
C1005  C1083   1.415   .     S
C1006  N1013   1.366   .     A
C1006  H1008   1.082   .     S
C1009  N1013   1.366   .     A
C1009  H1011   1.080   .     S
C1010  H1012   1.081   .     S
C1010  N1014   1.366   .     A
C1010  C1080   1.416   .     S
N1017  O1018   1.302   .     A
N1017  O1093   1.302   .     S
N1020  O1022   1.300   .     A
N1020  O1021   1.299   .     A
N1023  O1024   1.302   .     A
N1023  O1025   1.301   .     A
N1026  O1027   1.302   .     A
N1026  O1028   1.301   .     A
N1029  O1030   1.301   .     A
N1029  O1031   1.301   .     A
N1032  O1033   1.300   .     A
N1032  O1034   1.301   .     A
O1037  C1041   1.280   .     A
O1037  Zn1049  1.993   .     S
O1038  C1042   1.280   .     A
O1038  Zn1050  1.993   .     S
O1039  Zn1050  1.996   .     S
O1039  C1041   1.282   .     A
O1040  C1042   1.282   .     A
O1040  Zn1049  1.996   .     S
C1041  C1078   1.415   .     S
C1042  C1077   1.416   .     S
O1043  Zn1049  1.956   .     S
O1043  C1047   1.294   .     A
O1044  C1048   1.296   .     A
O1044  Zn1050  1.956   .     S
O1045  Zn1050  1.913   .     S
O1045  C1047   1.294   .     A
O1046  C1048   1.297   .     A
O1046  Zn1049  1.913   .     S
C1047  C1051   1.470   .     S
C1048  C1052   1.476   .     S
Zn1049 N1087   2.009   .     S
Zn1050 N1088   2.009   .     S
C1051  C1055   1.419   .     A
C1051  C1057   1.400   .     A
C1052  C1056   1.417   .     A
C1052  C1058   1.409   .     A
C1053  C1061   1.400   .     A
C1053  H1071   1.084   .     S
C1053  C1055   1.400   .     A
C1054  C1062   1.398   .     A
C1054  H1072   1.085   .     S
C1054  C1056   1.397   .     A
C1055  N1094   1.436   .     S
C1056  N1091   1.436   .     S
C1057  F1090   1.360   .     S
C1057  C1059   1.400   .     A
C1058  F1089   1.359   .     S
C1058  C1060   1.405   .     A
C1059  C1063   1.419   .     A
C1059  C1061   1.412   .     A
C1060  C1062   1.412   .     A
C1060  C1064   1.419   .     A
C1061  C401    1.392   1_556 S
C1063  C1066   1.425   .     A
C1063  C398    1.412   1_556 S
C1064  C1065   1.423   .     A
C1065  N1097   1.436   .     S
C1065  C1067   1.398   .     A
C1066  N1100   1.438   .     S
C1066  C1068   1.399   .     A
C1067  H1069   1.084   .     S
C1068  H1070   1.084   .     S
C1068  C396    1.392   1_556 S
C1073  N1103   1.438   .     S
C1073  C1078   1.406   .     A
C1073  C1297   1.380   .     S
C1074  N1106   1.435   .     S
C1074  C1077   1.404   .     A
C1075  F1109   1.361   .     S
C1075  C1077   1.399   .     A
C1076  F1110   1.361   .     S
C1076  C1078   1.397   .     A
C1076  C1296   1.376   .     S
C1079  H1081   1.082   .     S
C1079  N1088   1.367   .     A
C1079  C935    1.415   1_655 S
C1080  N1087   1.366   .     A
C1080  H1082   1.082   .     S
C1083  N1087   1.366   .     A
C1083  H1085   1.080   .     S
C1084  H1086   1.081   .     S
C1084  N1088   1.366   .     A
C1084  C932    1.416   1_655 S
N1091  O1092   1.302   .     A
N1091  O945    1.302   1_655 S
N1094  O1096   1.300   .     A
N1094  O1095   1.299   .     A
N1097  O1098   1.302   .     A
N1097  O1099   1.301   .     A
N1100  O1101   1.302   .     A
N1100  O1102   1.301   .     A
N1103  O1104   1.301   .     A
N1103  O1105   1.301   .     A
N1106  O1107   1.300   .     A
N1106  O1108   1.301   .     A
O1111  C1115   1.280   .     A
O1111  Zn1123  1.993   .     S
O1112  C1116   1.280   .     A
O1112  Zn1124  1.993   .     S
O1113  Zn1124  1.996   .     S
O1113  C1115   1.282   .     A
O1114  C1116   1.282   .     A
O1114  Zn1123  1.996   .     S
C1115  C1152   1.415   .     S
C1116  C1151   1.416   .     S
O1117  Zn1123  1.956   .     S
O1117  C1121   1.294   .     A
O1118  C1122   1.296   .     A
O1118  Zn1124  1.956   .     S
O1119  Zn1124  1.913   .     S
O1119  C1121   1.294   .     A
O1120  C1122   1.297   .     A
O1120  Zn1123  1.913   .     S
C1121  C1125   1.470   .     S
C1122  C1126   1.476   .     S
Zn1123 N1161   2.009   .     S
Zn1124 N1162   2.009   .     S
C1125  C1129   1.419   .     A
C1125  C1131   1.400   .     A
C1126  C1130   1.417   .     A
C1126  C1132   1.409   .     A
C1127  C1135   1.400   .     A
C1127  H1145   1.084   .     S
C1127  C1129   1.400   .     A
C1128  C1136   1.398   .     A
C1128  H1146   1.085   .     S
C1128  C1130   1.397   .     A
C1129  N1168   1.436   .     S
C1130  N1165   1.436   .     S
C1131  F1164   1.360   .     S
C1131  C1133   1.400   .     A
C1132  F1163   1.359   .     S
C1132  C1134   1.405   .     A
C1133  C1137   1.419   .     A
C1133  C1135   1.412   .     A
C1134  C1136   1.412   .     A
C1134  C1138   1.419   .     A
C1135  C475    1.392   1_556 S
C1137  C1140   1.425   .     A
C1137  C472    1.412   1_556 S
C1138  C1139   1.423   .     A
C1139  N1171   1.436   .     S
C1139  C1141   1.398   .     A
C1140  N1174   1.438   .     S
C1140  C1142   1.399   .     A
C1141  H1143   1.084   .     S
C1142  H1144   1.084   .     S
C1142  C470    1.392   1_556 S
C1147  N1177   1.438   .     S
C1147  C1152   1.406   .     A
C1147  C705    1.380   1_565 S
C1148  N1180   1.435   .     S
C1148  C1151   1.404   .     A
C1149  F1183   1.361   .     S
C1149  C1151   1.399   .     A
C1150  F1184   1.361   .     S
C1150  C1152   1.397   .     A
C1150  C704    1.376   1_565 S
C1153  H1155   1.082   .     S
C1153  N1162   1.367   .     A
C1153  C1231   1.415   .     S
C1154  N1161   1.366   .     A
C1154  H1156   1.082   .     S
C1154  C1306   1.416   1_455 S
C1157  N1161   1.366   .     A
C1157  H1159   1.080   .     S
C1157  C1301   1.415   1_455 S
C1158  H1160   1.081   .     S
C1158  N1162   1.366   .     A
C1158  C1228   1.416   .     S
N1165  O1166   1.302   .     A
N1165  O1241   1.302   .     S
O1167  N1313   1.302   1_455 S
N1168  O1170   1.300   .     A
N1168  O1169   1.299   .     A
N1171  O1172   1.302   .     A
N1171  O1173   1.301   .     A
N1174  O1175   1.302   .     A
N1174  O1176   1.301   .     A
N1177  O1178   1.301   .     A
N1177  O1179   1.301   .     A
N1180  O1181   1.300   .     A
N1180  O1182   1.301   .     A
O1185  C1189   1.280   .     A
O1185  Zn1197  1.993   .     S
O1186  C1190   1.280   .     A
O1186  Zn1198  1.993   .     S
O1187  Zn1198  1.996   .     S
O1187  C1189   1.282   .     A
O1188  C1190   1.282   .     A
O1188  Zn1197  1.996   .     S
C1189  C1226   1.415   .     S
C1190  C1225   1.416   .     S
O1191  Zn1197  1.956   .     S
O1191  C1195   1.294   .     A
O1192  C1196   1.296   .     A
O1192  Zn1198  1.956   .     S
O1193  Zn1198  1.913   .     S
O1193  C1195   1.294   .     A
O1194  C1196   1.297   .     A
O1194  Zn1197  1.913   .     S
C1195  C1199   1.470   .     S
C1196  C1200   1.476   .     S
Zn1197 N1235   2.009   .     S
Zn1198 N1236   2.009   .     S
C1199  C1203   1.419   .     A
C1199  C1205   1.400   .     A
C1200  C1204   1.417   .     A
C1200  C1206   1.409   .     A
C1201  C1209   1.400   .     A
C1201  H1219   1.084   .     S
C1201  C1203   1.400   .     A
C1202  C1210   1.398   .     A
C1202  H1220   1.085   .     S
C1202  C1204   1.397   .     A
C1203  N1242   1.436   .     S
C1204  N1239   1.436   .     S
C1205  F1238   1.360   .     S
C1205  C1207   1.400   .     A
C1206  F1237   1.359   .     S
C1206  C1208   1.405   .     A
C1207  C1211   1.419   .     A
C1207  C1209   1.412   .     A
C1208  C1210   1.412   .     A
C1208  C1212   1.419   .     A
C1209  C549    1.392   1_556 S
C1211  C1214   1.425   .     A
C1211  C546    1.412   1_556 S
C1212  C1213   1.423   .     A
C1213  N1245   1.436   .     S
C1213  C1215   1.398   .     A
C1214  N1248   1.438   .     S
C1214  C1216   1.399   .     A
C1215  H1217   1.084   .     S
C1216  H1218   1.084   .     S
C1216  C544    1.392   1_556 S
C1221  N1251   1.438   .     S
C1221  C1226   1.406   .     A
C1221  C779    1.380   1_565 S
C1222  N1254   1.435   .     S
C1222  C1225   1.404   .     A
C1223  F1257   1.361   .     S
C1223  C1225   1.399   .     A
C1224  F1258   1.361   .     S
C1224  C1226   1.397   .     A
C1224  C778    1.376   1_565 S
C1227  H1229   1.082   .     S
C1227  N1236   1.367   .     A
C1227  C1305   1.415   .     S
C1228  N1235   1.366   .     A
C1228  H1230   1.082   .     S
C1231  N1235   1.366   .     A
C1231  H1233   1.080   .     S
C1232  H1234   1.081   .     S
C1232  N1236   1.366   .     A
C1232  C1302   1.416   .     S
N1239  O1240   1.302   .     A
N1239  O1315   1.302   .     S
N1242  O1244   1.300   .     A
N1242  O1243   1.299   .     A
N1245  O1246   1.302   .     A
N1245  O1247   1.301   .     A
N1248  O1249   1.302   .     A
N1248  O1250   1.301   .     A
N1251  O1252   1.301   .     A
N1251  O1253   1.301   .     A
N1254  O1255   1.300   .     A
N1254  O1256   1.301   .     A
O1259  C1263   1.280   .     A
O1259  Zn1271  1.993   .     S
O1260  C1264   1.280   .     A
O1260  Zn1272  1.993   .     S
O1261  Zn1272  1.996   .     S
O1261  C1263   1.282   .     A
O1262  C1264   1.282   .     A
O1262  Zn1271  1.996   .     S
C1263  C1300   1.415   .     S
C1264  C1299   1.416   .     S
O1265  Zn1271  1.956   .     S
O1265  C1269   1.294   .     A
O1266  C1270   1.296   .     A
O1266  Zn1272  1.956   .     S
O1267  Zn1272  1.913   .     S
O1267  C1269   1.294   .     A
O1268  C1270   1.297   .     A
O1268  Zn1271  1.913   .     S
C1269  C1273   1.470   .     S
C1270  C1274   1.476   .     S
Zn1271 N1309   2.009   .     S
Zn1272 N1310   2.009   .     S
C1273  C1277   1.419   .     A
C1273  C1279   1.400   .     A
C1274  C1278   1.417   .     A
C1274  C1280   1.409   .     A
C1275  C1283   1.400   .     A
C1275  H1293   1.084   .     S
C1275  C1277   1.400   .     A
C1276  C1284   1.398   .     A
C1276  H1294   1.085   .     S
C1276  C1278   1.397   .     A
C1277  N1316   1.436   .     S
C1278  N1313   1.436   .     S
C1279  F1312   1.360   .     S
C1279  C1281   1.400   .     A
C1280  F1311   1.359   .     S
C1280  C1282   1.405   .     A
C1281  C1285   1.419   .     A
C1281  C1283   1.412   .     A
C1282  C1284   1.412   .     A
C1282  C1286   1.419   .     A
C1283  C623    1.392   1_556 S
C1285  C1288   1.425   .     A
C1285  C620    1.412   1_556 S
C1286  C1287   1.423   .     A
C1287  N1319   1.436   .     S
C1287  C1289   1.398   .     A
C1288  N1322   1.438   .     S
C1288  C1290   1.399   .     A
C1289  H1291   1.084   .     S
C1290  H1292   1.084   .     S
C1290  C618    1.392   1_556 S
C1295  N1325   1.438   .     S
C1295  C1300   1.406   .     A
C1295  C853    1.380   1_565 S
C1296  N1328   1.435   .     S
C1296  C1299   1.404   .     A
C1297  F1331   1.361   .     S
C1297  C1299   1.399   .     A
C1298  F1332   1.361   .     S
C1298  C1300   1.397   .     A
C1298  C852    1.376   1_565 S
C1301  H1303   1.082   .     S
C1301  N1310   1.367   .     A
C1301  C1157   1.415   1_655 S
C1302  N1309   1.366   .     A
C1302  H1304   1.082   .     S
C1305  N1309   1.366   .     A
C1305  H1307   1.080   .     S
C1306  H1308   1.081   .     S
C1306  N1310   1.366   .     A
C1306  C1154   1.416   1_655 S
N1313  O1314   1.302   .     A
N1313  O1167   1.302   1_655 S
N1316  O1318   1.300   .     A
N1316  O1317   1.299   .     A
N1319  O1320   1.302   .     A
N1319  O1321   1.301   .     A
N1322  O1323   1.302   .     A
N1322  O1324   1.301   .     A
N1325  O1326   1.301   .     A
N1325  O1327   1.301   .     A
N1328  O1329   1.300   .     A
N1328  O1330   1.301   .     A
