data_str_m3_o1_o2_pcu_sym.90
_audit_creation_date              2020-01-03
_audit_creation_method            'Materials Studio'
_symmetry_space_group_name_H-M    'P1'
_symmetry_Int_Tables_number       1
_symmetry_cell_setting            triclinic
loop_
_symmetry_equiv_pos_as_xyz
  x,y,z
_cell_length_a                    32.1150
_cell_length_b                    29.5246
_cell_length_c                    30.0378
_cell_angle_alpha                 90.0334
_cell_angle_beta                  90.0874
_cell_angle_gamma                 90.0066
loop_
_atom_site_label
_atom_site_type_symbol
_atom_site_fract_x
_atom_site_fract_y
_atom_site_fract_z
_atom_site_U_iso_or_equiv
_atom_site_adp_type
_atom_site_occupancy
C1     C     0.08663   0.16666   0.24998   0.00000  Uiso   1.00
C2     C     0.31204   0.20795   0.25185   0.00000  Uiso   1.00
C3     C     0.31203   0.12536   0.24889   0.00000  Uiso   1.00
C4     C     0.02130   0.20796   0.25165   0.00000  Uiso   1.00
C5     C     0.13084   0.17956   0.04718   0.00000  Uiso   1.00
C6     C     0.20213   0.18031   0.45292   0.00000  Uiso   1.00
C7     C     0.13116   0.15206   0.45258   0.00000  Uiso   1.00
C8     C     0.20222   0.15258   0.04735   0.00000  Uiso   1.00
C9     C     0.13001   0.17863   0.09327   0.00000  Uiso   1.00
C10    C     0.20307   0.17938   0.40683   0.00000  Uiso   1.00
C11    C     0.13038   0.15327   0.40650   0.00000  Uiso   1.00
C12    C     0.24670   0.16667   0.25011   0.00000  Uiso   1.00
C13    C     0.20308   0.15381   0.09344   0.00000  Uiso   1.00
C14    C     0.16660   0.16648   0.11639   0.00000  Uiso   1.00
C15    C     0.16671   0.16656   0.38362   0.00000  Uiso   1.00
C16    C     0.16654   0.16607   0.02421   0.00000  Uiso   1.00
C17    C     0.16660   0.16614   0.47581   0.00000  Uiso   1.00
C18    C     0.29086   0.16666   0.25029   0.00000  Uiso   1.00
C19    C     0.04247   0.16666   0.25023   0.00000  Uiso   1.00
C20    C     0.16663   0.16663   0.16411   0.00000  Uiso   1.00
C21    C     0.16676   0.16666   0.33590   0.00000  Uiso   1.00
C22    C     0.19811   0.02401   0.27003   0.00000  Uiso   1.00
C23    C     0.13519   0.30936   0.23003   0.00000  Uiso   1.00
C24    C     0.13523   0.02397   0.22995   0.00000  Uiso   1.00
C25    C     0.19815   0.30940   0.26995   0.00000  Uiso   1.00
C26    C     0.02128   0.12535   0.24905   0.00000  Uiso   1.00
H27    H     0.22324   0.04216   0.28611   0.00000  Uiso   1.00
H28    H     0.29588   0.24014   0.25307   0.00000  Uiso   1.00
H29    H     0.29585   0.09317   0.24770   0.00000  Uiso   1.00
H30    H     0.03747   0.24015   0.25269   0.00000  Uiso   1.00
H31    H     0.03777   0.14530   0.15277   0.00000  Uiso   1.00
H32    H     0.29592   0.14788   0.34716   0.00000  Uiso   1.00
H33    H     0.06488   0.21084   0.37125   0.00000  Uiso   1.00
H34    H     0.29576   0.18568   0.15342   0.00000  Uiso   1.00
H35    H     0.10998   0.29127   0.21412   0.00000  Uiso   1.00
H36    H     0.11011   0.04210   0.21387   0.00000  Uiso   1.00
H37    H     0.22338   0.29134   0.28582   0.00000  Uiso   1.00
H38    H     0.10350   0.19052   0.02905   0.00000  Uiso   1.00
H39    H     0.22926   0.19177   0.47112   0.00000  Uiso   1.00
H40    H     0.10399   0.14038   0.47049   0.00000  Uiso   1.00
H41    H     0.22950   0.14138   0.02935   0.00000  Uiso   1.00
H42    H     0.03745   0.09316   0.24795   0.00000  Uiso   1.00
N43    N     0.16667   0.28573   0.25000   0.00000  Uiso   1.00
N44    N     0.16667   0.04760   0.25000   0.00000  Uiso   1.00
O45    O     0.10559   0.20487   0.24999   0.00000  Uiso   1.00
O46    O     0.04861   0.20076   0.08742   0.00000  Uiso   1.00
O47    O     0.06835   0.14296   0.14914   0.00000  Uiso   1.00
O48    O     0.24557   0.23002   0.34793   0.00000  Uiso   1.00
O49    O     0.28413   0.20286   0.41297   0.00000  Uiso   1.00
O50    O     0.26544   0.14473   0.35113   0.00000  Uiso   1.00
O51    O     0.08887   0.10133   0.34783   0.00000  Uiso   1.00
O52    O     0.04911   0.12930   0.41147   0.00000  Uiso   1.00
O53    O     0.06818   0.18626   0.34907   0.00000  Uiso   1.00
O54    O     0.24538   0.10334   0.15287   0.00000  Uiso   1.00
O55    O     0.28416   0.13026   0.08798   0.00000  Uiso   1.00
O56    O     0.22774   0.12846   0.25000   0.00000  Uiso   1.00
O57    O     0.26526   0.18866   0.14944   0.00000  Uiso   1.00
O58    O     0.22774   0.20487   0.25000   0.00000  Uiso   1.00
O59    O     0.10559   0.12846   0.24999   0.00000  Uiso   1.00
O60    O     0.16666   0.20489   0.18453   0.00000  Uiso   1.00
O61    O     0.16667   0.12845   0.31547   0.00000  Uiso   1.00
O62    O     0.16667   0.20489   0.31547   0.00000  Uiso   1.00
O63    O     0.16666   0.12845   0.18453   0.00000  Uiso   1.00
O64    O     0.08699   0.22859   0.15236   0.00000  Uiso   1.00
S65    S     0.08215   0.18959   0.12066   0.00000  Uiso   1.00
S66    S     0.25086   0.19111   0.37961   0.00000  Uiso   1.00
S67    S     0.08290   0.14079   0.37877   0.00000  Uiso   1.00
S68    S     0.25078   0.14214   0.12106   0.00000  Uiso   1.00
Zn69   Zn    0.16667   0.21771   0.25000   0.00000  Uiso   1.00
Zn70   Zn    0.16667   0.11563   0.25000   0.00000  Uiso   1.00
C71    C     0.41996   0.16666   0.24998   0.00000  Uiso   1.00
C72    C     0.64538   0.20795   0.25185   0.00000  Uiso   1.00
C73    C     0.64536   0.12536   0.24889   0.00000  Uiso   1.00
C74    C     0.35463   0.20796   0.25165   0.00000  Uiso   1.00
C75    C     0.46417   0.17956   0.04718   0.00000  Uiso   1.00
C76    C     0.53546   0.18031   0.45292   0.00000  Uiso   1.00
C77    C     0.46449   0.15206   0.45258   0.00000  Uiso   1.00
C78    C     0.53555   0.15258   0.04735   0.00000  Uiso   1.00
C79    C     0.46335   0.17863   0.09327   0.00000  Uiso   1.00
C80    C     0.53640   0.17938   0.40683   0.00000  Uiso   1.00
C81    C     0.46372   0.15327   0.40650   0.00000  Uiso   1.00
C82    C     0.58003   0.16667   0.25011   0.00000  Uiso   1.00
C83    C     0.53641   0.15381   0.09344   0.00000  Uiso   1.00
C84    C     0.49993   0.16648   0.11639   0.00000  Uiso   1.00
C85    C     0.50005   0.16656   0.38362   0.00000  Uiso   1.00
C86    C     0.49988   0.16607   0.02421   0.00000  Uiso   1.00
C87    C     0.49993   0.16614   0.47581   0.00000  Uiso   1.00
C88    C     0.62419   0.16666   0.25029   0.00000  Uiso   1.00
C89    C     0.37580   0.16666   0.25023   0.00000  Uiso   1.00
C90    C     0.49996   0.16663   0.16411   0.00000  Uiso   1.00
C91    C     0.50009   0.16666   0.33590   0.00000  Uiso   1.00
C92    C     0.53144   0.02401   0.27003   0.00000  Uiso   1.00
C93    C     0.46853   0.30936   0.23003   0.00000  Uiso   1.00
C94    C     0.46856   0.02397   0.22995   0.00000  Uiso   1.00
C95    C     0.53148   0.30940   0.26995   0.00000  Uiso   1.00
C96    C     0.35461   0.12535   0.24905   0.00000  Uiso   1.00
H97    H     0.55657   0.04216   0.28611   0.00000  Uiso   1.00
H98    H     0.62921   0.24014   0.25307   0.00000  Uiso   1.00
H99    H     0.62918   0.09317   0.24770   0.00000  Uiso   1.00
H100   H     0.37081   0.24015   0.25269   0.00000  Uiso   1.00
H101   H     0.37110   0.14530   0.15277   0.00000  Uiso   1.00
H102   H     0.62925   0.14788   0.34716   0.00000  Uiso   1.00
H103   H     0.39821   0.21084   0.37125   0.00000  Uiso   1.00
H104   H     0.62909   0.18568   0.15342   0.00000  Uiso   1.00
H105   H     0.44331   0.29127   0.21412   0.00000  Uiso   1.00
H106   H     0.44344   0.04210   0.21387   0.00000  Uiso   1.00
H107   H     0.55672   0.29134   0.28582   0.00000  Uiso   1.00
H108   H     0.43684   0.19052   0.02905   0.00000  Uiso   1.00
H109   H     0.56260   0.19177   0.47112   0.00000  Uiso   1.00
H110   H     0.43733   0.14038   0.47049   0.00000  Uiso   1.00
H111   H     0.56283   0.14138   0.02935   0.00000  Uiso   1.00
H112   H     0.37078   0.09316   0.24795   0.00000  Uiso   1.00
N113   N     0.50000   0.28573   0.25000   0.00000  Uiso   1.00
N114   N     0.50000   0.04760   0.25000   0.00000  Uiso   1.00
O115   O     0.43892   0.20487   0.24999   0.00000  Uiso   1.00
O116   O     0.38195   0.20076   0.08742   0.00000  Uiso   1.00
O117   O     0.40168   0.14296   0.14914   0.00000  Uiso   1.00
O118   O     0.57891   0.23002   0.34793   0.00000  Uiso   1.00
O119   O     0.61747   0.20286   0.41297   0.00000  Uiso   1.00
O120   O     0.59877   0.14473   0.35113   0.00000  Uiso   1.00
O121   O     0.42220   0.10133   0.34783   0.00000  Uiso   1.00
O122   O     0.38244   0.12930   0.41147   0.00000  Uiso   1.00
O123   O     0.40151   0.18626   0.34907   0.00000  Uiso   1.00
O124   O     0.57871   0.10334   0.15287   0.00000  Uiso   1.00
O125   O     0.61749   0.13026   0.08798   0.00000  Uiso   1.00
O126   O     0.56108   0.12846   0.25000   0.00000  Uiso   1.00
O127   O     0.59860   0.18866   0.14944   0.00000  Uiso   1.00
O128   O     0.56108   0.20487   0.25000   0.00000  Uiso   1.00
O129   O     0.43892   0.12846   0.24999   0.00000  Uiso   1.00
O130   O     0.50000   0.20489   0.18453   0.00000  Uiso   1.00
O131   O     0.50000   0.12845   0.31547   0.00000  Uiso   1.00
O132   O     0.50000   0.20489   0.31547   0.00000  Uiso   1.00
O133   O     0.50000   0.12845   0.18453   0.00000  Uiso   1.00
O134   O     0.42032   0.22859   0.15236   0.00000  Uiso   1.00
S135   S     0.41548   0.18959   0.12066   0.00000  Uiso   1.00
S136   S     0.58419   0.19111   0.37961   0.00000  Uiso   1.00
S137   S     0.41623   0.14079   0.37877   0.00000  Uiso   1.00
S138   S     0.58412   0.14214   0.12106   0.00000  Uiso   1.00
Zn139  Zn    0.50000   0.21771   0.25000   0.00000  Uiso   1.00
Zn140  Zn    0.50000   0.11563   0.25000   0.00000  Uiso   1.00
C141   C     0.75330   0.16666   0.24998   0.00000  Uiso   1.00
C142   C     0.97871   0.20795   0.25185   0.00000  Uiso   1.00
C143   C     0.97869   0.12536   0.24889   0.00000  Uiso   1.00
C144   C     0.68796   0.20796   0.25165   0.00000  Uiso   1.00
C145   C     0.79751   0.17956   0.04718   0.00000  Uiso   1.00
C146   C     0.86879   0.18031   0.45292   0.00000  Uiso   1.00
C147   C     0.79783   0.15206   0.45258   0.00000  Uiso   1.00
C148   C     0.86888   0.15258   0.04735   0.00000  Uiso   1.00
C149   C     0.79668   0.17863   0.09327   0.00000  Uiso   1.00
C150   C     0.86974   0.17938   0.40683   0.00000  Uiso   1.00
C151   C     0.79705   0.15327   0.40650   0.00000  Uiso   1.00
C152   C     0.91337   0.16667   0.25011   0.00000  Uiso   1.00
C153   C     0.86975   0.15381   0.09344   0.00000  Uiso   1.00
C154   C     0.83327   0.16648   0.11639   0.00000  Uiso   1.00
C155   C     0.83338   0.16656   0.38362   0.00000  Uiso   1.00
C156   C     0.83321   0.16607   0.02421   0.00000  Uiso   1.00
C157   C     0.83327   0.16614   0.47581   0.00000  Uiso   1.00
C158   C     0.95752   0.16666   0.25029   0.00000  Uiso   1.00
C159   C     0.70913   0.16666   0.25023   0.00000  Uiso   1.00
C160   C     0.83329   0.16663   0.16411   0.00000  Uiso   1.00
C161   C     0.83343   0.16666   0.33590   0.00000  Uiso   1.00
C162   C     0.86478   0.02401   0.27003   0.00000  Uiso   1.00
C163   C     0.80186   0.30936   0.23003   0.00000  Uiso   1.00
C164   C     0.80190   0.02397   0.22995   0.00000  Uiso   1.00
C165   C     0.86481   0.30940   0.26995   0.00000  Uiso   1.00
C166   C     0.68795   0.12535   0.24905   0.00000  Uiso   1.00
H167   H     0.88991   0.04216   0.28611   0.00000  Uiso   1.00
H168   H     0.96254   0.24014   0.25307   0.00000  Uiso   1.00
H169   H     0.96252   0.09317   0.24770   0.00000  Uiso   1.00
H170   H     0.70414   0.24015   0.25269   0.00000  Uiso   1.00
H171   H     0.70444   0.14530   0.15277   0.00000  Uiso   1.00
H172   H     0.96258   0.14788   0.34716   0.00000  Uiso   1.00
H173   H     0.73154   0.21084   0.37125   0.00000  Uiso   1.00
H174   H     0.96243   0.18568   0.15342   0.00000  Uiso   1.00
H175   H     0.77664   0.29127   0.21412   0.00000  Uiso   1.00
H176   H     0.77677   0.04210   0.21387   0.00000  Uiso   1.00
H177   H     0.89005   0.29134   0.28582   0.00000  Uiso   1.00
H178   H     0.77017   0.19052   0.02905   0.00000  Uiso   1.00
H179   H     0.89593   0.19177   0.47112   0.00000  Uiso   1.00
H180   H     0.77066   0.14038   0.47049   0.00000  Uiso   1.00
H181   H     0.89617   0.14138   0.02935   0.00000  Uiso   1.00
H182   H     0.70411   0.09316   0.24795   0.00000  Uiso   1.00
N183   N     0.83333   0.28573   0.25000   0.00000  Uiso   1.00
N184   N     0.83333   0.04760   0.25000   0.00000  Uiso   1.00
O185   O     0.77226   0.20487   0.24999   0.00000  Uiso   1.00
O186   O     0.71528   0.20076   0.08742   0.00000  Uiso   1.00
O187   O     0.73501   0.14296   0.14914   0.00000  Uiso   1.00
O188   O     0.91224   0.23002   0.34793   0.00000  Uiso   1.00
O189   O     0.95080   0.20286   0.41297   0.00000  Uiso   1.00
O190   O     0.93210   0.14473   0.35113   0.00000  Uiso   1.00
O191   O     0.75553   0.10133   0.34783   0.00000  Uiso   1.00
O192   O     0.71577   0.12930   0.41147   0.00000  Uiso   1.00
O193   O     0.73484   0.18626   0.34907   0.00000  Uiso   1.00
O194   O     0.91204   0.10334   0.15287   0.00000  Uiso   1.00
O195   O     0.95083   0.13026   0.08798   0.00000  Uiso   1.00
O196   O     0.89441   0.12846   0.25000   0.00000  Uiso   1.00
O197   O     0.93193   0.18866   0.14944   0.00000  Uiso   1.00
O198   O     0.89441   0.20487   0.25000   0.00000  Uiso   1.00
O199   O     0.77226   0.12846   0.24999   0.00000  Uiso   1.00
O200   O     0.83333   0.20489   0.18453   0.00000  Uiso   1.00
O201   O     0.83334   0.12845   0.31547   0.00000  Uiso   1.00
O202   O     0.83334   0.20489   0.31547   0.00000  Uiso   1.00
O203   O     0.83333   0.12845   0.18453   0.00000  Uiso   1.00
O204   O     0.75365   0.22859   0.15236   0.00000  Uiso   1.00
S205   S     0.74881   0.18959   0.12066   0.00000  Uiso   1.00
S206   S     0.91753   0.19111   0.37961   0.00000  Uiso   1.00
S207   S     0.74956   0.14079   0.37877   0.00000  Uiso   1.00
S208   S     0.91745   0.14214   0.12106   0.00000  Uiso   1.00
Zn209  Zn    0.83333   0.21771   0.25000   0.00000  Uiso   1.00
Zn210  Zn    0.83333   0.11563   0.25000   0.00000  Uiso   1.00
C211   C     0.08663   0.50000   0.24998   0.00000  Uiso   1.00
C212   C     0.31204   0.54129   0.25185   0.00000  Uiso   1.00
C213   C     0.31203   0.45869   0.24889   0.00000  Uiso   1.00
C214   C     0.02130   0.54129   0.25165   0.00000  Uiso   1.00
C215   C     0.13084   0.51289   0.04718   0.00000  Uiso   1.00
C216   C     0.20213   0.51364   0.45292   0.00000  Uiso   1.00
C217   C     0.13116   0.48539   0.45258   0.00000  Uiso   1.00
C218   C     0.20222   0.48591   0.04735   0.00000  Uiso   1.00
C219   C     0.13001   0.51197   0.09327   0.00000  Uiso   1.00
C220   C     0.20307   0.51271   0.40683   0.00000  Uiso   1.00
C221   C     0.13038   0.48660   0.40650   0.00000  Uiso   1.00
C222   C     0.24670   0.50000   0.25011   0.00000  Uiso   1.00
C223   C     0.20308   0.48714   0.09344   0.00000  Uiso   1.00
C224   C     0.16660   0.49981   0.11639   0.00000  Uiso   1.00
C225   C     0.16671   0.49989   0.38362   0.00000  Uiso   1.00
C226   C     0.16654   0.49940   0.02421   0.00000  Uiso   1.00
C227   C     0.16660   0.49948   0.47581   0.00000  Uiso   1.00
C228   C     0.29086   0.49999   0.25029   0.00000  Uiso   1.00
C229   C     0.04247   0.49999   0.25023   0.00000  Uiso   1.00
C230   C     0.16663   0.49997   0.16411   0.00000  Uiso   1.00
C231   C     0.16676   0.49999   0.33590   0.00000  Uiso   1.00
C232   C     0.19811   0.35734   0.27003   0.00000  Uiso   1.00
C233   C     0.13519   0.64269   0.23003   0.00000  Uiso   1.00
C234   C     0.13523   0.35731   0.22995   0.00000  Uiso   1.00
C235   C     0.19815   0.64273   0.26995   0.00000  Uiso   1.00
C236   C     0.02128   0.45868   0.24905   0.00000  Uiso   1.00
H237   H     0.22324   0.37549   0.28611   0.00000  Uiso   1.00
H238   H     0.29588   0.57347   0.25307   0.00000  Uiso   1.00
H239   H     0.29585   0.42650   0.24770   0.00000  Uiso   1.00
H240   H     0.03747   0.57348   0.25269   0.00000  Uiso   1.00
H241   H     0.03777   0.47863   0.15277   0.00000  Uiso   1.00
H242   H     0.29592   0.48121   0.34716   0.00000  Uiso   1.00
H243   H     0.06488   0.54417   0.37125   0.00000  Uiso   1.00
H244   H     0.29576   0.51901   0.15342   0.00000  Uiso   1.00
H245   H     0.10998   0.62460   0.21412   0.00000  Uiso   1.00
H246   H     0.11011   0.37544   0.21387   0.00000  Uiso   1.00
H247   H     0.22338   0.62467   0.28582   0.00000  Uiso   1.00
H248   H     0.10350   0.52386   0.02905   0.00000  Uiso   1.00
H249   H     0.22926   0.52510   0.47112   0.00000  Uiso   1.00
H250   H     0.10399   0.47371   0.47049   0.00000  Uiso   1.00
H251   H     0.22950   0.47472   0.02935   0.00000  Uiso   1.00
H252   H     0.03745   0.42649   0.24795   0.00000  Uiso   1.00
N253   N     0.16667   0.61907   0.25000   0.00000  Uiso   1.00
N254   N     0.16667   0.38093   0.25000   0.00000  Uiso   1.00
O255   O     0.10559   0.53821   0.24999   0.00000  Uiso   1.00
O256   O     0.04861   0.53409   0.08742   0.00000  Uiso   1.00
O257   O     0.06835   0.47629   0.14914   0.00000  Uiso   1.00
O258   O     0.24557   0.56335   0.34793   0.00000  Uiso   1.00
O259   O     0.28413   0.53620   0.41297   0.00000  Uiso   1.00
O260   O     0.26544   0.47806   0.35113   0.00000  Uiso   1.00
O261   O     0.08887   0.43466   0.34783   0.00000  Uiso   1.00
O262   O     0.04911   0.46263   0.41147   0.00000  Uiso   1.00
O263   O     0.06818   0.51960   0.34907   0.00000  Uiso   1.00
O264   O     0.24538   0.43668   0.15287   0.00000  Uiso   1.00
O265   O     0.28416   0.46359   0.08798   0.00000  Uiso   1.00
O266   O     0.22774   0.46179   0.25000   0.00000  Uiso   1.00
O267   O     0.26526   0.52199   0.14944   0.00000  Uiso   1.00
O268   O     0.22774   0.53821   0.25000   0.00000  Uiso   1.00
O269   O     0.10559   0.46179   0.24999   0.00000  Uiso   1.00
O270   O     0.16666   0.53822   0.18453   0.00000  Uiso   1.00
O271   O     0.16667   0.46178   0.31547   0.00000  Uiso   1.00
O272   O     0.16667   0.53822   0.31547   0.00000  Uiso   1.00
O273   O     0.16666   0.46178   0.18453   0.00000  Uiso   1.00
O274   O     0.08699   0.56192   0.15236   0.00000  Uiso   1.00
S275   S     0.08215   0.52292   0.12066   0.00000  Uiso   1.00
S276   S     0.25086   0.52445   0.37961   0.00000  Uiso   1.00
S277   S     0.08290   0.47412   0.37877   0.00000  Uiso   1.00
S278   S     0.25078   0.47548   0.12106   0.00000  Uiso   1.00
Zn279  Zn    0.16667   0.55104   0.25000   0.00000  Uiso   1.00
Zn280  Zn    0.16667   0.44896   0.25000   0.00000  Uiso   1.00
C281   C     0.41996   0.50000   0.24998   0.00000  Uiso   1.00
C282   C     0.64538   0.54129   0.25185   0.00000  Uiso   1.00
C283   C     0.64536   0.45869   0.24889   0.00000  Uiso   1.00
C284   C     0.35463   0.54129   0.25165   0.00000  Uiso   1.00
C285   C     0.46417   0.51289   0.04718   0.00000  Uiso   1.00
C286   C     0.53546   0.51364   0.45292   0.00000  Uiso   1.00
C287   C     0.46449   0.48539   0.45258   0.00000  Uiso   1.00
C288   C     0.53555   0.48591   0.04735   0.00000  Uiso   1.00
C289   C     0.46335   0.51197   0.09327   0.00000  Uiso   1.00
C290   C     0.53640   0.51271   0.40683   0.00000  Uiso   1.00
C291   C     0.46372   0.48660   0.40650   0.00000  Uiso   1.00
C292   C     0.58003   0.50000   0.25011   0.00000  Uiso   1.00
C293   C     0.53641   0.48714   0.09344   0.00000  Uiso   1.00
C294   C     0.49993   0.49981   0.11639   0.00000  Uiso   1.00
C295   C     0.50005   0.49989   0.38362   0.00000  Uiso   1.00
C296   C     0.49988   0.49940   0.02421   0.00000  Uiso   1.00
C297   C     0.49993   0.49948   0.47581   0.00000  Uiso   1.00
C298   C     0.62419   0.49999   0.25029   0.00000  Uiso   1.00
C299   C     0.37580   0.49999   0.25023   0.00000  Uiso   1.00
C300   C     0.49996   0.49997   0.16411   0.00000  Uiso   1.00
C301   C     0.50009   0.49999   0.33590   0.00000  Uiso   1.00
C302   C     0.53144   0.35734   0.27003   0.00000  Uiso   1.00
C303   C     0.46853   0.64269   0.23003   0.00000  Uiso   1.00
C304   C     0.46856   0.35731   0.22995   0.00000  Uiso   1.00
C305   C     0.53148   0.64273   0.26995   0.00000  Uiso   1.00
C306   C     0.35461   0.45868   0.24905   0.00000  Uiso   1.00
H307   H     0.55657   0.37549   0.28611   0.00000  Uiso   1.00
H308   H     0.62921   0.57347   0.25307   0.00000  Uiso   1.00
H309   H     0.62918   0.42650   0.24770   0.00000  Uiso   1.00
H310   H     0.37081   0.57348   0.25269   0.00000  Uiso   1.00
H311   H     0.37110   0.47863   0.15277   0.00000  Uiso   1.00
H312   H     0.62925   0.48121   0.34716   0.00000  Uiso   1.00
H313   H     0.39821   0.54417   0.37125   0.00000  Uiso   1.00
H314   H     0.62909   0.51901   0.15342   0.00000  Uiso   1.00
H315   H     0.44331   0.62460   0.21412   0.00000  Uiso   1.00
H316   H     0.44344   0.37544   0.21387   0.00000  Uiso   1.00
H317   H     0.55672   0.62467   0.28582   0.00000  Uiso   1.00
H318   H     0.43684   0.52386   0.02905   0.00000  Uiso   1.00
H319   H     0.56260   0.52510   0.47112   0.00000  Uiso   1.00
H320   H     0.43733   0.47371   0.47049   0.00000  Uiso   1.00
H321   H     0.56283   0.47472   0.02935   0.00000  Uiso   1.00
H322   H     0.37078   0.42649   0.24795   0.00000  Uiso   1.00
N323   N     0.50000   0.61907   0.25000   0.00000  Uiso   1.00
N324   N     0.50000   0.38093   0.25000   0.00000  Uiso   1.00
O325   O     0.43892   0.53821   0.24999   0.00000  Uiso   1.00
O326   O     0.38195   0.53409   0.08742   0.00000  Uiso   1.00
O327   O     0.40168   0.47629   0.14914   0.00000  Uiso   1.00
O328   O     0.57891   0.56335   0.34793   0.00000  Uiso   1.00
O329   O     0.61747   0.53620   0.41297   0.00000  Uiso   1.00
O330   O     0.59877   0.47806   0.35113   0.00000  Uiso   1.00
O331   O     0.42220   0.43466   0.34783   0.00000  Uiso   1.00
O332   O     0.38244   0.46263   0.41147   0.00000  Uiso   1.00
O333   O     0.40151   0.51960   0.34907   0.00000  Uiso   1.00
O334   O     0.57871   0.43668   0.15287   0.00000  Uiso   1.00
O335   O     0.61749   0.46359   0.08798   0.00000  Uiso   1.00
O336   O     0.56108   0.46179   0.25000   0.00000  Uiso   1.00
O337   O     0.59860   0.52199   0.14944   0.00000  Uiso   1.00
O338   O     0.56108   0.53821   0.25000   0.00000  Uiso   1.00
O339   O     0.43892   0.46179   0.24999   0.00000  Uiso   1.00
O340   O     0.50000   0.53822   0.18453   0.00000  Uiso   1.00
O341   O     0.50000   0.46178   0.31547   0.00000  Uiso   1.00
O342   O     0.50000   0.53822   0.31547   0.00000  Uiso   1.00
O343   O     0.50000   0.46178   0.18453   0.00000  Uiso   1.00
O344   O     0.42032   0.56192   0.15236   0.00000  Uiso   1.00
S345   S     0.41548   0.52292   0.12066   0.00000  Uiso   1.00
S346   S     0.58419   0.52445   0.37961   0.00000  Uiso   1.00
S347   S     0.41623   0.47412   0.37877   0.00000  Uiso   1.00
S348   S     0.58412   0.47548   0.12106   0.00000  Uiso   1.00
Zn349  Zn    0.50000   0.55104   0.25000   0.00000  Uiso   1.00
Zn350  Zn    0.50000   0.44896   0.25000   0.00000  Uiso   1.00
C351   C     0.75330   0.50000   0.24998   0.00000  Uiso   1.00
C352   C     0.97871   0.54129   0.25185   0.00000  Uiso   1.00
C353   C     0.97869   0.45869   0.24889   0.00000  Uiso   1.00
C354   C     0.68796   0.54129   0.25165   0.00000  Uiso   1.00
C355   C     0.79751   0.51289   0.04718   0.00000  Uiso   1.00
C356   C     0.86879   0.51364   0.45292   0.00000  Uiso   1.00
C357   C     0.79783   0.48539   0.45258   0.00000  Uiso   1.00
C358   C     0.86888   0.48591   0.04735   0.00000  Uiso   1.00
C359   C     0.79668   0.51197   0.09327   0.00000  Uiso   1.00
C360   C     0.86974   0.51271   0.40683   0.00000  Uiso   1.00
C361   C     0.79705   0.48660   0.40650   0.00000  Uiso   1.00
C362   C     0.91337   0.50000   0.25011   0.00000  Uiso   1.00
C363   C     0.86975   0.48714   0.09344   0.00000  Uiso   1.00
C364   C     0.83327   0.49981   0.11639   0.00000  Uiso   1.00
C365   C     0.83338   0.49989   0.38362   0.00000  Uiso   1.00
C366   C     0.83321   0.49940   0.02421   0.00000  Uiso   1.00
C367   C     0.83327   0.49948   0.47581   0.00000  Uiso   1.00
C368   C     0.95752   0.49999   0.25029   0.00000  Uiso   1.00
C369   C     0.70913   0.49999   0.25023   0.00000  Uiso   1.00
C370   C     0.83329   0.49997   0.16411   0.00000  Uiso   1.00
C371   C     0.83343   0.49999   0.33590   0.00000  Uiso   1.00
C372   C     0.86478   0.35734   0.27003   0.00000  Uiso   1.00
C373   C     0.80186   0.64269   0.23003   0.00000  Uiso   1.00
C374   C     0.80190   0.35731   0.22995   0.00000  Uiso   1.00
C375   C     0.86481   0.64273   0.26995   0.00000  Uiso   1.00
C376   C     0.68795   0.45868   0.24905   0.00000  Uiso   1.00
H377   H     0.88991   0.37549   0.28611   0.00000  Uiso   1.00
H378   H     0.96254   0.57347   0.25307   0.00000  Uiso   1.00
H379   H     0.96252   0.42650   0.24770   0.00000  Uiso   1.00
H380   H     0.70414   0.57348   0.25269   0.00000  Uiso   1.00
H381   H     0.70444   0.47863   0.15277   0.00000  Uiso   1.00
H382   H     0.96258   0.48121   0.34716   0.00000  Uiso   1.00
H383   H     0.73154   0.54417   0.37125   0.00000  Uiso   1.00
H384   H     0.96243   0.51901   0.15342   0.00000  Uiso   1.00
H385   H     0.77664   0.62460   0.21412   0.00000  Uiso   1.00
H386   H     0.77677   0.37544   0.21387   0.00000  Uiso   1.00
H387   H     0.89005   0.62467   0.28582   0.00000  Uiso   1.00
H388   H     0.77017   0.52386   0.02905   0.00000  Uiso   1.00
H389   H     0.89593   0.52510   0.47112   0.00000  Uiso   1.00
H390   H     0.77066   0.47371   0.47049   0.00000  Uiso   1.00
H391   H     0.89617   0.47472   0.02935   0.00000  Uiso   1.00
H392   H     0.70411   0.42649   0.24795   0.00000  Uiso   1.00
N393   N     0.83333   0.61907   0.25000   0.00000  Uiso   1.00
N394   N     0.83333   0.38093   0.25000   0.00000  Uiso   1.00
O395   O     0.77226   0.53821   0.24999   0.00000  Uiso   1.00
O396   O     0.71528   0.53409   0.08742   0.00000  Uiso   1.00
O397   O     0.73501   0.47629   0.14914   0.00000  Uiso   1.00
O398   O     0.91224   0.56335   0.34793   0.00000  Uiso   1.00
O399   O     0.95080   0.53620   0.41297   0.00000  Uiso   1.00
O400   O     0.93210   0.47806   0.35113   0.00000  Uiso   1.00
O401   O     0.75553   0.43466   0.34783   0.00000  Uiso   1.00
O402   O     0.71577   0.46263   0.41147   0.00000  Uiso   1.00
O403   O     0.73484   0.51960   0.34907   0.00000  Uiso   1.00
O404   O     0.91204   0.43668   0.15287   0.00000  Uiso   1.00
O405   O     0.95083   0.46359   0.08798   0.00000  Uiso   1.00
O406   O     0.89441   0.46179   0.25000   0.00000  Uiso   1.00
O407   O     0.93193   0.52199   0.14944   0.00000  Uiso   1.00
O408   O     0.89441   0.53821   0.25000   0.00000  Uiso   1.00
O409   O     0.77226   0.46179   0.24999   0.00000  Uiso   1.00
O410   O     0.83333   0.53822   0.18453   0.00000  Uiso   1.00
O411   O     0.83334   0.46178   0.31547   0.00000  Uiso   1.00
O412   O     0.83334   0.53822   0.31547   0.00000  Uiso   1.00
O413   O     0.83333   0.46178   0.18453   0.00000  Uiso   1.00
O414   O     0.75365   0.56192   0.15236   0.00000  Uiso   1.00
S415   S     0.74881   0.52292   0.12066   0.00000  Uiso   1.00
S416   S     0.91753   0.52445   0.37961   0.00000  Uiso   1.00
S417   S     0.74956   0.47412   0.37877   0.00000  Uiso   1.00
S418   S     0.91745   0.47548   0.12106   0.00000  Uiso   1.00
Zn419  Zn    0.83333   0.55104   0.25000   0.00000  Uiso   1.00
Zn420  Zn    0.83333   0.44896   0.25000   0.00000  Uiso   1.00
C421   C     0.08663   0.83333   0.24998   0.00000  Uiso   1.00
C422   C     0.31204   0.87462   0.25185   0.00000  Uiso   1.00
C423   C     0.31203   0.79202   0.24889   0.00000  Uiso   1.00
C424   C     0.02130   0.87462   0.25165   0.00000  Uiso   1.00
C425   C     0.13084   0.84622   0.04718   0.00000  Uiso   1.00
C426   C     0.20213   0.84697   0.45292   0.00000  Uiso   1.00
C427   C     0.13116   0.81873   0.45258   0.00000  Uiso   1.00
C428   C     0.20222   0.81925   0.04735   0.00000  Uiso   1.00
C429   C     0.13001   0.84530   0.09327   0.00000  Uiso   1.00
C430   C     0.20307   0.84604   0.40683   0.00000  Uiso   1.00
C431   C     0.13038   0.81994   0.40650   0.00000  Uiso   1.00
C432   C     0.24670   0.83333   0.25011   0.00000  Uiso   1.00
C433   C     0.20308   0.82047   0.09344   0.00000  Uiso   1.00
C434   C     0.16660   0.83314   0.11639   0.00000  Uiso   1.00
C435   C     0.16671   0.83322   0.38362   0.00000  Uiso   1.00
C436   C     0.16654   0.83274   0.02421   0.00000  Uiso   1.00
C437   C     0.16660   0.83281   0.47581   0.00000  Uiso   1.00
C438   C     0.29086   0.83333   0.25029   0.00000  Uiso   1.00
C439   C     0.04247   0.83332   0.25023   0.00000  Uiso   1.00
C440   C     0.16663   0.83330   0.16411   0.00000  Uiso   1.00
C441   C     0.16676   0.83333   0.33590   0.00000  Uiso   1.00
C442   C     0.19811   0.69067   0.27003   0.00000  Uiso   1.00
C443   C     0.13519   0.97603   0.23003   0.00000  Uiso   1.00
C444   C     0.13523   0.69064   0.22995   0.00000  Uiso   1.00
C445   C     0.19815   0.97606   0.26995   0.00000  Uiso   1.00
C446   C     0.02128   0.79202   0.24905   0.00000  Uiso   1.00
H447   H     0.22324   0.70883   0.28611   0.00000  Uiso   1.00
H448   H     0.29588   0.90680   0.25307   0.00000  Uiso   1.00
H449   H     0.29585   0.75984   0.24770   0.00000  Uiso   1.00
H450   H     0.03747   0.90681   0.25269   0.00000  Uiso   1.00
H451   H     0.03777   0.81197   0.15277   0.00000  Uiso   1.00
H452   H     0.29592   0.81455   0.34716   0.00000  Uiso   1.00
H453   H     0.06488   0.87750   0.37125   0.00000  Uiso   1.00
H454   H     0.29576   0.85234   0.15342   0.00000  Uiso   1.00
H455   H     0.10998   0.95793   0.21412   0.00000  Uiso   1.00
H456   H     0.11011   0.70877   0.21387   0.00000  Uiso   1.00
H457   H     0.22338   0.95800   0.28582   0.00000  Uiso   1.00
H458   H     0.10350   0.85719   0.02905   0.00000  Uiso   1.00
H459   H     0.22926   0.85843   0.47112   0.00000  Uiso   1.00
H460   H     0.10399   0.80704   0.47049   0.00000  Uiso   1.00
H461   H     0.22950   0.80805   0.02935   0.00000  Uiso   1.00
H462   H     0.03745   0.75983   0.24795   0.00000  Uiso   1.00
N463   N     0.16667   0.95240   0.25000   0.00000  Uiso   1.00
N464   N     0.16667   0.71427   0.25000   0.00000  Uiso   1.00
O465   O     0.10559   0.87154   0.24999   0.00000  Uiso   1.00
O466   O     0.04861   0.86742   0.08742   0.00000  Uiso   1.00
O467   O     0.06835   0.80963   0.14914   0.00000  Uiso   1.00
O468   O     0.24557   0.89669   0.34793   0.00000  Uiso   1.00
O469   O     0.28413   0.86953   0.41297   0.00000  Uiso   1.00
O470   O     0.26544   0.81140   0.35113   0.00000  Uiso   1.00
O471   O     0.08887   0.76800   0.34783   0.00000  Uiso   1.00
O472   O     0.04911   0.79596   0.41147   0.00000  Uiso   1.00
O473   O     0.06818   0.85293   0.34907   0.00000  Uiso   1.00
O474   O     0.24538   0.77001   0.15287   0.00000  Uiso   1.00
O475   O     0.28416   0.79693   0.08798   0.00000  Uiso   1.00
O476   O     0.22774   0.79513   0.25000   0.00000  Uiso   1.00
O477   O     0.26526   0.85532   0.14944   0.00000  Uiso   1.00
O478   O     0.22774   0.87154   0.25000   0.00000  Uiso   1.00
O479   O     0.10559   0.79513   0.24999   0.00000  Uiso   1.00
O480   O     0.16666   0.87155   0.18453   0.00000  Uiso   1.00
O481   O     0.16667   0.79511   0.31547   0.00000  Uiso   1.00
O482   O     0.16667   0.87155   0.31547   0.00000  Uiso   1.00
O483   O     0.16666   0.79511   0.18453   0.00000  Uiso   1.00
O484   O     0.08699   0.89525   0.15236   0.00000  Uiso   1.00
S485   S     0.08215   0.85625   0.12066   0.00000  Uiso   1.00
S486   S     0.25086   0.85778   0.37961   0.00000  Uiso   1.00
S487   S     0.08290   0.80745   0.37877   0.00000  Uiso   1.00
S488   S     0.25078   0.80881   0.12106   0.00000  Uiso   1.00
Zn489  Zn    0.16667   0.88437   0.25000   0.00000  Uiso   1.00
Zn490  Zn    0.16667   0.78229   0.25000   0.00000  Uiso   1.00
C491   C     0.41996   0.83333   0.24998   0.00000  Uiso   1.00
C492   C     0.64538   0.87462   0.25185   0.00000  Uiso   1.00
C493   C     0.64536   0.79202   0.24889   0.00000  Uiso   1.00
C494   C     0.35463   0.87462   0.25165   0.00000  Uiso   1.00
C495   C     0.46417   0.84622   0.04718   0.00000  Uiso   1.00
C496   C     0.53546   0.84697   0.45292   0.00000  Uiso   1.00
C497   C     0.46449   0.81873   0.45258   0.00000  Uiso   1.00
C498   C     0.53555   0.81925   0.04735   0.00000  Uiso   1.00
C499   C     0.46335   0.84530   0.09327   0.00000  Uiso   1.00
C500   C     0.53640   0.84604   0.40683   0.00000  Uiso   1.00
C501   C     0.46372   0.81994   0.40650   0.00000  Uiso   1.00
C502   C     0.58003   0.83333   0.25011   0.00000  Uiso   1.00
C503   C     0.53641   0.82047   0.09344   0.00000  Uiso   1.00
C504   C     0.49993   0.83314   0.11639   0.00000  Uiso   1.00
C505   C     0.50005   0.83322   0.38362   0.00000  Uiso   1.00
C506   C     0.49988   0.83274   0.02421   0.00000  Uiso   1.00
C507   C     0.49993   0.83281   0.47581   0.00000  Uiso   1.00
C508   C     0.62419   0.83333   0.25029   0.00000  Uiso   1.00
C509   C     0.37580   0.83332   0.25023   0.00000  Uiso   1.00
C510   C     0.49996   0.83330   0.16411   0.00000  Uiso   1.00
C511   C     0.50009   0.83333   0.33590   0.00000  Uiso   1.00
C512   C     0.53144   0.69067   0.27003   0.00000  Uiso   1.00
C513   C     0.46853   0.97603   0.23003   0.00000  Uiso   1.00
C514   C     0.46856   0.69064   0.22995   0.00000  Uiso   1.00
C515   C     0.53148   0.97606   0.26995   0.00000  Uiso   1.00
C516   C     0.35461   0.79202   0.24905   0.00000  Uiso   1.00
H517   H     0.55657   0.70883   0.28611   0.00000  Uiso   1.00
H518   H     0.62921   0.90680   0.25307   0.00000  Uiso   1.00
H519   H     0.62918   0.75984   0.24770   0.00000  Uiso   1.00
H520   H     0.37081   0.90681   0.25269   0.00000  Uiso   1.00
H521   H     0.37110   0.81197   0.15277   0.00000  Uiso   1.00
H522   H     0.62925   0.81455   0.34716   0.00000  Uiso   1.00
H523   H     0.39821   0.87750   0.37125   0.00000  Uiso   1.00
H524   H     0.62909   0.85234   0.15342   0.00000  Uiso   1.00
H525   H     0.44331   0.95793   0.21412   0.00000  Uiso   1.00
H526   H     0.44344   0.70877   0.21387   0.00000  Uiso   1.00
H527   H     0.55672   0.95800   0.28582   0.00000  Uiso   1.00
H528   H     0.43684   0.85719   0.02905   0.00000  Uiso   1.00
H529   H     0.56260   0.85843   0.47112   0.00000  Uiso   1.00
H530   H     0.43733   0.80704   0.47049   0.00000  Uiso   1.00
H531   H     0.56283   0.80805   0.02935   0.00000  Uiso   1.00
H532   H     0.37078   0.75983   0.24795   0.00000  Uiso   1.00
N533   N     0.50000   0.95240   0.25000   0.00000  Uiso   1.00
N534   N     0.50000   0.71427   0.25000   0.00000  Uiso   1.00
O535   O     0.43892   0.87154   0.24999   0.00000  Uiso   1.00
O536   O     0.38195   0.86742   0.08742   0.00000  Uiso   1.00
O537   O     0.40168   0.80963   0.14914   0.00000  Uiso   1.00
O538   O     0.57891   0.89669   0.34793   0.00000  Uiso   1.00
O539   O     0.61747   0.86953   0.41297   0.00000  Uiso   1.00
O540   O     0.59877   0.81140   0.35113   0.00000  Uiso   1.00
O541   O     0.42220   0.76800   0.34783   0.00000  Uiso   1.00
O542   O     0.38244   0.79596   0.41147   0.00000  Uiso   1.00
O543   O     0.40151   0.85293   0.34907   0.00000  Uiso   1.00
O544   O     0.57871   0.77001   0.15287   0.00000  Uiso   1.00
O545   O     0.61749   0.79693   0.08798   0.00000  Uiso   1.00
O546   O     0.56108   0.79513   0.25000   0.00000  Uiso   1.00
O547   O     0.59860   0.85532   0.14944   0.00000  Uiso   1.00
O548   O     0.56108   0.87154   0.25000   0.00000  Uiso   1.00
O549   O     0.43892   0.79513   0.24999   0.00000  Uiso   1.00
O550   O     0.50000   0.87155   0.18453   0.00000  Uiso   1.00
O551   O     0.50000   0.79511   0.31547   0.00000  Uiso   1.00
O552   O     0.50000   0.87155   0.31547   0.00000  Uiso   1.00
O553   O     0.50000   0.79511   0.18453   0.00000  Uiso   1.00
O554   O     0.42032   0.89525   0.15236   0.00000  Uiso   1.00
S555   S     0.41548   0.85625   0.12066   0.00000  Uiso   1.00
S556   S     0.58419   0.85778   0.37961   0.00000  Uiso   1.00
S557   S     0.41623   0.80745   0.37877   0.00000  Uiso   1.00
S558   S     0.58412   0.80881   0.12106   0.00000  Uiso   1.00
Zn559  Zn    0.50000   0.88437   0.25000   0.00000  Uiso   1.00
Zn560  Zn    0.50000   0.78229   0.25000   0.00000  Uiso   1.00
C561   C     0.75330   0.83333   0.24998   0.00000  Uiso   1.00
C562   C     0.97871   0.87462   0.25185   0.00000  Uiso   1.00
C563   C     0.97869   0.79202   0.24889   0.00000  Uiso   1.00
C564   C     0.68796   0.87462   0.25165   0.00000  Uiso   1.00
C565   C     0.79751   0.84622   0.04718   0.00000  Uiso   1.00
C566   C     0.86879   0.84697   0.45292   0.00000  Uiso   1.00
C567   C     0.79783   0.81873   0.45258   0.00000  Uiso   1.00
C568   C     0.86888   0.81925   0.04735   0.00000  Uiso   1.00
C569   C     0.79668   0.84530   0.09327   0.00000  Uiso   1.00
C570   C     0.86974   0.84604   0.40683   0.00000  Uiso   1.00
C571   C     0.79705   0.81994   0.40650   0.00000  Uiso   1.00
C572   C     0.91337   0.83333   0.25011   0.00000  Uiso   1.00
C573   C     0.86975   0.82047   0.09344   0.00000  Uiso   1.00
C574   C     0.83327   0.83314   0.11639   0.00000  Uiso   1.00
C575   C     0.83338   0.83322   0.38362   0.00000  Uiso   1.00
C576   C     0.83321   0.83274   0.02421   0.00000  Uiso   1.00
C577   C     0.83327   0.83281   0.47581   0.00000  Uiso   1.00
C578   C     0.95752   0.83333   0.25029   0.00000  Uiso   1.00
C579   C     0.70913   0.83332   0.25023   0.00000  Uiso   1.00
C580   C     0.83329   0.83330   0.16411   0.00000  Uiso   1.00
C581   C     0.83343   0.83333   0.33590   0.00000  Uiso   1.00
C582   C     0.86478   0.69067   0.27003   0.00000  Uiso   1.00
C583   C     0.80186   0.97603   0.23003   0.00000  Uiso   1.00
C584   C     0.80190   0.69064   0.22995   0.00000  Uiso   1.00
C585   C     0.86481   0.97606   0.26995   0.00000  Uiso   1.00
C586   C     0.68795   0.79202   0.24905   0.00000  Uiso   1.00
H587   H     0.88991   0.70883   0.28611   0.00000  Uiso   1.00
H588   H     0.96254   0.90680   0.25307   0.00000  Uiso   1.00
H589   H     0.96252   0.75984   0.24770   0.00000  Uiso   1.00
H590   H     0.70414   0.90681   0.25269   0.00000  Uiso   1.00
H591   H     0.70444   0.81197   0.15277   0.00000  Uiso   1.00
H592   H     0.96258   0.81455   0.34716   0.00000  Uiso   1.00
H593   H     0.73154   0.87750   0.37125   0.00000  Uiso   1.00
H594   H     0.96243   0.85234   0.15342   0.00000  Uiso   1.00
H595   H     0.77664   0.95793   0.21412   0.00000  Uiso   1.00
H596   H     0.77677   0.70877   0.21387   0.00000  Uiso   1.00
H597   H     0.89005   0.95800   0.28582   0.00000  Uiso   1.00
H598   H     0.77017   0.85719   0.02905   0.00000  Uiso   1.00
H599   H     0.89593   0.85843   0.47112   0.00000  Uiso   1.00
H600   H     0.77066   0.80704   0.47049   0.00000  Uiso   1.00
H601   H     0.89617   0.80805   0.02935   0.00000  Uiso   1.00
H602   H     0.70411   0.75983   0.24795   0.00000  Uiso   1.00
N603   N     0.83333   0.95240   0.25000   0.00000  Uiso   1.00
N604   N     0.83333   0.71427   0.25000   0.00000  Uiso   1.00
O605   O     0.77226   0.87154   0.24999   0.00000  Uiso   1.00
O606   O     0.71528   0.86742   0.08742   0.00000  Uiso   1.00
O607   O     0.73501   0.80963   0.14914   0.00000  Uiso   1.00
O608   O     0.91224   0.89669   0.34793   0.00000  Uiso   1.00
O609   O     0.95080   0.86953   0.41297   0.00000  Uiso   1.00
O610   O     0.93210   0.81140   0.35113   0.00000  Uiso   1.00
O611   O     0.75553   0.76800   0.34783   0.00000  Uiso   1.00
O612   O     0.71577   0.79596   0.41147   0.00000  Uiso   1.00
O613   O     0.73484   0.85293   0.34907   0.00000  Uiso   1.00
O614   O     0.91204   0.77001   0.15287   0.00000  Uiso   1.00
O615   O     0.95083   0.79693   0.08798   0.00000  Uiso   1.00
O616   O     0.89441   0.79513   0.25000   0.00000  Uiso   1.00
O617   O     0.93193   0.85532   0.14944   0.00000  Uiso   1.00
O618   O     0.89441   0.87154   0.25000   0.00000  Uiso   1.00
O619   O     0.77226   0.79513   0.24999   0.00000  Uiso   1.00
O620   O     0.83333   0.87155   0.18453   0.00000  Uiso   1.00
O621   O     0.83334   0.79511   0.31547   0.00000  Uiso   1.00
O622   O     0.83334   0.87155   0.31547   0.00000  Uiso   1.00
O623   O     0.83333   0.79511   0.18453   0.00000  Uiso   1.00
O624   O     0.75365   0.89525   0.15236   0.00000  Uiso   1.00
S625   S     0.74881   0.85625   0.12066   0.00000  Uiso   1.00
S626   S     0.91753   0.85778   0.37961   0.00000  Uiso   1.00
S627   S     0.74956   0.80745   0.37877   0.00000  Uiso   1.00
S628   S     0.91745   0.80881   0.12106   0.00000  Uiso   1.00
Zn629  Zn    0.83333   0.88437   0.25000   0.00000  Uiso   1.00
Zn630  Zn    0.83333   0.78229   0.25000   0.00000  Uiso   1.00
C631   C     0.08663   0.16666   0.74998   0.00000  Uiso   1.00
C632   C     0.31204   0.20795   0.75185   0.00000  Uiso   1.00
C633   C     0.31203   0.12536   0.74889   0.00000  Uiso   1.00
C634   C     0.02130   0.20796   0.75165   0.00000  Uiso   1.00
C635   C     0.13084   0.17956   0.54718   0.00000  Uiso   1.00
C636   C     0.20213   0.18031   0.95292   0.00000  Uiso   1.00
C637   C     0.13116   0.15206   0.95258   0.00000  Uiso   1.00
C638   C     0.20222   0.15258   0.54735   0.00000  Uiso   1.00
C639   C     0.13001   0.17863   0.59327   0.00000  Uiso   1.00
C640   C     0.20307   0.17938   0.90683   0.00000  Uiso   1.00
C641   C     0.13038   0.15327   0.90650   0.00000  Uiso   1.00
C642   C     0.24670   0.16667   0.75011   0.00000  Uiso   1.00
C643   C     0.20308   0.15381   0.59344   0.00000  Uiso   1.00
C644   C     0.16660   0.16648   0.61639   0.00000  Uiso   1.00
C645   C     0.16671   0.16656   0.88362   0.00000  Uiso   1.00
C646   C     0.16654   0.16607   0.52421   0.00000  Uiso   1.00
C647   C     0.16660   0.16614   0.97581   0.00000  Uiso   1.00
C648   C     0.29086   0.16666   0.75029   0.00000  Uiso   1.00
C649   C     0.04247   0.16666   0.75023   0.00000  Uiso   1.00
C650   C     0.16663   0.16663   0.66411   0.00000  Uiso   1.00
C651   C     0.16676   0.16666   0.83590   0.00000  Uiso   1.00
C652   C     0.19811   0.02401   0.77003   0.00000  Uiso   1.00
C653   C     0.13519   0.30936   0.73003   0.00000  Uiso   1.00
C654   C     0.13523   0.02397   0.72995   0.00000  Uiso   1.00
C655   C     0.19815   0.30940   0.76995   0.00000  Uiso   1.00
C656   C     0.02128   0.12535   0.74905   0.00000  Uiso   1.00
H657   H     0.22324   0.04216   0.78611   0.00000  Uiso   1.00
H658   H     0.29588   0.24014   0.75307   0.00000  Uiso   1.00
H659   H     0.29585   0.09317   0.74770   0.00000  Uiso   1.00
H660   H     0.03747   0.24015   0.75269   0.00000  Uiso   1.00
H661   H     0.03777   0.14530   0.65277   0.00000  Uiso   1.00
H662   H     0.29592   0.14788   0.84716   0.00000  Uiso   1.00
H663   H     0.06488   0.21084   0.87125   0.00000  Uiso   1.00
H664   H     0.29576   0.18568   0.65342   0.00000  Uiso   1.00
H665   H     0.10998   0.29127   0.71412   0.00000  Uiso   1.00
H666   H     0.11011   0.04210   0.71387   0.00000  Uiso   1.00
H667   H     0.22338   0.29134   0.78582   0.00000  Uiso   1.00
H668   H     0.10350   0.19052   0.52905   0.00000  Uiso   1.00
H669   H     0.22926   0.19177   0.97112   0.00000  Uiso   1.00
H670   H     0.10399   0.14038   0.97049   0.00000  Uiso   1.00
H671   H     0.22950   0.14138   0.52935   0.00000  Uiso   1.00
H672   H     0.03745   0.09316   0.74795   0.00000  Uiso   1.00
N673   N     0.16667   0.28573   0.75000   0.00000  Uiso   1.00
N674   N     0.16667   0.04760   0.75000   0.00000  Uiso   1.00
O675   O     0.10559   0.20487   0.74999   0.00000  Uiso   1.00
O676   O     0.04861   0.20076   0.58742   0.00000  Uiso   1.00
O677   O     0.06835   0.14296   0.64914   0.00000  Uiso   1.00
O678   O     0.24557   0.23002   0.84793   0.00000  Uiso   1.00
O679   O     0.28413   0.20286   0.91297   0.00000  Uiso   1.00
O680   O     0.26544   0.14473   0.85113   0.00000  Uiso   1.00
O681   O     0.08887   0.10133   0.84783   0.00000  Uiso   1.00
O682   O     0.04911   0.12930   0.91147   0.00000  Uiso   1.00
O683   O     0.06818   0.18626   0.84907   0.00000  Uiso   1.00
O684   O     0.24538   0.10334   0.65287   0.00000  Uiso   1.00
O685   O     0.28416   0.13026   0.58798   0.00000  Uiso   1.00
O686   O     0.22774   0.12846   0.75000   0.00000  Uiso   1.00
O687   O     0.26526   0.18866   0.64944   0.00000  Uiso   1.00
O688   O     0.22774   0.20487   0.75000   0.00000  Uiso   1.00
O689   O     0.10559   0.12846   0.74999   0.00000  Uiso   1.00
O690   O     0.16666   0.20489   0.68453   0.00000  Uiso   1.00
O691   O     0.16667   0.12845   0.81547   0.00000  Uiso   1.00
O692   O     0.16667   0.20489   0.81547   0.00000  Uiso   1.00
O693   O     0.16666   0.12845   0.68453   0.00000  Uiso   1.00
O694   O     0.08699   0.22859   0.65236   0.00000  Uiso   1.00
S695   S     0.08215   0.18959   0.62066   0.00000  Uiso   1.00
S696   S     0.25086   0.19111   0.87961   0.00000  Uiso   1.00
S697   S     0.08290   0.14079   0.87877   0.00000  Uiso   1.00
S698   S     0.25078   0.14214   0.62106   0.00000  Uiso   1.00
Zn699  Zn    0.16667   0.21771   0.75000   0.00000  Uiso   1.00
Zn700  Zn    0.16667   0.11563   0.75000   0.00000  Uiso   1.00
C701   C     0.41996   0.16666   0.74998   0.00000  Uiso   1.00
C702   C     0.64538   0.20795   0.75185   0.00000  Uiso   1.00
C703   C     0.64536   0.12536   0.74889   0.00000  Uiso   1.00
C704   C     0.35463   0.20796   0.75165   0.00000  Uiso   1.00
C705   C     0.46417   0.17956   0.54718   0.00000  Uiso   1.00
C706   C     0.53546   0.18031   0.95292   0.00000  Uiso   1.00
C707   C     0.46449   0.15206   0.95258   0.00000  Uiso   1.00
C708   C     0.53555   0.15258   0.54735   0.00000  Uiso   1.00
C709   C     0.46335   0.17863   0.59327   0.00000  Uiso   1.00
C710   C     0.53640   0.17938   0.90683   0.00000  Uiso   1.00
C711   C     0.46372   0.15327   0.90650   0.00000  Uiso   1.00
C712   C     0.58003   0.16667   0.75011   0.00000  Uiso   1.00
C713   C     0.53641   0.15381   0.59344   0.00000  Uiso   1.00
C714   C     0.49993   0.16648   0.61639   0.00000  Uiso   1.00
C715   C     0.50005   0.16656   0.88362   0.00000  Uiso   1.00
C716   C     0.49988   0.16607   0.52421   0.00000  Uiso   1.00
C717   C     0.49993   0.16614   0.97581   0.00000  Uiso   1.00
C718   C     0.62419   0.16666   0.75029   0.00000  Uiso   1.00
C719   C     0.37580   0.16666   0.75023   0.00000  Uiso   1.00
C720   C     0.49996   0.16663   0.66411   0.00000  Uiso   1.00
C721   C     0.50009   0.16666   0.83590   0.00000  Uiso   1.00
C722   C     0.53144   0.02401   0.77003   0.00000  Uiso   1.00
C723   C     0.46853   0.30936   0.73003   0.00000  Uiso   1.00
C724   C     0.46856   0.02397   0.72995   0.00000  Uiso   1.00
C725   C     0.53148   0.30940   0.76995   0.00000  Uiso   1.00
C726   C     0.35461   0.12535   0.74905   0.00000  Uiso   1.00
H727   H     0.55657   0.04216   0.78611   0.00000  Uiso   1.00
H728   H     0.62921   0.24014   0.75307   0.00000  Uiso   1.00
H729   H     0.62918   0.09317   0.74770   0.00000  Uiso   1.00
H730   H     0.37081   0.24015   0.75269   0.00000  Uiso   1.00
H731   H     0.37110   0.14530   0.65277   0.00000  Uiso   1.00
H732   H     0.62925   0.14788   0.84716   0.00000  Uiso   1.00
H733   H     0.39821   0.21084   0.87125   0.00000  Uiso   1.00
H734   H     0.62909   0.18568   0.65342   0.00000  Uiso   1.00
H735   H     0.44331   0.29127   0.71412   0.00000  Uiso   1.00
H736   H     0.44344   0.04210   0.71387   0.00000  Uiso   1.00
H737   H     0.55672   0.29134   0.78582   0.00000  Uiso   1.00
H738   H     0.43684   0.19052   0.52905   0.00000  Uiso   1.00
H739   H     0.56260   0.19177   0.97112   0.00000  Uiso   1.00
H740   H     0.43733   0.14038   0.97049   0.00000  Uiso   1.00
H741   H     0.56283   0.14138   0.52935   0.00000  Uiso   1.00
H742   H     0.37078   0.09316   0.74795   0.00000  Uiso   1.00
N743   N     0.50000   0.28573   0.75000   0.00000  Uiso   1.00
N744   N     0.50000   0.04760   0.75000   0.00000  Uiso   1.00
O745   O     0.43892   0.20487   0.74999   0.00000  Uiso   1.00
O746   O     0.38195   0.20076   0.58742   0.00000  Uiso   1.00
O747   O     0.40168   0.14296   0.64914   0.00000  Uiso   1.00
O748   O     0.57891   0.23002   0.84793   0.00000  Uiso   1.00
O749   O     0.61747   0.20286   0.91297   0.00000  Uiso   1.00
O750   O     0.59877   0.14473   0.85113   0.00000  Uiso   1.00
O751   O     0.42220   0.10133   0.84783   0.00000  Uiso   1.00
O752   O     0.38244   0.12930   0.91147   0.00000  Uiso   1.00
O753   O     0.40151   0.18626   0.84907   0.00000  Uiso   1.00
O754   O     0.57871   0.10334   0.65287   0.00000  Uiso   1.00
O755   O     0.61749   0.13026   0.58798   0.00000  Uiso   1.00
O756   O     0.56108   0.12846   0.75000   0.00000  Uiso   1.00
O757   O     0.59860   0.18866   0.64944   0.00000  Uiso   1.00
O758   O     0.56108   0.20487   0.75000   0.00000  Uiso   1.00
O759   O     0.43892   0.12846   0.74999   0.00000  Uiso   1.00
O760   O     0.50000   0.20489   0.68453   0.00000  Uiso   1.00
O761   O     0.50000   0.12845   0.81547   0.00000  Uiso   1.00
O762   O     0.50000   0.20489   0.81547   0.00000  Uiso   1.00
O763   O     0.50000   0.12845   0.68453   0.00000  Uiso   1.00
O764   O     0.42032   0.22859   0.65236   0.00000  Uiso   1.00
S765   S     0.41548   0.18959   0.62066   0.00000  Uiso   1.00
S766   S     0.58419   0.19111   0.87961   0.00000  Uiso   1.00
S767   S     0.41623   0.14079   0.87877   0.00000  Uiso   1.00
S768   S     0.58412   0.14214   0.62106   0.00000  Uiso   1.00
Zn769  Zn    0.50000   0.21771   0.75000   0.00000  Uiso   1.00
Zn770  Zn    0.50000   0.11563   0.75000   0.00000  Uiso   1.00
C771   C     0.75330   0.16666   0.74998   0.00000  Uiso   1.00
C772   C     0.97871   0.20795   0.75185   0.00000  Uiso   1.00
C773   C     0.97869   0.12536   0.74889   0.00000  Uiso   1.00
C774   C     0.68796   0.20796   0.75165   0.00000  Uiso   1.00
C775   C     0.79751   0.17956   0.54718   0.00000  Uiso   1.00
C776   C     0.86879   0.18031   0.95292   0.00000  Uiso   1.00
C777   C     0.79783   0.15206   0.95258   0.00000  Uiso   1.00
C778   C     0.86888   0.15258   0.54735   0.00000  Uiso   1.00
C779   C     0.79668   0.17863   0.59327   0.00000  Uiso   1.00
C780   C     0.86974   0.17938   0.90683   0.00000  Uiso   1.00
C781   C     0.79705   0.15327   0.90650   0.00000  Uiso   1.00
C782   C     0.91337   0.16667   0.75011   0.00000  Uiso   1.00
C783   C     0.86975   0.15381   0.59344   0.00000  Uiso   1.00
C784   C     0.83327   0.16648   0.61639   0.00000  Uiso   1.00
C785   C     0.83338   0.16656   0.88362   0.00000  Uiso   1.00
C786   C     0.83321   0.16607   0.52421   0.00000  Uiso   1.00
C787   C     0.83327   0.16614   0.97581   0.00000  Uiso   1.00
C788   C     0.95752   0.16666   0.75029   0.00000  Uiso   1.00
C789   C     0.70913   0.16666   0.75023   0.00000  Uiso   1.00
C790   C     0.83329   0.16663   0.66411   0.00000  Uiso   1.00
C791   C     0.83343   0.16666   0.83590   0.00000  Uiso   1.00
C792   C     0.86478   0.02401   0.77003   0.00000  Uiso   1.00
C793   C     0.80186   0.30936   0.73003   0.00000  Uiso   1.00
C794   C     0.80190   0.02397   0.72995   0.00000  Uiso   1.00
C795   C     0.86481   0.30940   0.76995   0.00000  Uiso   1.00
C796   C     0.68795   0.12535   0.74905   0.00000  Uiso   1.00
H797   H     0.88991   0.04216   0.78611   0.00000  Uiso   1.00
H798   H     0.96254   0.24014   0.75307   0.00000  Uiso   1.00
H799   H     0.96252   0.09317   0.74770   0.00000  Uiso   1.00
H800   H     0.70414   0.24015   0.75269   0.00000  Uiso   1.00
H801   H     0.70444   0.14530   0.65277   0.00000  Uiso   1.00
H802   H     0.96258   0.14788   0.84716   0.00000  Uiso   1.00
H803   H     0.73154   0.21084   0.87125   0.00000  Uiso   1.00
H804   H     0.96243   0.18568   0.65342   0.00000  Uiso   1.00
H805   H     0.77664   0.29127   0.71412   0.00000  Uiso   1.00
H806   H     0.77677   0.04210   0.71387   0.00000  Uiso   1.00
H807   H     0.89005   0.29134   0.78582   0.00000  Uiso   1.00
H808   H     0.77017   0.19052   0.52905   0.00000  Uiso   1.00
H809   H     0.89593   0.19177   0.97112   0.00000  Uiso   1.00
H810   H     0.77066   0.14038   0.97049   0.00000  Uiso   1.00
H811   H     0.89617   0.14138   0.52935   0.00000  Uiso   1.00
H812   H     0.70411   0.09316   0.74795   0.00000  Uiso   1.00
N813   N     0.83333   0.28573   0.75000   0.00000  Uiso   1.00
N814   N     0.83333   0.04760   0.75000   0.00000  Uiso   1.00
O815   O     0.77226   0.20487   0.74999   0.00000  Uiso   1.00
O816   O     0.71528   0.20076   0.58742   0.00000  Uiso   1.00
O817   O     0.73501   0.14296   0.64914   0.00000  Uiso   1.00
O818   O     0.91224   0.23002   0.84793   0.00000  Uiso   1.00
O819   O     0.95080   0.20286   0.91297   0.00000  Uiso   1.00
O820   O     0.93210   0.14473   0.85113   0.00000  Uiso   1.00
O821   O     0.75553   0.10133   0.84783   0.00000  Uiso   1.00
O822   O     0.71577   0.12930   0.91147   0.00000  Uiso   1.00
O823   O     0.73484   0.18626   0.84907   0.00000  Uiso   1.00
O824   O     0.91204   0.10334   0.65287   0.00000  Uiso   1.00
O825   O     0.95083   0.13026   0.58798   0.00000  Uiso   1.00
O826   O     0.89441   0.12846   0.75000   0.00000  Uiso   1.00
O827   O     0.93193   0.18866   0.64944   0.00000  Uiso   1.00
O828   O     0.89441   0.20487   0.75000   0.00000  Uiso   1.00
O829   O     0.77226   0.12846   0.74999   0.00000  Uiso   1.00
O830   O     0.83333   0.20489   0.68453   0.00000  Uiso   1.00
O831   O     0.83334   0.12845   0.81547   0.00000  Uiso   1.00
O832   O     0.83334   0.20489   0.81547   0.00000  Uiso   1.00
O833   O     0.83333   0.12845   0.68453   0.00000  Uiso   1.00
O834   O     0.75365   0.22859   0.65236   0.00000  Uiso   1.00
S835   S     0.74881   0.18959   0.62066   0.00000  Uiso   1.00
S836   S     0.91753   0.19111   0.87961   0.00000  Uiso   1.00
S837   S     0.74956   0.14079   0.87877   0.00000  Uiso   1.00
S838   S     0.91745   0.14214   0.62106   0.00000  Uiso   1.00
Zn839  Zn    0.83333   0.21771   0.75000   0.00000  Uiso   1.00
Zn840  Zn    0.83333   0.11563   0.75000   0.00000  Uiso   1.00
C841   C     0.08663   0.50000   0.74998   0.00000  Uiso   1.00
C842   C     0.31204   0.54129   0.75185   0.00000  Uiso   1.00
C843   C     0.31203   0.45869   0.74889   0.00000  Uiso   1.00
C844   C     0.02130   0.54129   0.75165   0.00000  Uiso   1.00
C845   C     0.13084   0.51289   0.54718   0.00000  Uiso   1.00
C846   C     0.20213   0.51364   0.95292   0.00000  Uiso   1.00
C847   C     0.13116   0.48539   0.95258   0.00000  Uiso   1.00
C848   C     0.20222   0.48591   0.54735   0.00000  Uiso   1.00
C849   C     0.13001   0.51197   0.59327   0.00000  Uiso   1.00
C850   C     0.20307   0.51271   0.90683   0.00000  Uiso   1.00
C851   C     0.13038   0.48660   0.90650   0.00000  Uiso   1.00
C852   C     0.24670   0.50000   0.75011   0.00000  Uiso   1.00
C853   C     0.20308   0.48714   0.59344   0.00000  Uiso   1.00
C854   C     0.16660   0.49981   0.61639   0.00000  Uiso   1.00
C855   C     0.16671   0.49989   0.88362   0.00000  Uiso   1.00
C856   C     0.16654   0.49940   0.52421   0.00000  Uiso   1.00
C857   C     0.16660   0.49948   0.97581   0.00000  Uiso   1.00
C858   C     0.29086   0.49999   0.75029   0.00000  Uiso   1.00
C859   C     0.04247   0.49999   0.75023   0.00000  Uiso   1.00
C860   C     0.16663   0.49997   0.66411   0.00000  Uiso   1.00
C861   C     0.16676   0.49999   0.83590   0.00000  Uiso   1.00
C862   C     0.19811   0.35734   0.77003   0.00000  Uiso   1.00
C863   C     0.13519   0.64269   0.73003   0.00000  Uiso   1.00
C864   C     0.13523   0.35731   0.72995   0.00000  Uiso   1.00
C865   C     0.19815   0.64273   0.76995   0.00000  Uiso   1.00
C866   C     0.02128   0.45868   0.74905   0.00000  Uiso   1.00
H867   H     0.22324   0.37549   0.78611   0.00000  Uiso   1.00
H868   H     0.29588   0.57347   0.75307   0.00000  Uiso   1.00
H869   H     0.29585   0.42650   0.74770   0.00000  Uiso   1.00
H870   H     0.03747   0.57348   0.75269   0.00000  Uiso   1.00
H871   H     0.03777   0.47863   0.65277   0.00000  Uiso   1.00
H872   H     0.29592   0.48121   0.84716   0.00000  Uiso   1.00
H873   H     0.06488   0.54417   0.87125   0.00000  Uiso   1.00
H874   H     0.29576   0.51901   0.65342   0.00000  Uiso   1.00
H875   H     0.10998   0.62460   0.71412   0.00000  Uiso   1.00
H876   H     0.11011   0.37544   0.71387   0.00000  Uiso   1.00
H877   H     0.22338   0.62467   0.78582   0.00000  Uiso   1.00
H878   H     0.10350   0.52386   0.52905   0.00000  Uiso   1.00
H879   H     0.22926   0.52510   0.97112   0.00000  Uiso   1.00
H880   H     0.10399   0.47371   0.97049   0.00000  Uiso   1.00
H881   H     0.22950   0.47472   0.52935   0.00000  Uiso   1.00
H882   H     0.03745   0.42649   0.74795   0.00000  Uiso   1.00
N883   N     0.16667   0.61907   0.75000   0.00000  Uiso   1.00
N884   N     0.16667   0.38093   0.75000   0.00000  Uiso   1.00
O885   O     0.10559   0.53821   0.74999   0.00000  Uiso   1.00
O886   O     0.04861   0.53409   0.58742   0.00000  Uiso   1.00
O887   O     0.06835   0.47629   0.64914   0.00000  Uiso   1.00
O888   O     0.24557   0.56335   0.84793   0.00000  Uiso   1.00
O889   O     0.28413   0.53620   0.91297   0.00000  Uiso   1.00
O890   O     0.26544   0.47806   0.85113   0.00000  Uiso   1.00
O891   O     0.08887   0.43466   0.84783   0.00000  Uiso   1.00
O892   O     0.04911   0.46263   0.91147   0.00000  Uiso   1.00
O893   O     0.06818   0.51960   0.84907   0.00000  Uiso   1.00
O894   O     0.24538   0.43668   0.65287   0.00000  Uiso   1.00
O895   O     0.28416   0.46359   0.58798   0.00000  Uiso   1.00
O896   O     0.22774   0.46179   0.75000   0.00000  Uiso   1.00
O897   O     0.26526   0.52199   0.64944   0.00000  Uiso   1.00
O898   O     0.22774   0.53821   0.75000   0.00000  Uiso   1.00
O899   O     0.10559   0.46179   0.74999   0.00000  Uiso   1.00
O900   O     0.16666   0.53822   0.68453   0.00000  Uiso   1.00
O901   O     0.16667   0.46178   0.81547   0.00000  Uiso   1.00
O902   O     0.16667   0.53822   0.81547   0.00000  Uiso   1.00
O903   O     0.16666   0.46178   0.68453   0.00000  Uiso   1.00
O904   O     0.08699   0.56192   0.65236   0.00000  Uiso   1.00
S905   S     0.08215   0.52292   0.62066   0.00000  Uiso   1.00
S906   S     0.25086   0.52445   0.87961   0.00000  Uiso   1.00
S907   S     0.08290   0.47412   0.87877   0.00000  Uiso   1.00
S908   S     0.25078   0.47548   0.62106   0.00000  Uiso   1.00
Zn909  Zn    0.16667   0.55104   0.75000   0.00000  Uiso   1.00
Zn910  Zn    0.16667   0.44896   0.75000   0.00000  Uiso   1.00
C911   C     0.41996   0.50000   0.74998   0.00000  Uiso   1.00
C912   C     0.64538   0.54129   0.75185   0.00000  Uiso   1.00
C913   C     0.64536   0.45869   0.74889   0.00000  Uiso   1.00
C914   C     0.35463   0.54129   0.75165   0.00000  Uiso   1.00
C915   C     0.46417   0.51289   0.54718   0.00000  Uiso   1.00
C916   C     0.53546   0.51364   0.95292   0.00000  Uiso   1.00
C917   C     0.46449   0.48539   0.95258   0.00000  Uiso   1.00
C918   C     0.53555   0.48591   0.54735   0.00000  Uiso   1.00
C919   C     0.46335   0.51197   0.59327   0.00000  Uiso   1.00
C920   C     0.53640   0.51271   0.90683   0.00000  Uiso   1.00
C921   C     0.46372   0.48660   0.90650   0.00000  Uiso   1.00
C922   C     0.58003   0.50000   0.75011   0.00000  Uiso   1.00
C923   C     0.53641   0.48714   0.59344   0.00000  Uiso   1.00
C924   C     0.49993   0.49981   0.61639   0.00000  Uiso   1.00
C925   C     0.50005   0.49989   0.88362   0.00000  Uiso   1.00
C926   C     0.49988   0.49940   0.52421   0.00000  Uiso   1.00
C927   C     0.49993   0.49948   0.97581   0.00000  Uiso   1.00
C928   C     0.62419   0.49999   0.75029   0.00000  Uiso   1.00
C929   C     0.37580   0.49999   0.75023   0.00000  Uiso   1.00
C930   C     0.49996   0.49997   0.66411   0.00000  Uiso   1.00
C931   C     0.50009   0.49999   0.83590   0.00000  Uiso   1.00
C932   C     0.53144   0.35734   0.77003   0.00000  Uiso   1.00
C933   C     0.46853   0.64269   0.73003   0.00000  Uiso   1.00
C934   C     0.46856   0.35731   0.72995   0.00000  Uiso   1.00
C935   C     0.53148   0.64273   0.76995   0.00000  Uiso   1.00
C936   C     0.35461   0.45868   0.74905   0.00000  Uiso   1.00
H937   H     0.55657   0.37549   0.78611   0.00000  Uiso   1.00
H938   H     0.62921   0.57347   0.75307   0.00000  Uiso   1.00
H939   H     0.62918   0.42650   0.74770   0.00000  Uiso   1.00
H940   H     0.37081   0.57348   0.75269   0.00000  Uiso   1.00
H941   H     0.37110   0.47863   0.65277   0.00000  Uiso   1.00
H942   H     0.62925   0.48121   0.84716   0.00000  Uiso   1.00
H943   H     0.39821   0.54417   0.87125   0.00000  Uiso   1.00
H944   H     0.62909   0.51901   0.65342   0.00000  Uiso   1.00
H945   H     0.44331   0.62460   0.71412   0.00000  Uiso   1.00
H946   H     0.44344   0.37544   0.71387   0.00000  Uiso   1.00
H947   H     0.55672   0.62467   0.78582   0.00000  Uiso   1.00
H948   H     0.43684   0.52386   0.52905   0.00000  Uiso   1.00
H949   H     0.56260   0.52510   0.97112   0.00000  Uiso   1.00
H950   H     0.43733   0.47371   0.97049   0.00000  Uiso   1.00
H951   H     0.56283   0.47472   0.52935   0.00000  Uiso   1.00
H952   H     0.37078   0.42649   0.74795   0.00000  Uiso   1.00
N953   N     0.50000   0.61907   0.75000   0.00000  Uiso   1.00
N954   N     0.50000   0.38093   0.75000   0.00000  Uiso   1.00
O955   O     0.43892   0.53821   0.74999   0.00000  Uiso   1.00
O956   O     0.38195   0.53409   0.58742   0.00000  Uiso   1.00
O957   O     0.40168   0.47629   0.64914   0.00000  Uiso   1.00
O958   O     0.57891   0.56335   0.84793   0.00000  Uiso   1.00
O959   O     0.61747   0.53620   0.91297   0.00000  Uiso   1.00
O960   O     0.59877   0.47806   0.85113   0.00000  Uiso   1.00
O961   O     0.42220   0.43466   0.84783   0.00000  Uiso   1.00
O962   O     0.38244   0.46263   0.91147   0.00000  Uiso   1.00
O963   O     0.40151   0.51960   0.84907   0.00000  Uiso   1.00
O964   O     0.57871   0.43668   0.65287   0.00000  Uiso   1.00
O965   O     0.61749   0.46359   0.58798   0.00000  Uiso   1.00
O966   O     0.56108   0.46179   0.75000   0.00000  Uiso   1.00
O967   O     0.59860   0.52199   0.64944   0.00000  Uiso   1.00
O968   O     0.56108   0.53821   0.75000   0.00000  Uiso   1.00
O969   O     0.43892   0.46179   0.74999   0.00000  Uiso   1.00
O970   O     0.50000   0.53822   0.68453   0.00000  Uiso   1.00
O971   O     0.50000   0.46178   0.81547   0.00000  Uiso   1.00
O972   O     0.50000   0.53822   0.81547   0.00000  Uiso   1.00
O973   O     0.50000   0.46178   0.68453   0.00000  Uiso   1.00
O974   O     0.42032   0.56192   0.65236   0.00000  Uiso   1.00
S975   S     0.41548   0.52292   0.62066   0.00000  Uiso   1.00
S976   S     0.58419   0.52445   0.87961   0.00000  Uiso   1.00
S977   S     0.41623   0.47412   0.87877   0.00000  Uiso   1.00
S978   S     0.58412   0.47548   0.62106   0.00000  Uiso   1.00
Zn979  Zn    0.50000   0.55104   0.75000   0.00000  Uiso   1.00
Zn980  Zn    0.50000   0.44896   0.75000   0.00000  Uiso   1.00
C981   C     0.75330   0.50000   0.74998   0.00000  Uiso   1.00
C982   C     0.97871   0.54129   0.75185   0.00000  Uiso   1.00
C983   C     0.97869   0.45869   0.74889   0.00000  Uiso   1.00
C984   C     0.68796   0.54129   0.75165   0.00000  Uiso   1.00
C985   C     0.79751   0.51289   0.54718   0.00000  Uiso   1.00
C986   C     0.86879   0.51364   0.95292   0.00000  Uiso   1.00
C987   C     0.79783   0.48539   0.95258   0.00000  Uiso   1.00
C988   C     0.86888   0.48591   0.54735   0.00000  Uiso   1.00
C989   C     0.79668   0.51197   0.59327   0.00000  Uiso   1.00
C990   C     0.86974   0.51271   0.90683   0.00000  Uiso   1.00
C991   C     0.79705   0.48660   0.90650   0.00000  Uiso   1.00
C992   C     0.91337   0.50000   0.75011   0.00000  Uiso   1.00
C993   C     0.86975   0.48714   0.59344   0.00000  Uiso   1.00
C994   C     0.83327   0.49981   0.61639   0.00000  Uiso   1.00
C995   C     0.83338   0.49989   0.88362   0.00000  Uiso   1.00
C996   C     0.83321   0.49940   0.52421   0.00000  Uiso   1.00
C997   C     0.83327   0.49948   0.97581   0.00000  Uiso   1.00
C998   C     0.95752   0.49999   0.75029   0.00000  Uiso   1.00
C999   C     0.70913   0.49999   0.75023   0.00000  Uiso   1.00
C1000  C     0.83329   0.49997   0.66411   0.00000  Uiso   1.00
C1001  C     0.83343   0.49999   0.83590   0.00000  Uiso   1.00
C1002  C     0.86478   0.35734   0.77003   0.00000  Uiso   1.00
C1003  C     0.80186   0.64269   0.73003   0.00000  Uiso   1.00
C1004  C     0.80190   0.35731   0.72995   0.00000  Uiso   1.00
C1005  C     0.86481   0.64273   0.76995   0.00000  Uiso   1.00
C1006  C     0.68795   0.45868   0.74905   0.00000  Uiso   1.00
H1007  H     0.88991   0.37549   0.78611   0.00000  Uiso   1.00
H1008  H     0.96254   0.57347   0.75307   0.00000  Uiso   1.00
H1009  H     0.96252   0.42650   0.74770   0.00000  Uiso   1.00
H1010  H     0.70414   0.57348   0.75269   0.00000  Uiso   1.00
H1011  H     0.70444   0.47863   0.65277   0.00000  Uiso   1.00
H1012  H     0.96258   0.48121   0.84716   0.00000  Uiso   1.00
H1013  H     0.73154   0.54417   0.87125   0.00000  Uiso   1.00
H1014  H     0.96243   0.51901   0.65342   0.00000  Uiso   1.00
H1015  H     0.77664   0.62460   0.71412   0.00000  Uiso   1.00
H1016  H     0.77677   0.37544   0.71387   0.00000  Uiso   1.00
H1017  H     0.89005   0.62467   0.78582   0.00000  Uiso   1.00
H1018  H     0.77017   0.52386   0.52905   0.00000  Uiso   1.00
H1019  H     0.89593   0.52510   0.97112   0.00000  Uiso   1.00
H1020  H     0.77066   0.47371   0.97049   0.00000  Uiso   1.00
H1021  H     0.89617   0.47472   0.52935   0.00000  Uiso   1.00
H1022  H     0.70411   0.42649   0.74795   0.00000  Uiso   1.00
N1023  N     0.83333   0.61907   0.75000   0.00000  Uiso   1.00
N1024  N     0.83333   0.38093   0.75000   0.00000  Uiso   1.00
O1025  O     0.77226   0.53821   0.74999   0.00000  Uiso   1.00
O1026  O     0.71528   0.53409   0.58742   0.00000  Uiso   1.00
O1027  O     0.73501   0.47629   0.64914   0.00000  Uiso   1.00
O1028  O     0.91224   0.56335   0.84793   0.00000  Uiso   1.00
O1029  O     0.95080   0.53620   0.91297   0.00000  Uiso   1.00
O1030  O     0.93210   0.47806   0.85113   0.00000  Uiso   1.00
O1031  O     0.75553   0.43466   0.84783   0.00000  Uiso   1.00
O1032  O     0.71577   0.46263   0.91147   0.00000  Uiso   1.00
O1033  O     0.73484   0.51960   0.84907   0.00000  Uiso   1.00
O1034  O     0.91204   0.43668   0.65287   0.00000  Uiso   1.00
O1035  O     0.95083   0.46359   0.58798   0.00000  Uiso   1.00
O1036  O     0.89441   0.46179   0.75000   0.00000  Uiso   1.00
O1037  O     0.93193   0.52199   0.64944   0.00000  Uiso   1.00
O1038  O     0.89441   0.53821   0.75000   0.00000  Uiso   1.00
O1039  O     0.77226   0.46179   0.74999   0.00000  Uiso   1.00
O1040  O     0.83333   0.53822   0.68453   0.00000  Uiso   1.00
O1041  O     0.83334   0.46178   0.81547   0.00000  Uiso   1.00
O1042  O     0.83334   0.53822   0.81547   0.00000  Uiso   1.00
O1043  O     0.83333   0.46178   0.68453   0.00000  Uiso   1.00
O1044  O     0.75365   0.56192   0.65236   0.00000  Uiso   1.00
S1045  S     0.74881   0.52292   0.62066   0.00000  Uiso   1.00
S1046  S     0.91753   0.52445   0.87961   0.00000  Uiso   1.00
S1047  S     0.74956   0.47412   0.87877   0.00000  Uiso   1.00
S1048  S     0.91745   0.47548   0.62106   0.00000  Uiso   1.00
Zn1049 Zn    0.83333   0.55104   0.75000   0.00000  Uiso   1.00
Zn1050 Zn    0.83333   0.44896   0.75000   0.00000  Uiso   1.00
C1051  C     0.08663   0.83333   0.74998   0.00000  Uiso   1.00
C1052  C     0.31204   0.87462   0.75185   0.00000  Uiso   1.00
C1053  C     0.31203   0.79202   0.74889   0.00000  Uiso   1.00
C1054  C     0.02130   0.87462   0.75165   0.00000  Uiso   1.00
C1055  C     0.13084   0.84622   0.54718   0.00000  Uiso   1.00
C1056  C     0.20213   0.84697   0.95292   0.00000  Uiso   1.00
C1057  C     0.13116   0.81873   0.95258   0.00000  Uiso   1.00
C1058  C     0.20222   0.81925   0.54735   0.00000  Uiso   1.00
C1059  C     0.13001   0.84530   0.59327   0.00000  Uiso   1.00
C1060  C     0.20307   0.84604   0.90683   0.00000  Uiso   1.00
C1061  C     0.13038   0.81994   0.90650   0.00000  Uiso   1.00
C1062  C     0.24670   0.83333   0.75011   0.00000  Uiso   1.00
C1063  C     0.20308   0.82047   0.59344   0.00000  Uiso   1.00
C1064  C     0.16660   0.83314   0.61639   0.00000  Uiso   1.00
C1065  C     0.16671   0.83322   0.88362   0.00000  Uiso   1.00
C1066  C     0.16654   0.83274   0.52421   0.00000  Uiso   1.00
C1067  C     0.16660   0.83281   0.97581   0.00000  Uiso   1.00
C1068  C     0.29086   0.83333   0.75029   0.00000  Uiso   1.00
C1069  C     0.04247   0.83332   0.75023   0.00000  Uiso   1.00
C1070  C     0.16663   0.83330   0.66411   0.00000  Uiso   1.00
C1071  C     0.16676   0.83333   0.83590   0.00000  Uiso   1.00
C1072  C     0.19811   0.69067   0.77003   0.00000  Uiso   1.00
C1073  C     0.13519   0.97603   0.73003   0.00000  Uiso   1.00
C1074  C     0.13523   0.69064   0.72995   0.00000  Uiso   1.00
C1075  C     0.19815   0.97606   0.76995   0.00000  Uiso   1.00
C1076  C     0.02128   0.79202   0.74905   0.00000  Uiso   1.00
H1077  H     0.22324   0.70883   0.78611   0.00000  Uiso   1.00
H1078  H     0.29588   0.90680   0.75307   0.00000  Uiso   1.00
H1079  H     0.29585   0.75984   0.74770   0.00000  Uiso   1.00
H1080  H     0.03747   0.90681   0.75269   0.00000  Uiso   1.00
H1081  H     0.03777   0.81197   0.65277   0.00000  Uiso   1.00
H1082  H     0.29592   0.81455   0.84716   0.00000  Uiso   1.00
H1083  H     0.06488   0.87750   0.87125   0.00000  Uiso   1.00
H1084  H     0.29576   0.85234   0.65342   0.00000  Uiso   1.00
H1085  H     0.10998   0.95793   0.71412   0.00000  Uiso   1.00
H1086  H     0.11011   0.70877   0.71387   0.00000  Uiso   1.00
H1087  H     0.22338   0.95800   0.78582   0.00000  Uiso   1.00
H1088  H     0.10350   0.85719   0.52905   0.00000  Uiso   1.00
H1089  H     0.22926   0.85843   0.97112   0.00000  Uiso   1.00
H1090  H     0.10399   0.80704   0.97049   0.00000  Uiso   1.00
H1091  H     0.22950   0.80805   0.52935   0.00000  Uiso   1.00
H1092  H     0.03745   0.75983   0.74795   0.00000  Uiso   1.00
N1093  N     0.16667   0.95240   0.75000   0.00000  Uiso   1.00
N1094  N     0.16667   0.71427   0.75000   0.00000  Uiso   1.00
O1095  O     0.10559   0.87154   0.74999   0.00000  Uiso   1.00
O1096  O     0.04861   0.86742   0.58742   0.00000  Uiso   1.00
O1097  O     0.06835   0.80963   0.64914   0.00000  Uiso   1.00
O1098  O     0.24557   0.89669   0.84793   0.00000  Uiso   1.00
O1099  O     0.28413   0.86953   0.91297   0.00000  Uiso   1.00
O1100  O     0.26544   0.81140   0.85113   0.00000  Uiso   1.00
O1101  O     0.08887   0.76800   0.84783   0.00000  Uiso   1.00
O1102  O     0.04911   0.79596   0.91147   0.00000  Uiso   1.00
O1103  O     0.06818   0.85293   0.84907   0.00000  Uiso   1.00
O1104  O     0.24538   0.77001   0.65287   0.00000  Uiso   1.00
O1105  O     0.28416   0.79693   0.58798   0.00000  Uiso   1.00
O1106  O     0.22774   0.79513   0.75000   0.00000  Uiso   1.00
O1107  O     0.26526   0.85532   0.64944   0.00000  Uiso   1.00
O1108  O     0.22774   0.87154   0.75000   0.00000  Uiso   1.00
O1109  O     0.10559   0.79513   0.74999   0.00000  Uiso   1.00
O1110  O     0.16666   0.87155   0.68453   0.00000  Uiso   1.00
O1111  O     0.16667   0.79511   0.81547   0.00000  Uiso   1.00
O1112  O     0.16667   0.87155   0.81547   0.00000  Uiso   1.00
O1113  O     0.16666   0.79511   0.68453   0.00000  Uiso   1.00
O1114  O     0.08699   0.89525   0.65236   0.00000  Uiso   1.00
S1115  S     0.08215   0.85625   0.62066   0.00000  Uiso   1.00
S1116  S     0.25086   0.85778   0.87961   0.00000  Uiso   1.00
S1117  S     0.08290   0.80745   0.87877   0.00000  Uiso   1.00
S1118  S     0.25078   0.80881   0.62106   0.00000  Uiso   1.00
Zn1119 Zn    0.16667   0.88437   0.75000   0.00000  Uiso   1.00
Zn1120 Zn    0.16667   0.78229   0.75000   0.00000  Uiso   1.00
C1121  C     0.41996   0.83333   0.74998   0.00000  Uiso   1.00
C1122  C     0.64538   0.87462   0.75185   0.00000  Uiso   1.00
C1123  C     0.64536   0.79202   0.74889   0.00000  Uiso   1.00
C1124  C     0.35463   0.87462   0.75165   0.00000  Uiso   1.00
C1125  C     0.46417   0.84622   0.54718   0.00000  Uiso   1.00
C1126  C     0.53546   0.84697   0.95292   0.00000  Uiso   1.00
C1127  C     0.46449   0.81873   0.95258   0.00000  Uiso   1.00
C1128  C     0.53555   0.81925   0.54735   0.00000  Uiso   1.00
C1129  C     0.46335   0.84530   0.59327   0.00000  Uiso   1.00
C1130  C     0.53640   0.84604   0.90683   0.00000  Uiso   1.00
C1131  C     0.46372   0.81994   0.90650   0.00000  Uiso   1.00
C1132  C     0.58003   0.83333   0.75011   0.00000  Uiso   1.00
C1133  C     0.53641   0.82047   0.59344   0.00000  Uiso   1.00
C1134  C     0.49993   0.83314   0.61639   0.00000  Uiso   1.00
C1135  C     0.50005   0.83322   0.88362   0.00000  Uiso   1.00
C1136  C     0.49988   0.83274   0.52421   0.00000  Uiso   1.00
C1137  C     0.49993   0.83281   0.97581   0.00000  Uiso   1.00
C1138  C     0.62419   0.83333   0.75029   0.00000  Uiso   1.00
C1139  C     0.37580   0.83332   0.75023   0.00000  Uiso   1.00
C1140  C     0.49996   0.83330   0.66411   0.00000  Uiso   1.00
C1141  C     0.50009   0.83333   0.83590   0.00000  Uiso   1.00
C1142  C     0.53144   0.69067   0.77003   0.00000  Uiso   1.00
C1143  C     0.46853   0.97603   0.73003   0.00000  Uiso   1.00
C1144  C     0.46856   0.69064   0.72995   0.00000  Uiso   1.00
C1145  C     0.53148   0.97606   0.76995   0.00000  Uiso   1.00
C1146  C     0.35461   0.79202   0.74905   0.00000  Uiso   1.00
H1147  H     0.55657   0.70883   0.78611   0.00000  Uiso   1.00
H1148  H     0.62921   0.90680   0.75307   0.00000  Uiso   1.00
H1149  H     0.62918   0.75984   0.74770   0.00000  Uiso   1.00
H1150  H     0.37081   0.90681   0.75269   0.00000  Uiso   1.00
H1151  H     0.37110   0.81197   0.65277   0.00000  Uiso   1.00
H1152  H     0.62925   0.81455   0.84716   0.00000  Uiso   1.00
H1153  H     0.39821   0.87750   0.87125   0.00000  Uiso   1.00
H1154  H     0.62909   0.85234   0.65342   0.00000  Uiso   1.00
H1155  H     0.44331   0.95793   0.71412   0.00000  Uiso   1.00
H1156  H     0.44344   0.70877   0.71387   0.00000  Uiso   1.00
H1157  H     0.55672   0.95800   0.78582   0.00000  Uiso   1.00
H1158  H     0.43684   0.85719   0.52905   0.00000  Uiso   1.00
H1159  H     0.56260   0.85843   0.97112   0.00000  Uiso   1.00
H1160  H     0.43733   0.80704   0.97049   0.00000  Uiso   1.00
H1161  H     0.56283   0.80805   0.52935   0.00000  Uiso   1.00
H1162  H     0.37078   0.75983   0.74795   0.00000  Uiso   1.00
N1163  N     0.50000   0.95240   0.75000   0.00000  Uiso   1.00
N1164  N     0.50000   0.71427   0.75000   0.00000  Uiso   1.00
O1165  O     0.43892   0.87154   0.74999   0.00000  Uiso   1.00
O1166  O     0.38195   0.86742   0.58742   0.00000  Uiso   1.00
O1167  O     0.40168   0.80963   0.64914   0.00000  Uiso   1.00
O1168  O     0.57891   0.89669   0.84793   0.00000  Uiso   1.00
O1169  O     0.61747   0.86953   0.91297   0.00000  Uiso   1.00
O1170  O     0.59877   0.81140   0.85113   0.00000  Uiso   1.00
O1171  O     0.42220   0.76800   0.84783   0.00000  Uiso   1.00
O1172  O     0.38244   0.79596   0.91147   0.00000  Uiso   1.00
O1173  O     0.40151   0.85293   0.84907   0.00000  Uiso   1.00
O1174  O     0.57871   0.77001   0.65287   0.00000  Uiso   1.00
O1175  O     0.61749   0.79693   0.58798   0.00000  Uiso   1.00
O1176  O     0.56108   0.79513   0.75000   0.00000  Uiso   1.00
O1177  O     0.59860   0.85532   0.64944   0.00000  Uiso   1.00
O1178  O     0.56108   0.87154   0.75000   0.00000  Uiso   1.00
O1179  O     0.43892   0.79513   0.74999   0.00000  Uiso   1.00
O1180  O     0.50000   0.87155   0.68453   0.00000  Uiso   1.00
O1181  O     0.50000   0.79511   0.81547   0.00000  Uiso   1.00
O1182  O     0.50000   0.87155   0.81547   0.00000  Uiso   1.00
O1183  O     0.50000   0.79511   0.68453   0.00000  Uiso   1.00
O1184  O     0.42032   0.89525   0.65236   0.00000  Uiso   1.00
S1185  S     0.41548   0.85625   0.62066   0.00000  Uiso   1.00
S1186  S     0.58419   0.85778   0.87961   0.00000  Uiso   1.00
S1187  S     0.41623   0.80745   0.87877   0.00000  Uiso   1.00
S1188  S     0.58412   0.80881   0.62106   0.00000  Uiso   1.00
Zn1189 Zn    0.50000   0.88437   0.75000   0.00000  Uiso   1.00
Zn1190 Zn    0.50000   0.78229   0.75000   0.00000  Uiso   1.00
C1191  C     0.75330   0.83333   0.74998   0.00000  Uiso   1.00
C1192  C     0.97871   0.87462   0.75185   0.00000  Uiso   1.00
C1193  C     0.97869   0.79202   0.74889   0.00000  Uiso   1.00
C1194  C     0.68796   0.87462   0.75165   0.00000  Uiso   1.00
C1195  C     0.79751   0.84622   0.54718   0.00000  Uiso   1.00
C1196  C     0.86879   0.84697   0.95292   0.00000  Uiso   1.00
C1197  C     0.79783   0.81873   0.95258   0.00000  Uiso   1.00
C1198  C     0.86888   0.81925   0.54735   0.00000  Uiso   1.00
C1199  C     0.79668   0.84530   0.59327   0.00000  Uiso   1.00
C1200  C     0.86974   0.84604   0.90683   0.00000  Uiso   1.00
C1201  C     0.79705   0.81994   0.90650   0.00000  Uiso   1.00
C1202  C     0.91337   0.83333   0.75011   0.00000  Uiso   1.00
C1203  C     0.86975   0.82047   0.59344   0.00000  Uiso   1.00
C1204  C     0.83327   0.83314   0.61639   0.00000  Uiso   1.00
C1205  C     0.83338   0.83322   0.88362   0.00000  Uiso   1.00
C1206  C     0.83321   0.83274   0.52421   0.00000  Uiso   1.00
C1207  C     0.83327   0.83281   0.97581   0.00000  Uiso   1.00
C1208  C     0.95752   0.83333   0.75029   0.00000  Uiso   1.00
C1209  C     0.70913   0.83332   0.75023   0.00000  Uiso   1.00
C1210  C     0.83329   0.83330   0.66411   0.00000  Uiso   1.00
C1211  C     0.83343   0.83333   0.83590   0.00000  Uiso   1.00
C1212  C     0.86478   0.69067   0.77003   0.00000  Uiso   1.00
C1213  C     0.80186   0.97603   0.73003   0.00000  Uiso   1.00
C1214  C     0.80190   0.69064   0.72995   0.00000  Uiso   1.00
C1215  C     0.86481   0.97606   0.76995   0.00000  Uiso   1.00
C1216  C     0.68795   0.79202   0.74905   0.00000  Uiso   1.00
H1217  H     0.88991   0.70883   0.78611   0.00000  Uiso   1.00
H1218  H     0.96254   0.90680   0.75307   0.00000  Uiso   1.00
H1219  H     0.96252   0.75984   0.74770   0.00000  Uiso   1.00
H1220  H     0.70414   0.90681   0.75269   0.00000  Uiso   1.00
H1221  H     0.70444   0.81197   0.65277   0.00000  Uiso   1.00
H1222  H     0.96258   0.81455   0.84716   0.00000  Uiso   1.00
H1223  H     0.73154   0.87750   0.87125   0.00000  Uiso   1.00
H1224  H     0.96243   0.85234   0.65342   0.00000  Uiso   1.00
H1225  H     0.77664   0.95793   0.71412   0.00000  Uiso   1.00
H1226  H     0.77677   0.70877   0.71387   0.00000  Uiso   1.00
H1227  H     0.89005   0.95800   0.78582   0.00000  Uiso   1.00
H1228  H     0.77017   0.85719   0.52905   0.00000  Uiso   1.00
H1229  H     0.89593   0.85843   0.97112   0.00000  Uiso   1.00
H1230  H     0.77066   0.80704   0.97049   0.00000  Uiso   1.00
H1231  H     0.89617   0.80805   0.52935   0.00000  Uiso   1.00
H1232  H     0.70411   0.75983   0.74795   0.00000  Uiso   1.00
N1233  N     0.83333   0.95240   0.75000   0.00000  Uiso   1.00
N1234  N     0.83333   0.71427   0.75000   0.00000  Uiso   1.00
O1235  O     0.77226   0.87154   0.74999   0.00000  Uiso   1.00
O1236  O     0.71528   0.86742   0.58742   0.00000  Uiso   1.00
O1237  O     0.73501   0.80963   0.64914   0.00000  Uiso   1.00
O1238  O     0.91224   0.89669   0.84793   0.00000  Uiso   1.00
O1239  O     0.95080   0.86953   0.91297   0.00000  Uiso   1.00
O1240  O     0.93210   0.81140   0.85113   0.00000  Uiso   1.00
O1241  O     0.75553   0.76800   0.84783   0.00000  Uiso   1.00
O1242  O     0.71577   0.79596   0.91147   0.00000  Uiso   1.00
O1243  O     0.73484   0.85293   0.84907   0.00000  Uiso   1.00
O1244  O     0.91204   0.77001   0.65287   0.00000  Uiso   1.00
O1245  O     0.95083   0.79693   0.58798   0.00000  Uiso   1.00
O1246  O     0.89441   0.79513   0.75000   0.00000  Uiso   1.00
O1247  O     0.93193   0.85532   0.64944   0.00000  Uiso   1.00
O1248  O     0.89441   0.87154   0.75000   0.00000  Uiso   1.00
O1249  O     0.77226   0.79513   0.74999   0.00000  Uiso   1.00
O1250  O     0.83333   0.87155   0.68453   0.00000  Uiso   1.00
O1251  O     0.83334   0.79511   0.81547   0.00000  Uiso   1.00
O1252  O     0.83334   0.87155   0.81547   0.00000  Uiso   1.00
O1253  O     0.83333   0.79511   0.68453   0.00000  Uiso   1.00
O1254  O     0.75365   0.89525   0.65236   0.00000  Uiso   1.00
S1255  S     0.74881   0.85625   0.62066   0.00000  Uiso   1.00
S1256  S     0.91753   0.85778   0.87961   0.00000  Uiso   1.00
S1257  S     0.74956   0.80745   0.87877   0.00000  Uiso   1.00
S1258  S     0.91745   0.80881   0.62106   0.00000  Uiso   1.00
Zn1259 Zn    0.83333   0.88437   0.75000   0.00000  Uiso   1.00
Zn1260 Zn    0.83333   0.78229   0.75000   0.00000  Uiso   1.00
loop_
_geom_bond_atom_site_label_1
_geom_bond_atom_site_label_2
_geom_bond_distance
_geom_bond_site_symmetry_2
_ccdc_geom_bond_type
C1     O59     1.282   .     A
C1     C19     1.418   .     S
C1     O45     1.282   .     A
C2     H28     1.083   .     S
C2     C18     1.397   .     A
C2     C74     1.368   .     S
C3     H29     1.083   .     S
C3     C18     1.397   .     A
C3     C96     1.368   .     S
C4     H30     1.084   .     S
C4     C19     1.397   .     A
C4     C142    1.368   1_455 S
C5     C9      1.385   .     A
C5     C16     1.397   .     A
C5     H38     1.082   .     S
C6     C10     1.385   .     A
C6     C17     1.397   .     A
C6     H39     1.082   .     S
C7     H40     1.082   .     S
C7     C11     1.385   .     A
C7     C17     1.397   .     A
C8     C13     1.385   .     A
C8     C16     1.397   .     A
C8     H41     1.082   .     S
C9     S65     1.774   .     S
C9     C14     1.411   .     A
C10    C15     1.411   .     A
C10    S66     1.774   .     S
C11    C15     1.411   .     A
C11    S67     1.775   .     S
C12    O58     1.282   .     A
C12    O56     1.282   .     A
C12    C18     1.418   .     S
C13    C14     1.411   .     A
C13    S68     1.775   .     S
C14    C20     1.433   .     S
C15    C21     1.434   .     S
C16    C647    1.454   1_554 S
C17    C646    1.454   .     S
C19    C26     1.397   .     A
C20    O60     1.285   .     A
C20    O63     1.284   .     A
C21    O62     1.285   .     A
C21    O61     1.284   .     A
C22    H27     1.082   .     S
C22    N44     1.366   .     A
C22    C445    1.415   1_545 S
C23    H35     1.081   .     S
C23    N43     1.366   .     A
C23    C234    1.416   .     S
C24    H36     1.082   .     S
C24    N44     1.366   .     A
C24    C443    1.416   1_545 S
C25    N43     1.366   .     A
C25    H37     1.081   .     S
C25    C232    1.415   .     S
C26    H42     1.083   .     S
C26    C143    1.368   1_455 S
H31    O47     0.991   .     S
H32    O50     0.991   .     S
H33    O53     0.990   .     S
H34    O57     0.990   .     S
N43    Zn69    2.008   .     S
N44    Zn70    2.008   .     S
O45    Zn69    1.998   .     S
O46    S65     1.504   .     D
O47    S65     1.681   .     S
O48    S66     1.502   .     D
O49    S66     1.504   .     D
O50    S66     1.681   .     S
O51    S67     1.502   .     D
O52    S67     1.504   .     D
O53    S67     1.680   .     S
O54    S68     1.502   .     D
O55    S68     1.504   .     D
O56    Zn70    1.998   .     S
O57    S68     1.681   .     S
O58    Zn69    1.998   .     S
O59    Zn70    1.998   .     S
O60    Zn69    2.002   .     S
O61    Zn70    2.002   .     S
O62    Zn69    2.003   .     S
O63    Zn70    2.003   .     S
O64    S65     1.502   .     D
C71    O129    1.282   .     A
C71    C89     1.418   .     S
C71    O115    1.282   .     A
C72    H98     1.083   .     S
C72    C88     1.397   .     A
C72    C144    1.368   .     S
C73    H99     1.083   .     S
C73    C88     1.397   .     A
C73    C166    1.368   .     S
C74    H100    1.084   .     S
C74    C89     1.397   .     A
C75    C79     1.385   .     A
C75    C86     1.397   .     A
C75    H108    1.082   .     S
C76    C80     1.385   .     A
C76    C87     1.397   .     A
C76    H109    1.082   .     S
C77    H110    1.082   .     S
C77    C81     1.385   .     A
C77    C87     1.397   .     A
C78    C83     1.385   .     A
C78    C86     1.397   .     A
C78    H111    1.082   .     S
C79    S135    1.774   .     S
C79    C84     1.411   .     A
C80    C85     1.411   .     A
C80    S136    1.774   .     S
C81    C85     1.411   .     A
C81    S137    1.775   .     S
C82    O128    1.282   .     A
C82    O126    1.282   .     A
C82    C88     1.418   .     S
C83    C84     1.411   .     A
C83    S138    1.775   .     S
C84    C90     1.433   .     S
C85    C91     1.434   .     S
C86    C717    1.454   1_554 S
C87    C716    1.454   .     S
C89    C96     1.397   .     A
C90    O130    1.285   .     A
C90    O133    1.284   .     A
C91    O132    1.285   .     A
C91    O131    1.284   .     A
C92    H97     1.082   .     S
C92    N114    1.366   .     A
C92    C515    1.415   1_545 S
C93    H105    1.081   .     S
C93    N113    1.366   .     A
C93    C304    1.416   .     S
C94    H106    1.082   .     S
C94    N114    1.366   .     A
C94    C513    1.416   1_545 S
C95    N113    1.366   .     A
C95    H107    1.081   .     S
C95    C302    1.415   .     S
C96    H112    1.083   .     S
H101   O117    0.991   .     S
H102   O120    0.991   .     S
H103   O123    0.990   .     S
H104   O127    0.990   .     S
N113   Zn139   2.008   .     S
N114   Zn140   2.008   .     S
O115   Zn139   1.998   .     S
O116   S135    1.504   .     D
O117   S135    1.681   .     S
O118   S136    1.502   .     D
O119   S136    1.504   .     D
O120   S136    1.681   .     S
O121   S137    1.502   .     D
O122   S137    1.504   .     D
O123   S137    1.680   .     S
O124   S138    1.502   .     D
O125   S138    1.504   .     D
O126   Zn140   1.998   .     S
O127   S138    1.681   .     S
O128   Zn139   1.998   .     S
O129   Zn140   1.998   .     S
O130   Zn139   2.002   .     S
O131   Zn140   2.002   .     S
O132   Zn139   2.003   .     S
O133   Zn140   2.003   .     S
O134   S135    1.502   .     D
C141   O199    1.282   .     A
C141   C159    1.418   .     S
C141   O185    1.282   .     A
C142   H168    1.083   .     S
C142   C158    1.397   .     A
C142   C4      1.368   1_655 S
C143   H169    1.083   .     S
C143   C158    1.397   .     A
C143   C26     1.368   1_655 S
C144   H170    1.084   .     S
C144   C159    1.397   .     A
C145   C149    1.385   .     A
C145   C156    1.397   .     A
C145   H178    1.082   .     S
C146   C150    1.385   .     A
C146   C157    1.397   .     A
C146   H179    1.082   .     S
C147   H180    1.082   .     S
C147   C151    1.385   .     A
C147   C157    1.397   .     A
C148   C153    1.385   .     A
C148   C156    1.397   .     A
C148   H181    1.082   .     S
C149   S205    1.774   .     S
C149   C154    1.411   .     A
C150   C155    1.411   .     A
C150   S206    1.774   .     S
C151   C155    1.411   .     A
C151   S207    1.775   .     S
C152   O198    1.282   .     A
C152   O196    1.282   .     A
C152   C158    1.418   .     S
C153   C154    1.411   .     A
C153   S208    1.775   .     S
C154   C160    1.433   .     S
C155   C161    1.434   .     S
C156   C787    1.454   1_554 S
C157   C786    1.454   .     S
C159   C166    1.397   .     A
C160   O200    1.285   .     A
C160   O203    1.284   .     A
C161   O202    1.285   .     A
C161   O201    1.284   .     A
C162   H167    1.082   .     S
C162   N184    1.366   .     A
C162   C585    1.415   1_545 S
C163   H175    1.081   .     S
C163   N183    1.366   .     A
C163   C374    1.416   .     S
C164   H176    1.082   .     S
C164   N184    1.366   .     A
C164   C583    1.416   1_545 S
C165   N183    1.366   .     A
C165   H177    1.081   .     S
C165   C372    1.415   .     S
C166   H182    1.083   .     S
H171   O187    0.991   .     S
H172   O190    0.991   .     S
H173   O193    0.990   .     S
H174   O197    0.990   .     S
N183   Zn209   2.008   .     S
N184   Zn210   2.008   .     S
O185   Zn209   1.998   .     S
O186   S205    1.504   .     D
O187   S205    1.681   .     S
O188   S206    1.502   .     D
O189   S206    1.504   .     D
O190   S206    1.681   .     S
O191   S207    1.502   .     D
O192   S207    1.504   .     D
O193   S207    1.680   .     S
O194   S208    1.502   .     D
O195   S208    1.504   .     D
O196   Zn210   1.998   .     S
O197   S208    1.681   .     S
O198   Zn209   1.998   .     S
O199   Zn210   1.998   .     S
O200   Zn209   2.002   .     S
O201   Zn210   2.002   .     S
O202   Zn209   2.003   .     S
O203   Zn210   2.003   .     S
O204   S205    1.502   .     D
C211   O269    1.282   .     A
C211   C229    1.418   .     S
C211   O255    1.282   .     A
C212   H238    1.083   .     S
C212   C228    1.397   .     A
C212   C284    1.368   .     S
C213   H239    1.083   .     S
C213   C228    1.397   .     A
C213   C306    1.368   .     S
C214   H240    1.084   .     S
C214   C229    1.397   .     A
C214   C352    1.368   1_455 S
C215   C219    1.385   .     A
C215   C226    1.397   .     A
C215   H248    1.082   .     S
C216   C220    1.385   .     A
C216   C227    1.397   .     A
C216   H249    1.082   .     S
C217   H250    1.082   .     S
C217   C221    1.385   .     A
C217   C227    1.397   .     A
C218   C223    1.385   .     A
C218   C226    1.397   .     A
C218   H251    1.082   .     S
C219   S275    1.774   .     S
C219   C224    1.411   .     A
C220   C225    1.411   .     A
C220   S276    1.774   .     S
C221   C225    1.411   .     A
C221   S277    1.775   .     S
C222   O268    1.282   .     A
C222   O266    1.282   .     A
C222   C228    1.418   .     S
C223   C224    1.411   .     A
C223   S278    1.775   .     S
C224   C230    1.433   .     S
C225   C231    1.434   .     S
C226   C857    1.454   1_554 S
C227   C856    1.454   .     S
C229   C236    1.397   .     A
C230   O270    1.285   .     A
C230   O273    1.284   .     A
C231   O272    1.285   .     A
C231   O271    1.284   .     A
C232   H237    1.082   .     S
C232   N254    1.366   .     A
C233   H245    1.081   .     S
C233   N253    1.366   .     A
C233   C444    1.416   .     S
C234   H246    1.082   .     S
C234   N254    1.366   .     A
C235   N253    1.366   .     A
C235   H247    1.081   .     S
C235   C442    1.415   .     S
C236   H252    1.083   .     S
C236   C353    1.368   1_455 S
H241   O257    0.991   .     S
H242   O260    0.991   .     S
H243   O263    0.990   .     S
H244   O267    0.990   .     S
N253   Zn279   2.008   .     S
N254   Zn280   2.008   .     S
O255   Zn279   1.998   .     S
O256   S275    1.504   .     D
O257   S275    1.681   .     S
O258   S276    1.502   .     D
O259   S276    1.504   .     D
O260   S276    1.681   .     S
O261   S277    1.502   .     D
O262   S277    1.504   .     D
O263   S277    1.680   .     S
O264   S278    1.502   .     D
O265   S278    1.504   .     D
O266   Zn280   1.998   .     S
O267   S278    1.681   .     S
O268   Zn279   1.998   .     S
O269   Zn280   1.998   .     S
O270   Zn279   2.002   .     S
O271   Zn280   2.002   .     S
O272   Zn279   2.003   .     S
O273   Zn280   2.003   .     S
O274   S275    1.502   .     D
C281   O339    1.282   .     A
C281   C299    1.418   .     S
C281   O325    1.282   .     A
C282   H308    1.083   .     S
C282   C298    1.397   .     A
C282   C354    1.368   .     S
C283   H309    1.083   .     S
C283   C298    1.397   .     A
C283   C376    1.368   .     S
C284   H310    1.084   .     S
C284   C299    1.397   .     A
C285   C289    1.385   .     A
C285   C296    1.397   .     A
C285   H318    1.082   .     S
C286   C290    1.385   .     A
C286   C297    1.397   .     A
C286   H319    1.082   .     S
C287   H320    1.082   .     S
C287   C291    1.385   .     A
C287   C297    1.397   .     A
C288   C293    1.385   .     A
C288   C296    1.397   .     A
C288   H321    1.082   .     S
C289   S345    1.774   .     S
C289   C294    1.411   .     A
C290   C295    1.411   .     A
C290   S346    1.774   .     S
C291   C295    1.411   .     A
C291   S347    1.775   .     S
C292   O338    1.282   .     A
C292   O336    1.282   .     A
C292   C298    1.418   .     S
C293   C294    1.411   .     A
C293   S348    1.775   .     S
C294   C300    1.433   .     S
C295   C301    1.434   .     S
C296   C927    1.454   1_554 S
C297   C926    1.454   .     S
C299   C306    1.397   .     A
C300   O340    1.285   .     A
C300   O343    1.284   .     A
C301   O342    1.285   .     A
C301   O341    1.284   .     A
C302   H307    1.082   .     S
C302   N324    1.366   .     A
C303   H315    1.081   .     S
C303   N323    1.366   .     A
C303   C514    1.416   .     S
C304   H316    1.082   .     S
C304   N324    1.366   .     A
C305   N323    1.366   .     A
C305   H317    1.081   .     S
C305   C512    1.415   .     S
C306   H322    1.083   .     S
H311   O327    0.991   .     S
H312   O330    0.991   .     S
H313   O333    0.990   .     S
H314   O337    0.990   .     S
N323   Zn349   2.008   .     S
N324   Zn350   2.008   .     S
O325   Zn349   1.998   .     S
O326   S345    1.504   .     D
O327   S345    1.681   .     S
O328   S346    1.502   .     D
O329   S346    1.504   .     D
O330   S346    1.681   .     S
O331   S347    1.502   .     D
O332   S347    1.504   .     D
O333   S347    1.680   .     S
O334   S348    1.502   .     D
O335   S348    1.504   .     D
O336   Zn350   1.998   .     S
O337   S348    1.681   .     S
O338   Zn349   1.998   .     S
O339   Zn350   1.998   .     S
O340   Zn349   2.002   .     S
O341   Zn350   2.002   .     S
O342   Zn349   2.003   .     S
O343   Zn350   2.003   .     S
O344   S345    1.502   .     D
C351   O409    1.282   .     A
C351   C369    1.418   .     S
C351   O395    1.282   .     A
C352   H378    1.083   .     S
C352   C368    1.397   .     A
C352   C214    1.368   1_655 S
C353   H379    1.083   .     S
C353   C368    1.397   .     A
C353   C236    1.368   1_655 S
C354   H380    1.084   .     S
C354   C369    1.397   .     A
C355   C359    1.385   .     A
C355   C366    1.397   .     A
C355   H388    1.082   .     S
C356   C360    1.385   .     A
C356   C367    1.397   .     A
C356   H389    1.082   .     S
C357   H390    1.082   .     S
C357   C361    1.385   .     A
C357   C367    1.397   .     A
C358   C363    1.385   .     A
C358   C366    1.397   .     A
C358   H391    1.082   .     S
C359   S415    1.774   .     S
C359   C364    1.411   .     A
C360   C365    1.411   .     A
C360   S416    1.774   .     S
C361   C365    1.411   .     A
C361   S417    1.775   .     S
C362   O408    1.282   .     A
C362   O406    1.282   .     A
C362   C368    1.418   .     S
C363   C364    1.411   .     A
C363   S418    1.775   .     S
C364   C370    1.433   .     S
C365   C371    1.434   .     S
C366   C997    1.454   1_554 S
C367   C996    1.454   .     S
C369   C376    1.397   .     A
C370   O410    1.285   .     A
C370   O413    1.284   .     A
C371   O412    1.285   .     A
C371   O411    1.284   .     A
C372   H377    1.082   .     S
C372   N394    1.366   .     A
C373   H385    1.081   .     S
C373   N393    1.366   .     A
C373   C584    1.416   .     S
C374   H386    1.082   .     S
C374   N394    1.366   .     A
C375   N393    1.366   .     A
C375   H387    1.081   .     S
C375   C582    1.415   .     S
C376   H392    1.083   .     S
H381   O397    0.991   .     S
H382   O400    0.991   .     S
H383   O403    0.990   .     S
H384   O407    0.990   .     S
N393   Zn419   2.008   .     S
N394   Zn420   2.008   .     S
O395   Zn419   1.998   .     S
O396   S415    1.504   .     D
O397   S415    1.681   .     S
O398   S416    1.502   .     D
O399   S416    1.504   .     D
O400   S416    1.681   .     S
O401   S417    1.502   .     D
O402   S417    1.504   .     D
O403   S417    1.680   .     S
O404   S418    1.502   .     D
O405   S418    1.504   .     D
O406   Zn420   1.998   .     S
O407   S418    1.681   .     S
O408   Zn419   1.998   .     S
O409   Zn420   1.998   .     S
O410   Zn419   2.002   .     S
O411   Zn420   2.002   .     S
O412   Zn419   2.003   .     S
O413   Zn420   2.003   .     S
O414   S415    1.502   .     D
C421   O479    1.282   .     A
C421   C439    1.418   .     S
C421   O465    1.282   .     A
C422   H448    1.083   .     S
C422   C438    1.397   .     A
C422   C494    1.368   .     S
C423   H449    1.083   .     S
C423   C438    1.397   .     A
C423   C516    1.368   .     S
C424   H450    1.084   .     S
C424   C439    1.397   .     A
C424   C562    1.368   1_455 S
C425   C429    1.385   .     A
C425   C436    1.397   .     A
C425   H458    1.082   .     S
C426   C430    1.385   .     A
C426   C437    1.397   .     A
C426   H459    1.082   .     S
C427   H460    1.082   .     S
C427   C431    1.385   .     A
C427   C437    1.397   .     A
C428   C433    1.385   .     A
C428   C436    1.397   .     A
C428   H461    1.082   .     S
C429   S485    1.774   .     S
C429   C434    1.411   .     A
C430   C435    1.411   .     A
C430   S486    1.774   .     S
C431   C435    1.411   .     A
C431   S487    1.775   .     S
C432   O478    1.282   .     A
C432   O476    1.282   .     A
C432   C438    1.418   .     S
C433   C434    1.411   .     A
C433   S488    1.775   .     S
C434   C440    1.433   .     S
C435   C441    1.434   .     S
C436   C1067   1.454   1_554 S
C437   C1066   1.454   .     S
C439   C446    1.397   .     A
C440   O480    1.285   .     A
C440   O483    1.284   .     A
C441   O482    1.285   .     A
C441   O481    1.284   .     A
C442   H447    1.082   .     S
C442   N464    1.366   .     A
C443   H455    1.081   .     S
C443   N463    1.366   .     A
C443   C24     1.416   1_565 S
C444   H456    1.082   .     S
C444   N464    1.366   .     A
C445   N463    1.366   .     A
C445   H457    1.081   .     S
C445   C22     1.415   1_565 S
C446   H462    1.083   .     S
C446   C563    1.368   1_455 S
H451   O467    0.991   .     S
H452   O470    0.991   .     S
H453   O473    0.990   .     S
H454   O477    0.990   .     S
N463   Zn489   2.008   .     S
N464   Zn490   2.008   .     S
O465   Zn489   1.998   .     S
O466   S485    1.504   .     D
O467   S485    1.681   .     S
O468   S486    1.502   .     D
O469   S486    1.504   .     D
O470   S486    1.681   .     S
O471   S487    1.502   .     D
O472   S487    1.504   .     D
O473   S487    1.680   .     S
O474   S488    1.502   .     D
O475   S488    1.504   .     D
O476   Zn490   1.998   .     S
O477   S488    1.681   .     S
O478   Zn489   1.998   .     S
O479   Zn490   1.998   .     S
O480   Zn489   2.002   .     S
O481   Zn490   2.002   .     S
O482   Zn489   2.003   .     S
O483   Zn490   2.003   .     S
O484   S485    1.502   .     D
C491   O549    1.282   .     A
C491   C509    1.418   .     S
C491   O535    1.282   .     A
C492   H518    1.083   .     S
C492   C508    1.397   .     A
C492   C564    1.368   .     S
C493   H519    1.083   .     S
C493   C508    1.397   .     A
C493   C586    1.368   .     S
C494   H520    1.084   .     S
C494   C509    1.397   .     A
C495   C499    1.385   .     A
C495   C506    1.397   .     A
C495   H528    1.082   .     S
C496   C500    1.385   .     A
C496   C507    1.397   .     A
C496   H529    1.082   .     S
C497   H530    1.082   .     S
C497   C501    1.385   .     A
C497   C507    1.397   .     A
C498   C503    1.385   .     A
C498   C506    1.397   .     A
C498   H531    1.082   .     S
C499   S555    1.774   .     S
C499   C504    1.411   .     A
C500   C505    1.411   .     A
C500   S556    1.774   .     S
C501   C505    1.411   .     A
C501   S557    1.775   .     S
C502   O548    1.282   .     A
C502   O546    1.282   .     A
C502   C508    1.418   .     S
C503   C504    1.411   .     A
C503   S558    1.775   .     S
C504   C510    1.433   .     S
C505   C511    1.434   .     S
C506   C1137   1.454   1_554 S
C507   C1136   1.454   .     S
C509   C516    1.397   .     A
C510   O550    1.285   .     A
C510   O553    1.284   .     A
C511   O552    1.285   .     A
C511   O551    1.284   .     A
C512   H517    1.082   .     S
C512   N534    1.366   .     A
C513   H525    1.081   .     S
C513   N533    1.366   .     A
C513   C94     1.416   1_565 S
C514   H526    1.082   .     S
C514   N534    1.366   .     A
C515   N533    1.366   .     A
C515   H527    1.081   .     S
C515   C92     1.415   1_565 S
C516   H532    1.083   .     S
H521   O537    0.991   .     S
H522   O540    0.991   .     S
H523   O543    0.990   .     S
H524   O547    0.990   .     S
N533   Zn559   2.008   .     S
N534   Zn560   2.008   .     S
O535   Zn559   1.998   .     S
O536   S555    1.504   .     D
O537   S555    1.681   .     S
O538   S556    1.502   .     D
O539   S556    1.504   .     D
O540   S556    1.681   .     S
O541   S557    1.502   .     D
O542   S557    1.504   .     D
O543   S557    1.680   .     S
O544   S558    1.502   .     D
O545   S558    1.504   .     D
O546   Zn560   1.998   .     S
O547   S558    1.681   .     S
O548   Zn559   1.998   .     S
O549   Zn560   1.998   .     S
O550   Zn559   2.002   .     S
O551   Zn560   2.002   .     S
O552   Zn559   2.003   .     S
O553   Zn560   2.003   .     S
O554   S555    1.502   .     D
C561   O619    1.282   .     A
C561   C579    1.418   .     S
C561   O605    1.282   .     A
C562   H588    1.083   .     S
C562   C578    1.397   .     A
C562   C424    1.368   1_655 S
C563   H589    1.083   .     S
C563   C578    1.397   .     A
C563   C446    1.368   1_655 S
C564   H590    1.084   .     S
C564   C579    1.397   .     A
C565   C569    1.385   .     A
C565   C576    1.397   .     A
C565   H598    1.082   .     S
C566   C570    1.385   .     A
C566   C577    1.397   .     A
C566   H599    1.082   .     S
C567   H600    1.082   .     S
C567   C571    1.385   .     A
C567   C577    1.397   .     A
C568   C573    1.385   .     A
C568   C576    1.397   .     A
C568   H601    1.082   .     S
C569   S625    1.774   .     S
C569   C574    1.411   .     A
C570   C575    1.411   .     A
C570   S626    1.774   .     S
C571   C575    1.411   .     A
C571   S627    1.775   .     S
C572   O618    1.282   .     A
C572   O616    1.282   .     A
C572   C578    1.418   .     S
C573   C574    1.411   .     A
C573   S628    1.775   .     S
C574   C580    1.433   .     S
C575   C581    1.434   .     S
C576   C1207   1.454   1_554 S
C577   C1206   1.454   .     S
C579   C586    1.397   .     A
C580   O620    1.285   .     A
C580   O623    1.284   .     A
C581   O622    1.285   .     A
C581   O621    1.284   .     A
C582   H587    1.082   .     S
C582   N604    1.366   .     A
C583   H595    1.081   .     S
C583   N603    1.366   .     A
C583   C164    1.416   1_565 S
C584   H596    1.082   .     S
C584   N604    1.366   .     A
C585   N603    1.366   .     A
C585   H597    1.081   .     S
C585   C162    1.415   1_565 S
C586   H602    1.083   .     S
H591   O607    0.991   .     S
H592   O610    0.991   .     S
H593   O613    0.990   .     S
H594   O617    0.990   .     S
N603   Zn629   2.008   .     S
N604   Zn630   2.008   .     S
O605   Zn629   1.998   .     S
O606   S625    1.504   .     D
O607   S625    1.681   .     S
O608   S626    1.502   .     D
O609   S626    1.504   .     D
O610   S626    1.681   .     S
O611   S627    1.502   .     D
O612   S627    1.504   .     D
O613   S627    1.680   .     S
O614   S628    1.502   .     D
O615   S628    1.504   .     D
O616   Zn630   1.998   .     S
O617   S628    1.681   .     S
O618   Zn629   1.998   .     S
O619   Zn630   1.998   .     S
O620   Zn629   2.002   .     S
O621   Zn630   2.002   .     S
O622   Zn629   2.003   .     S
O623   Zn630   2.003   .     S
O624   S625    1.502   .     D
C631   O689    1.282   .     A
C631   C649    1.418   .     S
C631   O675    1.282   .     A
C632   H658    1.083   .     S
C632   C648    1.397   .     A
C632   C704    1.368   .     S
C633   H659    1.083   .     S
C633   C648    1.397   .     A
C633   C726    1.368   .     S
C634   H660    1.084   .     S
C634   C649    1.397   .     A
C634   C772    1.368   1_455 S
C635   C639    1.385   .     A
C635   C646    1.397   .     A
C635   H668    1.082   .     S
C636   C640    1.385   .     A
C636   C647    1.397   .     A
C636   H669    1.082   .     S
C637   H670    1.082   .     S
C637   C641    1.385   .     A
C637   C647    1.397   .     A
C638   C643    1.385   .     A
C638   C646    1.397   .     A
C638   H671    1.082   .     S
C639   S695    1.774   .     S
C639   C644    1.411   .     A
C640   C645    1.411   .     A
C640   S696    1.774   .     S
C641   C645    1.411   .     A
C641   S697    1.775   .     S
C642   O688    1.282   .     A
C642   O686    1.282   .     A
C642   C648    1.418   .     S
C643   C644    1.411   .     A
C643   S698    1.775   .     S
C644   C650    1.433   .     S
C645   C651    1.434   .     S
C647   C16     1.454   1_556 S
C649   C656    1.397   .     A
C650   O690    1.285   .     A
C650   O693    1.284   .     A
C651   O692    1.285   .     A
C651   O691    1.284   .     A
C652   H657    1.082   .     S
C652   N674    1.366   .     A
C652   C1075   1.415   1_545 S
C653   H665    1.081   .     S
C653   N673    1.366   .     A
C653   C864    1.416   .     S
C654   H666    1.082   .     S
C654   N674    1.366   .     A
C654   C1073   1.416   1_545 S
C655   N673    1.366   .     A
C655   H667    1.081   .     S
C655   C862    1.415   .     S
C656   H672    1.083   .     S
C656   C773    1.368   1_455 S
H661   O677    0.991   .     S
H662   O680    0.991   .     S
H663   O683    0.990   .     S
H664   O687    0.990   .     S
N673   Zn699   2.008   .     S
N674   Zn700   2.008   .     S
O675   Zn699   1.998   .     S
O676   S695    1.504   .     D
O677   S695    1.681   .     S
O678   S696    1.502   .     D
O679   S696    1.504   .     D
O680   S696    1.681   .     S
O681   S697    1.502   .     D
O682   S697    1.504   .     D
O683   S697    1.680   .     S
O684   S698    1.502   .     D
O685   S698    1.504   .     D
O686   Zn700   1.998   .     S
O687   S698    1.681   .     S
O688   Zn699   1.998   .     S
O689   Zn700   1.998   .     S
O690   Zn699   2.002   .     S
O691   Zn700   2.002   .     S
O692   Zn699   2.003   .     S
O693   Zn700   2.003   .     S
O694   S695    1.502   .     D
C701   O759    1.282   .     A
C701   C719    1.418   .     S
C701   O745    1.282   .     A
C702   H728    1.083   .     S
C702   C718    1.397   .     A
C702   C774    1.368   .     S
C703   H729    1.083   .     S
C703   C718    1.397   .     A
C703   C796    1.368   .     S
C704   H730    1.084   .     S
C704   C719    1.397   .     A
C705   C709    1.385   .     A
C705   C716    1.397   .     A
C705   H738    1.082   .     S
C706   C710    1.385   .     A
C706   C717    1.397   .     A
C706   H739    1.082   .     S
C707   H740    1.082   .     S
C707   C711    1.385   .     A
C707   C717    1.397   .     A
C708   C713    1.385   .     A
C708   C716    1.397   .     A
C708   H741    1.082   .     S
C709   S765    1.774   .     S
C709   C714    1.411   .     A
C710   C715    1.411   .     A
C710   S766    1.774   .     S
C711   C715    1.411   .     A
C711   S767    1.775   .     S
C712   O758    1.282   .     A
C712   O756    1.282   .     A
C712   C718    1.418   .     S
C713   C714    1.411   .     A
C713   S768    1.775   .     S
C714   C720    1.433   .     S
C715   C721    1.434   .     S
C717   C86     1.454   1_556 S
C719   C726    1.397   .     A
C720   O760    1.285   .     A
C720   O763    1.284   .     A
C721   O762    1.285   .     A
C721   O761    1.284   .     A
C722   H727    1.082   .     S
C722   N744    1.366   .     A
C722   C1145   1.415   1_545 S
C723   H735    1.081   .     S
C723   N743    1.366   .     A
C723   C934    1.416   .     S
C724   H736    1.082   .     S
C724   N744    1.366   .     A
C724   C1143   1.416   1_545 S
C725   N743    1.366   .     A
C725   H737    1.081   .     S
C725   C932    1.415   .     S
C726   H742    1.083   .     S
H731   O747    0.991   .     S
H732   O750    0.991   .     S
H733   O753    0.990   .     S
H734   O757    0.990   .     S
N743   Zn769   2.008   .     S
N744   Zn770   2.008   .     S
O745   Zn769   1.998   .     S
O746   S765    1.504   .     D
O747   S765    1.681   .     S
O748   S766    1.502   .     D
O749   S766    1.504   .     D
O750   S766    1.681   .     S
O751   S767    1.502   .     D
O752   S767    1.504   .     D
O753   S767    1.680   .     S
O754   S768    1.502   .     D
O755   S768    1.504   .     D
O756   Zn770   1.998   .     S
O757   S768    1.681   .     S
O758   Zn769   1.998   .     S
O759   Zn770   1.998   .     S
O760   Zn769   2.002   .     S
O761   Zn770   2.002   .     S
O762   Zn769   2.003   .     S
O763   Zn770   2.003   .     S
O764   S765    1.502   .     D
C771   O829    1.282   .     A
C771   C789    1.418   .     S
C771   O815    1.282   .     A
C772   H798    1.083   .     S
C772   C788    1.397   .     A
C772   C634    1.368   1_655 S
C773   H799    1.083   .     S
C773   C788    1.397   .     A
C773   C656    1.368   1_655 S
C774   H800    1.084   .     S
C774   C789    1.397   .     A
C775   C779    1.385   .     A
C775   C786    1.397   .     A
C775   H808    1.082   .     S
C776   C780    1.385   .     A
C776   C787    1.397   .     A
C776   H809    1.082   .     S
C777   H810    1.082   .     S
C777   C781    1.385   .     A
C777   C787    1.397   .     A
C778   C783    1.385   .     A
C778   C786    1.397   .     A
C778   H811    1.082   .     S
C779   S835    1.774   .     S
C779   C784    1.411   .     A
C780   C785    1.411   .     A
C780   S836    1.774   .     S
C781   C785    1.411   .     A
C781   S837    1.775   .     S
C782   O828    1.282   .     A
C782   O826    1.282   .     A
C782   C788    1.418   .     S
C783   C784    1.411   .     A
C783   S838    1.775   .     S
C784   C790    1.433   .     S
C785   C791    1.434   .     S
C787   C156    1.454   1_556 S
C789   C796    1.397   .     A
C790   O830    1.285   .     A
C790   O833    1.284   .     A
C791   O832    1.285   .     A
C791   O831    1.284   .     A
C792   H797    1.082   .     S
C792   N814    1.366   .     A
C792   C1215   1.415   1_545 S
C793   H805    1.081   .     S
C793   N813    1.366   .     A
C793   C1004   1.416   .     S
C794   H806    1.082   .     S
C794   N814    1.366   .     A
C794   C1213   1.416   1_545 S
C795   N813    1.366   .     A
C795   H807    1.081   .     S
C795   C1002   1.415   .     S
C796   H812    1.083   .     S
H801   O817    0.991   .     S
H802   O820    0.991   .     S
H803   O823    0.990   .     S
H804   O827    0.990   .     S
N813   Zn839   2.008   .     S
N814   Zn840   2.008   .     S
O815   Zn839   1.998   .     S
O816   S835    1.504   .     D
O817   S835    1.681   .     S
O818   S836    1.502   .     D
O819   S836    1.504   .     D
O820   S836    1.681   .     S
O821   S837    1.502   .     D
O822   S837    1.504   .     D
O823   S837    1.680   .     S
O824   S838    1.502   .     D
O825   S838    1.504   .     D
O826   Zn840   1.998   .     S
O827   S838    1.681   .     S
O828   Zn839   1.998   .     S
O829   Zn840   1.998   .     S
O830   Zn839   2.002   .     S
O831   Zn840   2.002   .     S
O832   Zn839   2.003   .     S
O833   Zn840   2.003   .     S
O834   S835    1.502   .     D
C841   O899    1.282   .     A
C841   C859    1.418   .     S
C841   O885    1.282   .     A
C842   H868    1.083   .     S
C842   C858    1.397   .     A
C842   C914    1.368   .     S
C843   H869    1.083   .     S
C843   C858    1.397   .     A
C843   C936    1.368   .     S
C844   H870    1.084   .     S
C844   C859    1.397   .     A
C844   C982    1.368   1_455 S
C845   C849    1.385   .     A
C845   C856    1.397   .     A
C845   H878    1.082   .     S
C846   C850    1.385   .     A
C846   C857    1.397   .     A
C846   H879    1.082   .     S
C847   H880    1.082   .     S
C847   C851    1.385   .     A
C847   C857    1.397   .     A
C848   C853    1.385   .     A
C848   C856    1.397   .     A
C848   H881    1.082   .     S
C849   S905    1.774   .     S
C849   C854    1.411   .     A
C850   C855    1.411   .     A
C850   S906    1.774   .     S
C851   C855    1.411   .     A
C851   S907    1.775   .     S
C852   O898    1.282   .     A
C852   O896    1.282   .     A
C852   C858    1.418   .     S
C853   C854    1.411   .     A
C853   S908    1.775   .     S
C854   C860    1.433   .     S
C855   C861    1.434   .     S
C857   C226    1.454   1_556 S
C859   C866    1.397   .     A
C860   O900    1.285   .     A
C860   O903    1.284   .     A
C861   O902    1.285   .     A
C861   O901    1.284   .     A
C862   H867    1.082   .     S
C862   N884    1.366   .     A
C863   H875    1.081   .     S
C863   N883    1.366   .     A
C863   C1074   1.416   .     S
C864   H876    1.082   .     S
C864   N884    1.366   .     A
C865   N883    1.366   .     A
C865   H877    1.081   .     S
C865   C1072   1.415   .     S
C866   H882    1.083   .     S
C866   C983    1.368   1_455 S
H871   O887    0.991   .     S
H872   O890    0.991   .     S
H873   O893    0.990   .     S
H874   O897    0.990   .     S
N883   Zn909   2.008   .     S
N884   Zn910   2.008   .     S
O885   Zn909   1.998   .     S
O886   S905    1.504   .     D
O887   S905    1.681   .     S
O888   S906    1.502   .     D
O889   S906    1.504   .     D
O890   S906    1.681   .     S
O891   S907    1.502   .     D
O892   S907    1.504   .     D
O893   S907    1.680   .     S
O894   S908    1.502   .     D
O895   S908    1.504   .     D
O896   Zn910   1.998   .     S
O897   S908    1.681   .     S
O898   Zn909   1.998   .     S
O899   Zn910   1.998   .     S
O900   Zn909   2.002   .     S
O901   Zn910   2.002   .     S
O902   Zn909   2.003   .     S
O903   Zn910   2.003   .     S
O904   S905    1.502   .     D
C911   O969    1.282   .     A
C911   C929    1.418   .     S
C911   O955    1.282   .     A
C912   H938    1.083   .     S
C912   C928    1.397   .     A
C912   C984    1.368   .     S
C913   H939    1.083   .     S
C913   C928    1.397   .     A
C913   C1006   1.368   .     S
C914   H940    1.084   .     S
C914   C929    1.397   .     A
C915   C919    1.385   .     A
C915   C926    1.397   .     A
C915   H948    1.082   .     S
C916   C920    1.385   .     A
C916   C927    1.397   .     A
C916   H949    1.082   .     S
C917   H950    1.082   .     S
C917   C921    1.385   .     A
C917   C927    1.397   .     A
C918   C923    1.385   .     A
C918   C926    1.397   .     A
C918   H951    1.082   .     S
C919   S975    1.774   .     S
C919   C924    1.411   .     A
C920   C925    1.411   .     A
C920   S976    1.774   .     S
C921   C925    1.411   .     A
C921   S977    1.775   .     S
C922   O968    1.282   .     A
C922   O966    1.282   .     A
C922   C928    1.418   .     S
C923   C924    1.411   .     A
C923   S978    1.775   .     S
C924   C930    1.433   .     S
C925   C931    1.434   .     S
C927   C296    1.454   1_556 S
C929   C936    1.397   .     A
C930   O970    1.285   .     A
C930   O973    1.284   .     A
C931   O972    1.285   .     A
C931   O971    1.284   .     A
C932   H937    1.082   .     S
C932   N954    1.366   .     A
C933   H945    1.081   .     S
C933   N953    1.366   .     A
C933   C1144   1.416   .     S
C934   H946    1.082   .     S
C934   N954    1.366   .     A
C935   N953    1.366   .     A
C935   H947    1.081   .     S
C935   C1142   1.415   .     S
C936   H952    1.083   .     S
H941   O957    0.991   .     S
H942   O960    0.991   .     S
H943   O963    0.990   .     S
H944   O967    0.990   .     S
N953   Zn979   2.008   .     S
N954   Zn980   2.008   .     S
O955   Zn979   1.998   .     S
O956   S975    1.504   .     D
O957   S975    1.681   .     S
O958   S976    1.502   .     D
O959   S976    1.504   .     D
O960   S976    1.681   .     S
O961   S977    1.502   .     D
O962   S977    1.504   .     D
O963   S977    1.680   .     S
O964   S978    1.502   .     D
O965   S978    1.504   .     D
O966   Zn980   1.998   .     S
O967   S978    1.681   .     S
O968   Zn979   1.998   .     S
O969   Zn980   1.998   .     S
O970   Zn979   2.002   .     S
O971   Zn980   2.002   .     S
O972   Zn979   2.003   .     S
O973   Zn980   2.003   .     S
O974   S975    1.502   .     D
C981   O1039   1.282   .     A
C981   C999    1.418   .     S
C981   O1025   1.282   .     A
C982   H1008   1.083   .     S
C982   C998    1.397   .     A
C982   C844    1.368   1_655 S
C983   H1009   1.083   .     S
C983   C998    1.397   .     A
C983   C866    1.368   1_655 S
C984   H1010   1.084   .     S
C984   C999    1.397   .     A
C985   C989    1.385   .     A
C985   C996    1.397   .     A
C985   H1018   1.082   .     S
C986   C990    1.385   .     A
C986   C997    1.397   .     A
C986   H1019   1.082   .     S
C987   H1020   1.082   .     S
C987   C991    1.385   .     A
C987   C997    1.397   .     A
C988   C993    1.385   .     A
C988   C996    1.397   .     A
C988   H1021   1.082   .     S
C989   S1045   1.774   .     S
C989   C994    1.411   .     A
C990   C995    1.411   .     A
C990   S1046   1.774   .     S
C991   C995    1.411   .     A
C991   S1047   1.775   .     S
C992   O1038   1.282   .     A
C992   O1036   1.282   .     A
C992   C998    1.418   .     S
C993   C994    1.411   .     A
C993   S1048   1.775   .     S
C994   C1000   1.433   .     S
C995   C1001   1.434   .     S
C997   C366    1.454   1_556 S
C999   C1006   1.397   .     A
C1000  O1040   1.285   .     A
C1000  O1043   1.284   .     A
C1001  O1042   1.285   .     A
C1001  O1041   1.284   .     A
C1002  H1007   1.082   .     S
C1002  N1024   1.366   .     A
C1003  H1015   1.081   .     S
C1003  N1023   1.366   .     A
C1003  C1214   1.416   .     S
C1004  H1016   1.082   .     S
C1004  N1024   1.366   .     A
C1005  N1023   1.366   .     A
C1005  H1017   1.081   .     S
C1005  C1212   1.415   .     S
C1006  H1022   1.083   .     S
H1011  O1027   0.991   .     S
H1012  O1030   0.991   .     S
H1013  O1033   0.990   .     S
H1014  O1037   0.990   .     S
N1023  Zn1049  2.008   .     S
N1024  Zn1050  2.008   .     S
O1025  Zn1049  1.998   .     S
O1026  S1045   1.504   .     D
O1027  S1045   1.681   .     S
O1028  S1046   1.502   .     D
O1029  S1046   1.504   .     D
O1030  S1046   1.681   .     S
O1031  S1047   1.502   .     D
O1032  S1047   1.504   .     D
O1033  S1047   1.680   .     S
O1034  S1048   1.502   .     D
O1035  S1048   1.504   .     D
O1036  Zn1050  1.998   .     S
O1037  S1048   1.681   .     S
O1038  Zn1049  1.998   .     S
O1039  Zn1050  1.998   .     S
O1040  Zn1049  2.002   .     S
O1041  Zn1050  2.002   .     S
O1042  Zn1049  2.003   .     S
O1043  Zn1050  2.003   .     S
O1044  S1045   1.502   .     D
C1051  O1109   1.282   .     A
C1051  C1069   1.418   .     S
C1051  O1095   1.282   .     A
C1052  H1078   1.083   .     S
C1052  C1068   1.397   .     A
C1052  C1124   1.368   .     S
C1053  H1079   1.083   .     S
C1053  C1068   1.397   .     A
C1053  C1146   1.368   .     S
C1054  H1080   1.084   .     S
C1054  C1069   1.397   .     A
C1054  C1192   1.368   1_455 S
C1055  C1059   1.385   .     A
C1055  C1066   1.397   .     A
C1055  H1088   1.082   .     S
C1056  C1060   1.385   .     A
C1056  C1067   1.397   .     A
C1056  H1089   1.082   .     S
C1057  H1090   1.082   .     S
C1057  C1061   1.385   .     A
C1057  C1067   1.397   .     A
C1058  C1063   1.385   .     A
C1058  C1066   1.397   .     A
C1058  H1091   1.082   .     S
C1059  S1115   1.774   .     S
C1059  C1064   1.411   .     A
C1060  C1065   1.411   .     A
C1060  S1116   1.774   .     S
C1061  C1065   1.411   .     A
C1061  S1117   1.775   .     S
C1062  O1108   1.282   .     A
C1062  O1106   1.282   .     A
C1062  C1068   1.418   .     S
C1063  C1064   1.411   .     A
C1063  S1118   1.775   .     S
C1064  C1070   1.433   .     S
C1065  C1071   1.434   .     S
C1067  C436    1.454   1_556 S
C1069  C1076   1.397   .     A
C1070  O1110   1.285   .     A
C1070  O1113   1.284   .     A
C1071  O1112   1.285   .     A
C1071  O1111   1.284   .     A
C1072  H1077   1.082   .     S
C1072  N1094   1.366   .     A
C1073  H1085   1.081   .     S
C1073  N1093   1.366   .     A
C1073  C654    1.416   1_565 S
C1074  H1086   1.082   .     S
C1074  N1094   1.366   .     A
C1075  N1093   1.366   .     A
C1075  H1087   1.081   .     S
C1075  C652    1.415   1_565 S
C1076  H1092   1.083   .     S
C1076  C1193   1.368   1_455 S
H1081  O1097   0.991   .     S
H1082  O1100   0.991   .     S
H1083  O1103   0.990   .     S
H1084  O1107   0.990   .     S
N1093  Zn1119  2.008   .     S
N1094  Zn1120  2.008   .     S
O1095  Zn1119  1.998   .     S
O1096  S1115   1.504   .     D
O1097  S1115   1.681   .     S
O1098  S1116   1.502   .     D
O1099  S1116   1.504   .     D
O1100  S1116   1.681   .     S
O1101  S1117   1.502   .     D
O1102  S1117   1.504   .     D
O1103  S1117   1.680   .     S
O1104  S1118   1.502   .     D
O1105  S1118   1.504   .     D
O1106  Zn1120  1.998   .     S
O1107  S1118   1.681   .     S
O1108  Zn1119  1.998   .     S
O1109  Zn1120  1.998   .     S
O1110  Zn1119  2.002   .     S
O1111  Zn1120  2.002   .     S
O1112  Zn1119  2.003   .     S
O1113  Zn1120  2.003   .     S
O1114  S1115   1.502   .     D
C1121  O1179   1.282   .     A
C1121  C1139   1.418   .     S
C1121  O1165   1.282   .     A
C1122  H1148   1.083   .     S
C1122  C1138   1.397   .     A
C1122  C1194   1.368   .     S
C1123  H1149   1.083   .     S
C1123  C1138   1.397   .     A
C1123  C1216   1.368   .     S
C1124  H1150   1.084   .     S
C1124  C1139   1.397   .     A
C1125  C1129   1.385   .     A
C1125  C1136   1.397   .     A
C1125  H1158   1.082   .     S
C1126  C1130   1.385   .     A
C1126  C1137   1.397   .     A
C1126  H1159   1.082   .     S
C1127  H1160   1.082   .     S
C1127  C1131   1.385   .     A
C1127  C1137   1.397   .     A
C1128  C1133   1.385   .     A
C1128  C1136   1.397   .     A
C1128  H1161   1.082   .     S
C1129  S1185   1.774   .     S
C1129  C1134   1.411   .     A
C1130  C1135   1.411   .     A
C1130  S1186   1.774   .     S
C1131  C1135   1.411   .     A
C1131  S1187   1.775   .     S
C1132  O1178   1.282   .     A
C1132  O1176   1.282   .     A
C1132  C1138   1.418   .     S
C1133  C1134   1.411   .     A
C1133  S1188   1.775   .     S
C1134  C1140   1.433   .     S
C1135  C1141   1.434   .     S
C1137  C506    1.454   1_556 S
C1139  C1146   1.397   .     A
C1140  O1180   1.285   .     A
C1140  O1183   1.284   .     A
C1141  O1182   1.285   .     A
C1141  O1181   1.284   .     A
C1142  H1147   1.082   .     S
C1142  N1164   1.366   .     A
C1143  H1155   1.081   .     S
C1143  N1163   1.366   .     A
C1143  C724    1.416   1_565 S
C1144  H1156   1.082   .     S
C1144  N1164   1.366   .     A
C1145  N1163   1.366   .     A
C1145  H1157   1.081   .     S
C1145  C722    1.415   1_565 S
C1146  H1162   1.083   .     S
H1151  O1167   0.991   .     S
H1152  O1170   0.991   .     S
H1153  O1173   0.990   .     S
H1154  O1177   0.990   .     S
N1163  Zn1189  2.008   .     S
N1164  Zn1190  2.008   .     S
O1165  Zn1189  1.998   .     S
O1166  S1185   1.504   .     D
O1167  S1185   1.681   .     S
O1168  S1186   1.502   .     D
O1169  S1186   1.504   .     D
O1170  S1186   1.681   .     S
O1171  S1187   1.502   .     D
O1172  S1187   1.504   .     D
O1173  S1187   1.680   .     S
O1174  S1188   1.502   .     D
O1175  S1188   1.504   .     D
O1176  Zn1190  1.998   .     S
O1177  S1188   1.681   .     S
O1178  Zn1189  1.998   .     S
O1179  Zn1190  1.998   .     S
O1180  Zn1189  2.002   .     S
O1181  Zn1190  2.002   .     S
O1182  Zn1189  2.003   .     S
O1183  Zn1190  2.003   .     S
O1184  S1185   1.502   .     D
C1191  O1249   1.282   .     A
C1191  C1209   1.418   .     S
C1191  O1235   1.282   .     A
C1192  H1218   1.083   .     S
C1192  C1208   1.397   .     A
C1192  C1054   1.368   1_655 S
C1193  H1219   1.083   .     S
C1193  C1208   1.397   .     A
C1193  C1076   1.368   1_655 S
C1194  H1220   1.084   .     S
C1194  C1209   1.397   .     A
C1195  C1199   1.385   .     A
C1195  C1206   1.397   .     A
C1195  H1228   1.082   .     S
C1196  C1200   1.385   .     A
C1196  C1207   1.397   .     A
C1196  H1229   1.082   .     S
C1197  H1230   1.082   .     S
C1197  C1201   1.385   .     A
C1197  C1207   1.397   .     A
C1198  C1203   1.385   .     A
C1198  C1206   1.397   .     A
C1198  H1231   1.082   .     S
C1199  S1255   1.774   .     S
C1199  C1204   1.411   .     A
C1200  C1205   1.411   .     A
C1200  S1256   1.774   .     S
C1201  C1205   1.411   .     A
C1201  S1257   1.775   .     S
C1202  O1248   1.282   .     A
C1202  O1246   1.282   .     A
C1202  C1208   1.418   .     S
C1203  C1204   1.411   .     A
C1203  S1258   1.775   .     S
C1204  C1210   1.433   .     S
C1205  C1211   1.434   .     S
C1207  C576    1.454   1_556 S
C1209  C1216   1.397   .     A
C1210  O1250   1.285   .     A
C1210  O1253   1.284   .     A
C1211  O1252   1.285   .     A
C1211  O1251   1.284   .     A
C1212  H1217   1.082   .     S
C1212  N1234   1.366   .     A
C1213  H1225   1.081   .     S
C1213  N1233   1.366   .     A
C1213  C794    1.416   1_565 S
C1214  H1226   1.082   .     S
C1214  N1234   1.366   .     A
C1215  N1233   1.366   .     A
C1215  H1227   1.081   .     S
C1215  C792    1.415   1_565 S
C1216  H1232   1.083   .     S
H1221  O1237   0.991   .     S
H1222  O1240   0.991   .     S
H1223  O1243   0.990   .     S
H1224  O1247   0.990   .     S
N1233  Zn1259  2.008   .     S
N1234  Zn1260  2.008   .     S
O1235  Zn1259  1.998   .     S
O1236  S1255   1.504   .     D
O1237  S1255   1.681   .     S
O1238  S1256   1.502   .     D
O1239  S1256   1.504   .     D
O1240  S1256   1.681   .     S
O1241  S1257   1.502   .     D
O1242  S1257   1.504   .     D
O1243  S1257   1.680   .     S
O1244  S1258   1.502   .     D
O1245  S1258   1.504   .     D
O1246  Zn1260  1.998   .     S
O1247  S1258   1.681   .     S
O1248  Zn1259  1.998   .     S
O1249  Zn1260  1.998   .     S
O1250  Zn1259  2.002   .     S
O1251  Zn1260  2.002   .     S
O1252  Zn1259  2.003   .     S
O1253  Zn1260  2.003   .     S
O1254  S1255   1.502   .     D
