data_str_m3_o1_o1_pcu_sym.68
_audit_creation_date              2020-01-03
_audit_creation_method            'Materials Studio'
_symmetry_space_group_name_H-M    'P1'
_symmetry_Int_Tables_number       1
_symmetry_cell_setting            triclinic
loop_
_symmetry_equiv_pos_as_xyz
  x,y,z
_cell_length_a                    32.3858
_cell_length_b                    29.8759
_cell_length_c                    30.2072
_cell_angle_alpha                 87.0585
_cell_angle_beta                  91.0523
_cell_angle_gamma                 90.2851
loop_
_atom_site_label
_atom_site_type_symbol
_atom_site_fract_x
_atom_site_fract_y
_atom_site_fract_z
_atom_site_U_iso_or_equiv
_atom_site_adp_type
_atom_site_occupancy
C1     C     0.06188   0.19226   0.16673   0.00000  Uiso   1.00
C2     C     0.00491   0.21110   0.31207   0.00000  Uiso   1.00
C3     C     0.49663   0.21095   0.02505   0.00000  Uiso   1.00
C4     C     0.49725   0.28948   0.30784   0.00000  Uiso   1.00
C5     C     0.25291   0.03977   0.02255   0.00000  Uiso   1.00
C6     C     0.24599   0.46062   0.31130   0.00000  Uiso   1.00
C7     C     0.24352   0.46078   0.02536   0.00000  Uiso   1.00
C8     C     0.25711   0.03956   0.30828   0.00000  Uiso   1.00
C9     C     0.37606   0.15721   0.13267   0.00000  Uiso   1.00
C10    C     0.10988   0.35829   0.21085   0.00000  Uiso   1.00
C11    C     0.12050   0.34864   0.13287   0.00000  Uiso   1.00
C12    C     0.43805   0.30744   0.16528   0.00000  Uiso   1.00
C13    C     0.39275   0.13542   0.20930   0.00000  Uiso   1.00
C14    C     0.12118   0.15173   0.20375   0.00000  Uiso   1.00
C15    C     0.38863   0.36002   0.12245   0.00000  Uiso   1.00
C16    C     0.37981   0.34278   0.20102   0.00000  Uiso   1.00
C17    C     0.10971   0.14297   0.12507   0.00000  Uiso   1.00
C18    C     0.13946   0.39021   0.12804   0.00000  Uiso   1.00
C19    C     0.37319   0.09395   0.20350   0.00000  Uiso   1.00
C20    C     0.35769   0.11560   0.12671   0.00000  Uiso   1.00
C21    C     0.13226   0.39855   0.20747   0.00000  Uiso   1.00
C22    C     0.35962   0.38329   0.20606   0.00000  Uiso   1.00
C23    C     0.43747   0.19290   0.16755   0.00000  Uiso   1.00
C24    C     0.13138   0.10270   0.12822   0.00000  Uiso   1.00
C25    C     0.14279   0.11110   0.20766   0.00000  Uiso   1.00
C26    C     0.36660   0.40023   0.12629   0.00000  Uiso   1.00
C27    C     0.09813   0.33802   0.17075   0.00000  Uiso   1.00
C28    C     0.39999   0.16384   0.17095   0.00000  Uiso   1.00
C29    C     0.40064   0.33564   0.16193   0.00000  Uiso   1.00
C30    C     0.09843   0.16259   0.16500   0.00000  Uiso   1.00
C31    C     0.34954   0.08762   0.16465   0.00000  Uiso   1.00
C32    C     0.15140   0.41170   0.16700   0.00000  Uiso   1.00
C33    C     0.15252   0.08944   0.16789   0.00000  Uiso   1.00
C34    C     0.06167   0.30809   0.16733   0.00000  Uiso   1.00
C35    C     0.34824   0.41023   0.16757   0.00000  Uiso   1.00
C36    C     0.03169   0.32789   0.03738   0.00000  Uiso   1.00
C37    C     0.00959   0.36213   0.06526   0.00000  Uiso   1.00
C38    C     0.00416   0.40871   0.04214   0.00000  Uiso   1.00
C39    C     0.02848   0.17117   0.29654   0.00000  Uiso   1.00
C40    C     0.00333   0.13559   0.27272   0.00000  Uiso   1.00
C41    C     0.03002   0.09650   0.26232   0.00000  Uiso   1.00
C42    C     0.47682   0.16892   0.04518   0.00000  Uiso   1.00
C43    C     0.00614   0.13390   0.06744   0.00000  Uiso   1.00
C44    C     0.49169   0.11431   0.11235   0.00000  Uiso   1.00
C45    C     0.31197   0.44163   0.16740   0.00000  Uiso   1.00
C46    C     0.47976   0.33320   0.28633   0.00000  Uiso   1.00
C47    C     0.00765   0.36144   0.25471   0.00000  Uiso   1.00
C48    C     0.49667   0.41112   0.24886   0.00000  Uiso   1.00
C49    C     0.25151   0.08430   0.04604   0.00000  Uiso   1.00
C50    C     0.21505   0.11496   0.03246   0.00000  Uiso   1.00
C51    C     0.22808   0.16342   0.02135   0.00000  Uiso   1.00
C52    C     0.25975   0.41661   0.29342   0.00000  Uiso   1.00
C53    C     0.22798   0.38381   0.27476   0.00000  Uiso   1.00
C54    C     0.23994   0.33482   0.28625   0.00000  Uiso   1.00
C55    C     0.22880   0.41643   0.04846   0.00000  Uiso   1.00
C56    C     0.18814   0.05806   0.16653   0.00000  Uiso   1.00
C57    C     0.26030   0.38881   0.07671   0.00000  Uiso   1.00
C58    C     0.25670   0.33869   0.06994   0.00000  Uiso   1.00
C59    C     0.27843   0.08130   0.28619   0.00000  Uiso   1.00
C60    C     0.25248   0.11291   0.25492   0.00000  Uiso   1.00
C61    C     0.27576   0.15435   0.23790   0.00000  Uiso   1.00
C62    C     0.18787   0.44226   0.16677   0.00000  Uiso   1.00
C63    C     0.31225   0.05780   0.16614   0.00000  Uiso   1.00
C64    C     0.00557   0.28907   0.02141   0.00000  Uiso   1.00
H65    H     0.03200   0.41925   0.02341   0.00000  Uiso   1.00
H66    H     0.01222   0.07151   0.24389   0.00000  Uiso   1.00
H67    H     0.47799   0.12176   0.29321   0.00000  Uiso   1.00
H68    H     0.49099   0.14915   0.24092   0.00000  Uiso   1.00
H69    H     0.05404   0.18353   0.27647   0.00000  Uiso   1.00
H70    H     0.04494   0.15429   0.32520   0.00000  Uiso   1.00
H71    H     0.00261   0.13477   0.13967   0.00000  Uiso   1.00
H72    H     0.45773   0.11257   0.11360   0.00000  Uiso   1.00
H73    H     0.00441   0.08007   0.11863   0.00000  Uiso   1.00
H74    H     0.00847   0.10572   0.04496   0.00000  Uiso   1.00
H75    H     0.03736   0.14781   0.07137   0.00000  Uiso   1.00
H76    H     0.47714   0.41066   0.01960   0.00000  Uiso   1.00
H77    H     0.45013   0.17721   0.06406   0.00000  Uiso   1.00
H78    H     0.46036   0.15210   0.01850   0.00000  Uiso   1.00
H79    H     0.46753   0.41567   0.22937   0.00000  Uiso   1.00
H80    H     0.49485   0.42705   0.28100   0.00000  Uiso   1.00
H81    H     0.02064   0.42886   0.22881   0.00000  Uiso   1.00
H82    H     0.04001   0.35849   0.26606   0.00000  Uiso   1.00
H83    H     0.00384   0.35034   0.22099   0.00000  Uiso   1.00
H84    H     0.44967   0.32687   0.27090   0.00000  Uiso   1.00
H85    H     0.47111   0.35445   0.31307   0.00000  Uiso   1.00
H86    H     0.23646   0.17996   0.05221   0.00000  Uiso   1.00
H87    H     0.49832   0.43338   0.06746   0.00000  Uiso   1.00
H88    H     0.25504   0.16528   0.33284   0.00000  Uiso   1.00
H89    H     0.20211   0.18201   0.00458   0.00000  Uiso   1.00
H90    H     0.19754   0.10197   0.00441   0.00000  Uiso   1.00
H91    H     0.19388   0.11581   0.06073   0.00000  Uiso   1.00
H92    H     0.24932   0.07805   0.08142   0.00000  Uiso   1.00
H93    H     0.28025   0.10374   0.04374   0.00000  Uiso   1.00
H94    H     0.27257   0.33090   0.29703   0.00000  Uiso   1.00
H95    H     0.21995   0.32022   0.31279   0.00000  Uiso   1.00
H96    H     0.23697   0.31475   0.25656   0.00000  Uiso   1.00
H97    H     0.19661   0.39033   0.28649   0.00000  Uiso   1.00
H98    H     0.47950   0.34934   0.07609   0.00000  Uiso   1.00
H99    H     0.22748   0.38757   0.23818   0.00000  Uiso   1.00
H100   H     0.28203   0.42308   0.26864   0.00000  Uiso   1.00
H101   H     0.27832   0.39932   0.32012   0.00000  Uiso   1.00
H102   H     0.22419   0.32817   0.06942   0.00000  Uiso   1.00
H103   H     0.26935   0.33061   0.03783   0.00000  Uiso   1.00
H104   H     0.27370   0.31932   0.09679   0.00000  Uiso   1.00
H105   H     0.29199   0.39977   0.06903   0.00000  Uiso   1.00
H106   H     0.25407   0.39270   0.11222   0.00000  Uiso   1.00
H107   H     0.20116   0.42032   0.06662   0.00000  Uiso   1.00
H108   H     0.21485   0.39454   0.02403   0.00000  Uiso   1.00
H109   H     0.02833   0.36736   0.09557   0.00000  Uiso   1.00
H110   H     0.27807   0.17911   0.26380   0.00000  Uiso   1.00
H111   H     0.30628   0.14457   0.22597   0.00000  Uiso   1.00
H112   H     0.25936   0.17045   0.20874   0.00000  Uiso   1.00
H113   H     0.24538   0.09723   0.22458   0.00000  Uiso   1.00
H114   H     0.22382   0.12322   0.27063   0.00000  Uiso   1.00
H115   H     0.29270   0.10282   0.31059   0.00000  Uiso   1.00
H116   H     0.30681   0.07111   0.27102   0.00000  Uiso   1.00
H117   H     0.29483   0.22314   0.07791   0.00000  Uiso   1.00
H118   H     0.17364   0.30685   0.22417   0.00000  Uiso   1.00
H119   H     0.20117   0.26754   0.12987   0.00000  Uiso   1.00
H120   H     0.05920   0.31377   0.05508   0.00000  Uiso   1.00
H121   H     0.34943   0.19604   0.30080   0.00000  Uiso   1.00
H122   H     0.20085   0.21779   0.25643   0.00000  Uiso   1.00
H123   H     0.34179   0.31021   0.02802   0.00000  Uiso   1.00
H124   H     0.30570   0.26623   0.25295   0.00000  Uiso   1.00
H125   H     0.17941   0.18620   0.10809   0.00000  Uiso   1.00
H126   H     0.06391   0.46478   0.07732   0.00000  Uiso   1.00
H127   H     0.37247   0.49848   0.18683   0.00000  Uiso   1.00
H128   H     0.42589   0.04620   0.06594   0.00000  Uiso   1.00
H129   H     0.12263   0.00088   0.20271   0.00000  Uiso   1.00
H130   H     0.41554   0.42525   0.29929   0.00000  Uiso   1.00
H131   H     0.04614   0.34594   0.00862   0.00000  Uiso   1.00
H132   H     0.13023   0.00247   0.13160   0.00000  Uiso   1.00
H133   H     0.10134   0.03045   0.29211   0.00000  Uiso   1.00
H134   H     0.33245   0.49554   0.07370   0.00000  Uiso   1.00
H135   H     0.05538   0.10876   0.24086   0.00000  Uiso   1.00
H136   H     0.04183   0.08026   0.29390   0.00000  Uiso   1.00
N137   N     0.00000   0.25000   0.28573   0.00000  Uiso   1.00
N138   N     0.00000   0.25000   0.04760   0.00000  Uiso   1.00
N139   N     0.25000   0.00000   0.28573   0.00000  Uiso   1.00
N140   N     0.25000   0.00000   0.04760   0.00000  Uiso   1.00
O141   O     0.04581   0.20419   0.20487   0.00000  Uiso   1.00
O142   O     0.20420   0.04581   0.12846   0.00000  Uiso   1.00
O143   O     0.20420   0.04581   0.20487   0.00000  Uiso   1.00
O144   O     0.29581   0.45419   0.12846   0.00000  Uiso   1.00
O145   O     0.20420   0.45419   0.12846   0.00000  Uiso   1.00
O146   O     0.29581   0.04581   0.20487   0.00000  Uiso   1.00
O147   O     0.29581   0.04581   0.12846   0.00000  Uiso   1.00
O148   O     0.20420   0.45419   0.20487   0.00000  Uiso   1.00
O149   O     0.35966   0.24518   0.12628   0.00000  Uiso   1.00
O150   O     0.37770   0.21004   0.05754   0.00000  Uiso   1.00
O151   O     0.30563   0.19396   0.09003   0.00000  Uiso   1.00
O152   O     0.45420   0.29581   0.12846   0.00000  Uiso   1.00
O153   O     0.12736   0.35376   0.29978   0.00000  Uiso   1.00
O154   O     0.08772   0.29113   0.27362   0.00000  Uiso   1.00
O155   O     0.16431   0.29733   0.25425   0.00000  Uiso   1.00
O156   O     0.12135   0.26221   0.11960   0.00000  Uiso   1.00
O157   O     0.15023   0.31161   0.06071   0.00000  Uiso   1.00
O158   O     0.19209   0.29832   0.13538   0.00000  Uiso   1.00
O159   O     0.38442   0.11724   0.29714   0.00000  Uiso   1.00
O160   O     0.42787   0.18151   0.27827   0.00000  Uiso   1.00
O161   O     0.35098   0.19078   0.26875   0.00000  Uiso   1.00
O162   O     0.12864   0.23974   0.20630   0.00000  Uiso   1.00
O163   O     0.45420   0.29581   0.20487   0.00000  Uiso   1.00
O164   O     0.12476   0.19974   0.27857   0.00000  Uiso   1.00
O165   O     0.19229   0.19530   0.23508   0.00000  Uiso   1.00
O166   O     0.41551   0.36716   0.03724   0.00000  Uiso   1.00
O167   O     0.40759   0.29095   0.06657   0.00000  Uiso   1.00
O168   O     0.34269   0.33605   0.04731   0.00000  Uiso   1.00
O169   O     0.37857   0.25345   0.21379   0.00000  Uiso   1.00
O170   O     0.38172   0.29595   0.28081   0.00000  Uiso   1.00
O171   O     0.31275   0.29427   0.23579   0.00000  Uiso   1.00
O172   O     0.12420   0.14674   0.03717   0.00000  Uiso   1.00
O173   O     0.08840   0.21091   0.06176   0.00000  Uiso   1.00
O174   O     0.04581   0.20419   0.12846   0.00000  Uiso   1.00
O175   O     0.16584   0.20205   0.08219   0.00000  Uiso   1.00
O176   O     0.14280   0.46124   0.06660   0.00000  Uiso   1.00
O177   O     0.10953   0.39262   0.04445   0.00000  Uiso   1.00
O178   O     0.07176   0.44065   0.09956   0.00000  Uiso   1.00
O179   O     0.43719   0.05829   0.24980   0.00000  Uiso   1.00
O180   O     0.36935   0.03217   0.27178   0.00000  Uiso   1.00
O181   O     0.40030   0.00365   0.19931   0.00000  Uiso   1.00
O182   O     0.34191   0.06941   0.05260   0.00000  Uiso   1.00
O183   O     0.39502   0.12555   0.04854   0.00000  Uiso   1.00
O184   O     0.41160   0.05240   0.09368   0.00000  Uiso   1.00
O185   O     0.45420   0.20419   0.12846   0.00000  Uiso   1.00
O186   O     0.08560   0.42577   0.27544   0.00000  Uiso   1.00
O187   O     0.15420   0.45837   0.26938   0.00000  Uiso   1.00
O188   O     0.09846   0.48167   0.20968   0.00000  Uiso   1.00
O189   O     0.34948   0.45035   0.26403   0.00000  Uiso   1.00
O190   O     0.33974   0.37264   0.29171   0.00000  Uiso   1.00
O191   O     0.41251   0.40102   0.27826   0.00000  Uiso   1.00
O192   O     0.07889   0.07487   0.06402   0.00000  Uiso   1.00
O193   O     0.15004   0.04979   0.06082   0.00000  Uiso   1.00
O194   O     0.10349   0.01651   0.12348   0.00000  Uiso   1.00
O195   O     0.17709   0.05728   0.27708   0.00000  Uiso   1.00
O196   O     0.04581   0.29581   0.20487   0.00000  Uiso   1.00
O197   O     0.12895   0.11454   0.29501   0.00000  Uiso   1.00
O198   O     0.10094   0.04449   0.26164   0.00000  Uiso   1.00
O199   O     0.42074   0.44879   0.07831   0.00000  Uiso   1.00
O200   O     0.35674   0.42958   0.03987   0.00000  Uiso   1.00
O201   O     0.35559   0.49161   0.09535   0.00000  Uiso   1.00
O202   O     0.04581   0.29581   0.12846   0.00000  Uiso   1.00
O203   O     0.45420   0.20419   0.20487   0.00000  Uiso   1.00
O204   O     0.29581   0.45419   0.20487   0.00000  Uiso   1.00
S205   S     0.35583   0.20353   0.10077   0.00000  Uiso   1.00
S206   S     0.39499   0.04644   0.23274   0.00000  Uiso   1.00
S207   S     0.37550   0.09075   0.07859   0.00000  Uiso   1.00
S208   S     0.11822   0.44082   0.24332   0.00000  Uiso   1.00
S209   S     0.36345   0.40311   0.26060   0.00000  Uiso   1.00
S210   S     0.11618   0.06125   0.09146   0.00000  Uiso   1.00
S211   S     0.13929   0.08195   0.26121   0.00000  Uiso   1.00
S212   S     0.37505   0.44253   0.08352   0.00000  Uiso   1.00
S213   S     0.12034   0.32500   0.26114   0.00000  Uiso   1.00
S214   S     0.14565   0.30397   0.10991   0.00000  Uiso   1.00
S215   S     0.39067   0.15586   0.26432   0.00000  Uiso   1.00
S216   S     0.14070   0.19779   0.23241   0.00000  Uiso   1.00
S217   S     0.39081   0.33740   0.06808   0.00000  Uiso   1.00
S218   S     0.36451   0.29514   0.23436   0.00000  Uiso   1.00
S219   S     0.12013   0.17620   0.07521   0.00000  Uiso   1.00
S220   S     0.11725   0.42196   0.08256   0.00000  Uiso   1.00
Zn221  Zn    0.00000   0.25000   0.21771   0.00000  Uiso   1.00
Zn222  Zn    0.00000   0.25000   0.11563   0.00000  Uiso   1.00
Zn223  Zn    0.25000   0.00000   0.21771   0.00000  Uiso   1.00
Zn224  Zn    0.25000   0.00000   0.11563   0.00000  Uiso   1.00
C225   C     0.56188   0.19226   0.16673   0.00000  Uiso   1.00
C226   C     0.50491   0.21110   0.31207   0.00000  Uiso   1.00
C227   C     0.99663   0.21095   0.02505   0.00000  Uiso   1.00
C228   C     0.99725   0.28948   0.30784   0.00000  Uiso   1.00
C229   C     0.75291   0.03977   0.02255   0.00000  Uiso   1.00
C230   C     0.74599   0.46062   0.31130   0.00000  Uiso   1.00
C231   C     0.74352   0.46078   0.02536   0.00000  Uiso   1.00
C232   C     0.75711   0.03956   0.30828   0.00000  Uiso   1.00
C233   C     0.87606   0.15721   0.13267   0.00000  Uiso   1.00
C234   C     0.60988   0.35829   0.21085   0.00000  Uiso   1.00
C235   C     0.62050   0.34864   0.13287   0.00000  Uiso   1.00
C236   C     0.93805   0.30744   0.16528   0.00000  Uiso   1.00
C237   C     0.89275   0.13542   0.20930   0.00000  Uiso   1.00
C238   C     0.62118   0.15173   0.20375   0.00000  Uiso   1.00
C239   C     0.88863   0.36002   0.12245   0.00000  Uiso   1.00
C240   C     0.87981   0.34278   0.20102   0.00000  Uiso   1.00
C241   C     0.60971   0.14297   0.12507   0.00000  Uiso   1.00
C242   C     0.63946   0.39021   0.12804   0.00000  Uiso   1.00
C243   C     0.87319   0.09395   0.20350   0.00000  Uiso   1.00
C244   C     0.85769   0.11560   0.12671   0.00000  Uiso   1.00
C245   C     0.63226   0.39855   0.20747   0.00000  Uiso   1.00
C246   C     0.85962   0.38329   0.20606   0.00000  Uiso   1.00
C247   C     0.93747   0.19290   0.16755   0.00000  Uiso   1.00
C248   C     0.63138   0.10270   0.12822   0.00000  Uiso   1.00
C249   C     0.64279   0.11110   0.20766   0.00000  Uiso   1.00
C250   C     0.86660   0.40023   0.12629   0.00000  Uiso   1.00
C251   C     0.59813   0.33802   0.17075   0.00000  Uiso   1.00
C252   C     0.89999   0.16384   0.17095   0.00000  Uiso   1.00
C253   C     0.90064   0.33564   0.16193   0.00000  Uiso   1.00
C254   C     0.59843   0.16259   0.16500   0.00000  Uiso   1.00
C255   C     0.84954   0.08762   0.16465   0.00000  Uiso   1.00
C256   C     0.65140   0.41170   0.16700   0.00000  Uiso   1.00
C257   C     0.65252   0.08944   0.16789   0.00000  Uiso   1.00
C258   C     0.56167   0.30809   0.16733   0.00000  Uiso   1.00
C259   C     0.84824   0.41023   0.16757   0.00000  Uiso   1.00
C260   C     0.53169   0.32789   0.03738   0.00000  Uiso   1.00
C261   C     0.50959   0.36213   0.06526   0.00000  Uiso   1.00
C262   C     0.50416   0.40871   0.04214   0.00000  Uiso   1.00
C263   C     0.52848   0.17117   0.29654   0.00000  Uiso   1.00
C264   C     0.50333   0.13559   0.27272   0.00000  Uiso   1.00
C265   C     0.53002   0.09650   0.26232   0.00000  Uiso   1.00
C266   C     0.97682   0.16892   0.04518   0.00000  Uiso   1.00
C267   C     0.50614   0.13390   0.06744   0.00000  Uiso   1.00
C268   C     0.99169   0.11431   0.11235   0.00000  Uiso   1.00
C269   C     0.81197   0.44163   0.16740   0.00000  Uiso   1.00
C270   C     0.97976   0.33320   0.28633   0.00000  Uiso   1.00
C271   C     0.50765   0.36144   0.25471   0.00000  Uiso   1.00
C272   C     0.99667   0.41112   0.24886   0.00000  Uiso   1.00
C273   C     0.75151   0.08430   0.04604   0.00000  Uiso   1.00
C274   C     0.71505   0.11496   0.03246   0.00000  Uiso   1.00
C275   C     0.72808   0.16342   0.02135   0.00000  Uiso   1.00
C276   C     0.75975   0.41661   0.29342   0.00000  Uiso   1.00
C277   C     0.72798   0.38381   0.27476   0.00000  Uiso   1.00
C278   C     0.73994   0.33482   0.28625   0.00000  Uiso   1.00
C279   C     0.72880   0.41643   0.04846   0.00000  Uiso   1.00
C280   C     0.68814   0.05806   0.16653   0.00000  Uiso   1.00
C281   C     0.76030   0.38881   0.07671   0.00000  Uiso   1.00
C282   C     0.75670   0.33869   0.06994   0.00000  Uiso   1.00
C283   C     0.77843   0.08130   0.28619   0.00000  Uiso   1.00
C284   C     0.75248   0.11291   0.25492   0.00000  Uiso   1.00
C285   C     0.77576   0.15435   0.23790   0.00000  Uiso   1.00
C286   C     0.68787   0.44226   0.16677   0.00000  Uiso   1.00
C287   C     0.81225   0.05780   0.16614   0.00000  Uiso   1.00
C288   C     0.50557   0.28907   0.02141   0.00000  Uiso   1.00
H289   H     0.53200   0.41925   0.02341   0.00000  Uiso   1.00
H290   H     0.51222   0.07151   0.24389   0.00000  Uiso   1.00
H291   H     0.97799   0.12176   0.29321   0.00000  Uiso   1.00
H292   H     0.99099   0.14915   0.24092   0.00000  Uiso   1.00
H293   H     0.55404   0.18353   0.27647   0.00000  Uiso   1.00
H294   H     0.54494   0.15429   0.32520   0.00000  Uiso   1.00
H295   H     0.50261   0.13477   0.13967   0.00000  Uiso   1.00
H296   H     0.95773   0.11257   0.11360   0.00000  Uiso   1.00
H297   H     0.50441   0.08007   0.11863   0.00000  Uiso   1.00
H298   H     0.50847   0.10572   0.04496   0.00000  Uiso   1.00
H299   H     0.53736   0.14781   0.07137   0.00000  Uiso   1.00
H300   H     0.97714   0.41066   0.01960   0.00000  Uiso   1.00
H301   H     0.95013   0.17721   0.06406   0.00000  Uiso   1.00
H302   H     0.96036   0.15210   0.01850   0.00000  Uiso   1.00
H303   H     0.96753   0.41567   0.22937   0.00000  Uiso   1.00
H304   H     0.99485   0.42705   0.28100   0.00000  Uiso   1.00
H305   H     0.52064   0.42886   0.22881   0.00000  Uiso   1.00
H306   H     0.54001   0.35849   0.26606   0.00000  Uiso   1.00
H307   H     0.50384   0.35034   0.22099   0.00000  Uiso   1.00
H308   H     0.94967   0.32687   0.27090   0.00000  Uiso   1.00
H309   H     0.97111   0.35445   0.31307   0.00000  Uiso   1.00
H310   H     0.73646   0.17996   0.05221   0.00000  Uiso   1.00
H311   H     0.99832   0.43338   0.06746   0.00000  Uiso   1.00
H312   H     0.75504   0.16528   0.33284   0.00000  Uiso   1.00
H313   H     0.70211   0.18201   0.00458   0.00000  Uiso   1.00
H314   H     0.69754   0.10197   0.00441   0.00000  Uiso   1.00
H315   H     0.69388   0.11581   0.06073   0.00000  Uiso   1.00
H316   H     0.74932   0.07805   0.08142   0.00000  Uiso   1.00
H317   H     0.78025   0.10374   0.04374   0.00000  Uiso   1.00
H318   H     0.77257   0.33090   0.29703   0.00000  Uiso   1.00
H319   H     0.71995   0.32022   0.31279   0.00000  Uiso   1.00
H320   H     0.73697   0.31475   0.25656   0.00000  Uiso   1.00
H321   H     0.69661   0.39033   0.28649   0.00000  Uiso   1.00
H322   H     0.97950   0.34934   0.07609   0.00000  Uiso   1.00
H323   H     0.72748   0.38757   0.23818   0.00000  Uiso   1.00
H324   H     0.78203   0.42308   0.26864   0.00000  Uiso   1.00
H325   H     0.77832   0.39932   0.32012   0.00000  Uiso   1.00
H326   H     0.72419   0.32817   0.06942   0.00000  Uiso   1.00
H327   H     0.76935   0.33061   0.03783   0.00000  Uiso   1.00
H328   H     0.77370   0.31932   0.09679   0.00000  Uiso   1.00
H329   H     0.79199   0.39977   0.06903   0.00000  Uiso   1.00
H330   H     0.75407   0.39270   0.11222   0.00000  Uiso   1.00
H331   H     0.70116   0.42032   0.06662   0.00000  Uiso   1.00
H332   H     0.71485   0.39454   0.02403   0.00000  Uiso   1.00
H333   H     0.52833   0.36736   0.09557   0.00000  Uiso   1.00
H334   H     0.77807   0.17911   0.26380   0.00000  Uiso   1.00
H335   H     0.80628   0.14457   0.22597   0.00000  Uiso   1.00
H336   H     0.75936   0.17045   0.20874   0.00000  Uiso   1.00
H337   H     0.74538   0.09723   0.22458   0.00000  Uiso   1.00
H338   H     0.72382   0.12322   0.27063   0.00000  Uiso   1.00
H339   H     0.79270   0.10282   0.31059   0.00000  Uiso   1.00
H340   H     0.80681   0.07111   0.27102   0.00000  Uiso   1.00
H341   H     0.79483   0.22314   0.07791   0.00000  Uiso   1.00
H342   H     0.67364   0.30685   0.22417   0.00000  Uiso   1.00
H343   H     0.70117   0.26754   0.12987   0.00000  Uiso   1.00
H344   H     0.55920   0.31377   0.05508   0.00000  Uiso   1.00
H345   H     0.84943   0.19604   0.30080   0.00000  Uiso   1.00
H346   H     0.70085   0.21779   0.25643   0.00000  Uiso   1.00
H347   H     0.84179   0.31021   0.02802   0.00000  Uiso   1.00
H348   H     0.80570   0.26623   0.25295   0.00000  Uiso   1.00
H349   H     0.67941   0.18620   0.10809   0.00000  Uiso   1.00
H350   H     0.56391   0.46478   0.07732   0.00000  Uiso   1.00
H351   H     0.87247   0.49848   0.18683   0.00000  Uiso   1.00
H352   H     0.92589   0.04620   0.06594   0.00000  Uiso   1.00
H353   H     0.62263   0.00088   0.20271   0.00000  Uiso   1.00
H354   H     0.91554   0.42525   0.29929   0.00000  Uiso   1.00
H355   H     0.54614   0.34594   0.00862   0.00000  Uiso   1.00
H356   H     0.63023   0.00247   0.13160   0.00000  Uiso   1.00
H357   H     0.60134   0.03045   0.29211   0.00000  Uiso   1.00
H358   H     0.83245   0.49554   0.07370   0.00000  Uiso   1.00
H359   H     0.55538   0.10876   0.24086   0.00000  Uiso   1.00
H360   H     0.54183   0.08026   0.29390   0.00000  Uiso   1.00
N361   N     0.50000   0.25000   0.28573   0.00000  Uiso   1.00
N362   N     0.50000   0.25000   0.04760   0.00000  Uiso   1.00
N363   N     0.75000   0.00000   0.28573   0.00000  Uiso   1.00
N364   N     0.75000   0.00000   0.04760   0.00000  Uiso   1.00
O365   O     0.54581   0.20419   0.20487   0.00000  Uiso   1.00
O366   O     0.70420   0.04581   0.12846   0.00000  Uiso   1.00
O367   O     0.70420   0.04581   0.20487   0.00000  Uiso   1.00
O368   O     0.79581   0.45419   0.12846   0.00000  Uiso   1.00
O369   O     0.70420   0.45419   0.12846   0.00000  Uiso   1.00
O370   O     0.79581   0.04581   0.20487   0.00000  Uiso   1.00
O371   O     0.79581   0.04581   0.12846   0.00000  Uiso   1.00
O372   O     0.70420   0.45419   0.20487   0.00000  Uiso   1.00
O373   O     0.85966   0.24518   0.12628   0.00000  Uiso   1.00
O374   O     0.87770   0.21004   0.05754   0.00000  Uiso   1.00
O375   O     0.80563   0.19396   0.09003   0.00000  Uiso   1.00
O376   O     0.95420   0.29581   0.12846   0.00000  Uiso   1.00
O377   O     0.62736   0.35376   0.29978   0.00000  Uiso   1.00
O378   O     0.58772   0.29113   0.27362   0.00000  Uiso   1.00
O379   O     0.66431   0.29733   0.25425   0.00000  Uiso   1.00
O380   O     0.62135   0.26221   0.11960   0.00000  Uiso   1.00
O381   O     0.65023   0.31161   0.06071   0.00000  Uiso   1.00
O382   O     0.69209   0.29832   0.13538   0.00000  Uiso   1.00
O383   O     0.88442   0.11724   0.29714   0.00000  Uiso   1.00
O384   O     0.92787   0.18151   0.27827   0.00000  Uiso   1.00
O385   O     0.85098   0.19078   0.26875   0.00000  Uiso   1.00
O386   O     0.62864   0.23974   0.20630   0.00000  Uiso   1.00
O387   O     0.95420   0.29581   0.20487   0.00000  Uiso   1.00
O388   O     0.62476   0.19974   0.27857   0.00000  Uiso   1.00
O389   O     0.69229   0.19530   0.23508   0.00000  Uiso   1.00
O390   O     0.91551   0.36716   0.03724   0.00000  Uiso   1.00
O391   O     0.90759   0.29095   0.06657   0.00000  Uiso   1.00
O392   O     0.84269   0.33605   0.04731   0.00000  Uiso   1.00
O393   O     0.87857   0.25345   0.21379   0.00000  Uiso   1.00
O394   O     0.88172   0.29595   0.28081   0.00000  Uiso   1.00
O395   O     0.81275   0.29427   0.23579   0.00000  Uiso   1.00
O396   O     0.62420   0.14674   0.03717   0.00000  Uiso   1.00
O397   O     0.58840   0.21091   0.06176   0.00000  Uiso   1.00
O398   O     0.54581   0.20419   0.12846   0.00000  Uiso   1.00
O399   O     0.66584   0.20205   0.08219   0.00000  Uiso   1.00
O400   O     0.64280   0.46124   0.06660   0.00000  Uiso   1.00
O401   O     0.60953   0.39262   0.04445   0.00000  Uiso   1.00
O402   O     0.57176   0.44065   0.09956   0.00000  Uiso   1.00
O403   O     0.93719   0.05829   0.24980   0.00000  Uiso   1.00
O404   O     0.86935   0.03217   0.27178   0.00000  Uiso   1.00
O405   O     0.90030   0.00365   0.19931   0.00000  Uiso   1.00
O406   O     0.84191   0.06941   0.05260   0.00000  Uiso   1.00
O407   O     0.89502   0.12555   0.04854   0.00000  Uiso   1.00
O408   O     0.91160   0.05240   0.09368   0.00000  Uiso   1.00
O409   O     0.95420   0.20419   0.12846   0.00000  Uiso   1.00
O410   O     0.58560   0.42577   0.27544   0.00000  Uiso   1.00
O411   O     0.65420   0.45837   0.26938   0.00000  Uiso   1.00
O412   O     0.59846   0.48167   0.20968   0.00000  Uiso   1.00
O413   O     0.84948   0.45035   0.26403   0.00000  Uiso   1.00
O414   O     0.83974   0.37264   0.29171   0.00000  Uiso   1.00
O415   O     0.91251   0.40102   0.27826   0.00000  Uiso   1.00
O416   O     0.57889   0.07487   0.06402   0.00000  Uiso   1.00
O417   O     0.65004   0.04979   0.06082   0.00000  Uiso   1.00
O418   O     0.60349   0.01651   0.12348   0.00000  Uiso   1.00
O419   O     0.67709   0.05728   0.27708   0.00000  Uiso   1.00
O420   O     0.54581   0.29581   0.20487   0.00000  Uiso   1.00
O421   O     0.62895   0.11454   0.29501   0.00000  Uiso   1.00
O422   O     0.60094   0.04449   0.26164   0.00000  Uiso   1.00
O423   O     0.92074   0.44879   0.07831   0.00000  Uiso   1.00
O424   O     0.85674   0.42958   0.03987   0.00000  Uiso   1.00
O425   O     0.85559   0.49161   0.09535   0.00000  Uiso   1.00
O426   O     0.54581   0.29581   0.12846   0.00000  Uiso   1.00
O427   O     0.95420   0.20419   0.20487   0.00000  Uiso   1.00
O428   O     0.79581   0.45419   0.20487   0.00000  Uiso   1.00
S429   S     0.85583   0.20353   0.10077   0.00000  Uiso   1.00
S430   S     0.89499   0.04644   0.23274   0.00000  Uiso   1.00
S431   S     0.87550   0.09075   0.07859   0.00000  Uiso   1.00
S432   S     0.61822   0.44082   0.24332   0.00000  Uiso   1.00
S433   S     0.86345   0.40311   0.26060   0.00000  Uiso   1.00
S434   S     0.61618   0.06125   0.09146   0.00000  Uiso   1.00
S435   S     0.63929   0.08195   0.26121   0.00000  Uiso   1.00
S436   S     0.87505   0.44253   0.08352   0.00000  Uiso   1.00
S437   S     0.62034   0.32500   0.26114   0.00000  Uiso   1.00
S438   S     0.64565   0.30397   0.10991   0.00000  Uiso   1.00
S439   S     0.89067   0.15586   0.26432   0.00000  Uiso   1.00
S440   S     0.64070   0.19779   0.23241   0.00000  Uiso   1.00
S441   S     0.89081   0.33740   0.06808   0.00000  Uiso   1.00
S442   S     0.86451   0.29514   0.23436   0.00000  Uiso   1.00
S443   S     0.62013   0.17620   0.07521   0.00000  Uiso   1.00
S444   S     0.61725   0.42196   0.08256   0.00000  Uiso   1.00
Zn445  Zn    0.50000   0.25000   0.21771   0.00000  Uiso   1.00
Zn446  Zn    0.50000   0.25000   0.11563   0.00000  Uiso   1.00
Zn447  Zn    0.75000   0.00000   0.21771   0.00000  Uiso   1.00
Zn448  Zn    0.75000   0.00000   0.11563   0.00000  Uiso   1.00
C449   C     0.06188   0.69226   0.16673   0.00000  Uiso   1.00
C450   C     0.00491   0.71110   0.31207   0.00000  Uiso   1.00
C451   C     0.49663   0.71095   0.02505   0.00000  Uiso   1.00
C452   C     0.49725   0.78948   0.30784   0.00000  Uiso   1.00
C453   C     0.25291   0.53977   0.02255   0.00000  Uiso   1.00
C454   C     0.24599   0.96062   0.31130   0.00000  Uiso   1.00
C455   C     0.24352   0.96078   0.02536   0.00000  Uiso   1.00
C456   C     0.25711   0.53956   0.30828   0.00000  Uiso   1.00
C457   C     0.37606   0.65721   0.13267   0.00000  Uiso   1.00
C458   C     0.10988   0.85829   0.21085   0.00000  Uiso   1.00
C459   C     0.12050   0.84864   0.13287   0.00000  Uiso   1.00
C460   C     0.43805   0.80744   0.16528   0.00000  Uiso   1.00
C461   C     0.39275   0.63542   0.20930   0.00000  Uiso   1.00
C462   C     0.12118   0.65173   0.20375   0.00000  Uiso   1.00
C463   C     0.38863   0.86002   0.12245   0.00000  Uiso   1.00
C464   C     0.37981   0.84278   0.20102   0.00000  Uiso   1.00
C465   C     0.10971   0.64297   0.12507   0.00000  Uiso   1.00
C466   C     0.13946   0.89021   0.12804   0.00000  Uiso   1.00
C467   C     0.37319   0.59395   0.20350   0.00000  Uiso   1.00
C468   C     0.35769   0.61560   0.12671   0.00000  Uiso   1.00
C469   C     0.13226   0.89855   0.20747   0.00000  Uiso   1.00
C470   C     0.35962   0.88329   0.20606   0.00000  Uiso   1.00
C471   C     0.43747   0.69290   0.16755   0.00000  Uiso   1.00
C472   C     0.13138   0.60270   0.12822   0.00000  Uiso   1.00
C473   C     0.14279   0.61110   0.20766   0.00000  Uiso   1.00
C474   C     0.36660   0.90023   0.12629   0.00000  Uiso   1.00
C475   C     0.09813   0.83802   0.17075   0.00000  Uiso   1.00
C476   C     0.39999   0.66384   0.17095   0.00000  Uiso   1.00
C477   C     0.40064   0.83564   0.16193   0.00000  Uiso   1.00
C478   C     0.09843   0.66259   0.16500   0.00000  Uiso   1.00
C479   C     0.34954   0.58762   0.16465   0.00000  Uiso   1.00
C480   C     0.15140   0.91170   0.16700   0.00000  Uiso   1.00
C481   C     0.15252   0.58944   0.16789   0.00000  Uiso   1.00
C482   C     0.06167   0.80809   0.16733   0.00000  Uiso   1.00
C483   C     0.34824   0.91023   0.16757   0.00000  Uiso   1.00
C484   C     0.03169   0.82789   0.03738   0.00000  Uiso   1.00
C485   C     0.00959   0.86213   0.06526   0.00000  Uiso   1.00
C486   C     0.00416   0.90871   0.04214   0.00000  Uiso   1.00
C487   C     0.02848   0.67117   0.29654   0.00000  Uiso   1.00
C488   C     0.00333   0.63559   0.27272   0.00000  Uiso   1.00
C489   C     0.03002   0.59650   0.26232   0.00000  Uiso   1.00
C490   C     0.47682   0.66892   0.04518   0.00000  Uiso   1.00
C491   C     0.00614   0.63390   0.06744   0.00000  Uiso   1.00
C492   C     0.49169   0.61431   0.11235   0.00000  Uiso   1.00
C493   C     0.31197   0.94163   0.16740   0.00000  Uiso   1.00
C494   C     0.47976   0.83320   0.28633   0.00000  Uiso   1.00
C495   C     0.00765   0.86144   0.25471   0.00000  Uiso   1.00
C496   C     0.49667   0.91112   0.24886   0.00000  Uiso   1.00
C497   C     0.25151   0.58430   0.04604   0.00000  Uiso   1.00
C498   C     0.21505   0.61496   0.03246   0.00000  Uiso   1.00
C499   C     0.22808   0.66342   0.02135   0.00000  Uiso   1.00
C500   C     0.25975   0.91661   0.29342   0.00000  Uiso   1.00
C501   C     0.22798   0.88381   0.27476   0.00000  Uiso   1.00
C502   C     0.23994   0.83482   0.28625   0.00000  Uiso   1.00
C503   C     0.22880   0.91643   0.04846   0.00000  Uiso   1.00
C504   C     0.18814   0.55806   0.16653   0.00000  Uiso   1.00
C505   C     0.26030   0.88881   0.07671   0.00000  Uiso   1.00
C506   C     0.25670   0.83869   0.06994   0.00000  Uiso   1.00
C507   C     0.27843   0.58130   0.28619   0.00000  Uiso   1.00
C508   C     0.25248   0.61291   0.25492   0.00000  Uiso   1.00
C509   C     0.27576   0.65435   0.23790   0.00000  Uiso   1.00
C510   C     0.18787   0.94226   0.16677   0.00000  Uiso   1.00
C511   C     0.31225   0.55780   0.16614   0.00000  Uiso   1.00
C512   C     0.00557   0.78907   0.02141   0.00000  Uiso   1.00
H513   H     0.03200   0.91925   0.02341   0.00000  Uiso   1.00
H514   H     0.01222   0.57151   0.24389   0.00000  Uiso   1.00
H515   H     0.47799   0.62176   0.29321   0.00000  Uiso   1.00
H516   H     0.49099   0.64915   0.24092   0.00000  Uiso   1.00
H517   H     0.05404   0.68353   0.27647   0.00000  Uiso   1.00
H518   H     0.04494   0.65429   0.32520   0.00000  Uiso   1.00
H519   H     0.00261   0.63477   0.13967   0.00000  Uiso   1.00
H520   H     0.45773   0.61257   0.11360   0.00000  Uiso   1.00
H521   H     0.00441   0.58007   0.11863   0.00000  Uiso   1.00
H522   H     0.00847   0.60572   0.04496   0.00000  Uiso   1.00
H523   H     0.03736   0.64781   0.07137   0.00000  Uiso   1.00
H524   H     0.47714   0.91066   0.01960   0.00000  Uiso   1.00
H525   H     0.45013   0.67721   0.06406   0.00000  Uiso   1.00
H526   H     0.46036   0.65210   0.01850   0.00000  Uiso   1.00
H527   H     0.46753   0.91567   0.22937   0.00000  Uiso   1.00
H528   H     0.49485   0.92705   0.28100   0.00000  Uiso   1.00
H529   H     0.02064   0.92886   0.22881   0.00000  Uiso   1.00
H530   H     0.04001   0.85849   0.26606   0.00000  Uiso   1.00
H531   H     0.00384   0.85034   0.22099   0.00000  Uiso   1.00
H532   H     0.44967   0.82687   0.27090   0.00000  Uiso   1.00
H533   H     0.47111   0.85445   0.31307   0.00000  Uiso   1.00
H534   H     0.23646   0.67996   0.05221   0.00000  Uiso   1.00
H535   H     0.49832   0.93338   0.06746   0.00000  Uiso   1.00
H536   H     0.25504   0.66528   0.33284   0.00000  Uiso   1.00
H537   H     0.20211   0.68201   0.00458   0.00000  Uiso   1.00
H538   H     0.19754   0.60197   0.00441   0.00000  Uiso   1.00
H539   H     0.19388   0.61581   0.06073   0.00000  Uiso   1.00
H540   H     0.24932   0.57805   0.08142   0.00000  Uiso   1.00
H541   H     0.28025   0.60374   0.04374   0.00000  Uiso   1.00
H542   H     0.27257   0.83090   0.29703   0.00000  Uiso   1.00
H543   H     0.21995   0.82022   0.31279   0.00000  Uiso   1.00
H544   H     0.23697   0.81475   0.25656   0.00000  Uiso   1.00
H545   H     0.19661   0.89033   0.28649   0.00000  Uiso   1.00
H546   H     0.47950   0.84934   0.07609   0.00000  Uiso   1.00
H547   H     0.22748   0.88757   0.23818   0.00000  Uiso   1.00
H548   H     0.28203   0.92308   0.26864   0.00000  Uiso   1.00
H549   H     0.27832   0.89932   0.32012   0.00000  Uiso   1.00
H550   H     0.22419   0.82817   0.06942   0.00000  Uiso   1.00
H551   H     0.26935   0.83061   0.03783   0.00000  Uiso   1.00
H552   H     0.27370   0.81932   0.09679   0.00000  Uiso   1.00
H553   H     0.29199   0.89977   0.06903   0.00000  Uiso   1.00
H554   H     0.25407   0.89270   0.11222   0.00000  Uiso   1.00
H555   H     0.20116   0.92032   0.06662   0.00000  Uiso   1.00
H556   H     0.21485   0.89454   0.02403   0.00000  Uiso   1.00
H557   H     0.02833   0.86736   0.09557   0.00000  Uiso   1.00
H558   H     0.27807   0.67911   0.26380   0.00000  Uiso   1.00
H559   H     0.30628   0.64457   0.22597   0.00000  Uiso   1.00
H560   H     0.25936   0.67045   0.20874   0.00000  Uiso   1.00
H561   H     0.24538   0.59723   0.22458   0.00000  Uiso   1.00
H562   H     0.22382   0.62322   0.27063   0.00000  Uiso   1.00
H563   H     0.29270   0.60282   0.31059   0.00000  Uiso   1.00
H564   H     0.30681   0.57111   0.27102   0.00000  Uiso   1.00
H565   H     0.29483   0.72314   0.07791   0.00000  Uiso   1.00
H566   H     0.17364   0.80685   0.22417   0.00000  Uiso   1.00
H567   H     0.20117   0.76754   0.12987   0.00000  Uiso   1.00
H568   H     0.05920   0.81377   0.05508   0.00000  Uiso   1.00
H569   H     0.34943   0.69604   0.30080   0.00000  Uiso   1.00
H570   H     0.20085   0.71779   0.25643   0.00000  Uiso   1.00
H571   H     0.34179   0.81021   0.02802   0.00000  Uiso   1.00
H572   H     0.30570   0.76623   0.25295   0.00000  Uiso   1.00
H573   H     0.17941   0.68620   0.10809   0.00000  Uiso   1.00
H574   H     0.06391   0.96478   0.07732   0.00000  Uiso   1.00
H575   H     0.37247   0.99848   0.18683   0.00000  Uiso   1.00
H576   H     0.42589   0.54620   0.06594   0.00000  Uiso   1.00
H577   H     0.12263   0.50088   0.20271   0.00000  Uiso   1.00
H578   H     0.41554   0.92525   0.29929   0.00000  Uiso   1.00
H579   H     0.04614   0.84594   0.00862   0.00000  Uiso   1.00
H580   H     0.13023   0.50247   0.13160   0.00000  Uiso   1.00
H581   H     0.10134   0.53045   0.29211   0.00000  Uiso   1.00
H582   H     0.33245   0.99554   0.07370   0.00000  Uiso   1.00
H583   H     0.05538   0.60876   0.24086   0.00000  Uiso   1.00
H584   H     0.04183   0.58026   0.29390   0.00000  Uiso   1.00
N585   N     0.00000   0.75000   0.28573   0.00000  Uiso   1.00
N586   N     0.00000   0.75000   0.04760   0.00000  Uiso   1.00
N587   N     0.25000   0.50000   0.28573   0.00000  Uiso   1.00
N588   N     0.25000   0.50000   0.04760   0.00000  Uiso   1.00
O589   O     0.04581   0.70419   0.20487   0.00000  Uiso   1.00
O590   O     0.20420   0.54581   0.12846   0.00000  Uiso   1.00
O591   O     0.20420   0.54581   0.20487   0.00000  Uiso   1.00
O592   O     0.29581   0.95419   0.12846   0.00000  Uiso   1.00
O593   O     0.20420   0.95419   0.12846   0.00000  Uiso   1.00
O594   O     0.29581   0.54581   0.20487   0.00000  Uiso   1.00
O595   O     0.29581   0.54581   0.12846   0.00000  Uiso   1.00
O596   O     0.20420   0.95419   0.20487   0.00000  Uiso   1.00
O597   O     0.35966   0.74518   0.12628   0.00000  Uiso   1.00
O598   O     0.37770   0.71004   0.05754   0.00000  Uiso   1.00
O599   O     0.30563   0.69396   0.09003   0.00000  Uiso   1.00
O600   O     0.45420   0.79581   0.12846   0.00000  Uiso   1.00
O601   O     0.12736   0.85376   0.29978   0.00000  Uiso   1.00
O602   O     0.08772   0.79113   0.27362   0.00000  Uiso   1.00
O603   O     0.16431   0.79733   0.25425   0.00000  Uiso   1.00
O604   O     0.12135   0.76221   0.11960   0.00000  Uiso   1.00
O605   O     0.15023   0.81161   0.06071   0.00000  Uiso   1.00
O606   O     0.19209   0.79832   0.13538   0.00000  Uiso   1.00
O607   O     0.38442   0.61724   0.29714   0.00000  Uiso   1.00
O608   O     0.42787   0.68151   0.27827   0.00000  Uiso   1.00
O609   O     0.35098   0.69078   0.26875   0.00000  Uiso   1.00
O610   O     0.12864   0.73974   0.20630   0.00000  Uiso   1.00
O611   O     0.45420   0.79581   0.20487   0.00000  Uiso   1.00
O612   O     0.12476   0.69974   0.27857   0.00000  Uiso   1.00
O613   O     0.19229   0.69530   0.23508   0.00000  Uiso   1.00
O614   O     0.41551   0.86716   0.03724   0.00000  Uiso   1.00
O615   O     0.40759   0.79095   0.06657   0.00000  Uiso   1.00
O616   O     0.34269   0.83605   0.04731   0.00000  Uiso   1.00
O617   O     0.37857   0.75345   0.21379   0.00000  Uiso   1.00
O618   O     0.38172   0.79595   0.28081   0.00000  Uiso   1.00
O619   O     0.31275   0.79427   0.23579   0.00000  Uiso   1.00
O620   O     0.12420   0.64674   0.03717   0.00000  Uiso   1.00
O621   O     0.08840   0.71091   0.06176   0.00000  Uiso   1.00
O622   O     0.04581   0.70419   0.12846   0.00000  Uiso   1.00
O623   O     0.16584   0.70205   0.08219   0.00000  Uiso   1.00
O624   O     0.14280   0.96124   0.06660   0.00000  Uiso   1.00
O625   O     0.10953   0.89262   0.04445   0.00000  Uiso   1.00
O626   O     0.07176   0.94065   0.09956   0.00000  Uiso   1.00
O627   O     0.43719   0.55829   0.24980   0.00000  Uiso   1.00
O628   O     0.36935   0.53217   0.27178   0.00000  Uiso   1.00
O629   O     0.40030   0.50365   0.19931   0.00000  Uiso   1.00
O630   O     0.34191   0.56941   0.05260   0.00000  Uiso   1.00
O631   O     0.39502   0.62555   0.04854   0.00000  Uiso   1.00
O632   O     0.41160   0.55240   0.09368   0.00000  Uiso   1.00
O633   O     0.45420   0.70419   0.12846   0.00000  Uiso   1.00
O634   O     0.08560   0.92577   0.27544   0.00000  Uiso   1.00
O635   O     0.15420   0.95837   0.26938   0.00000  Uiso   1.00
O636   O     0.09846   0.98167   0.20968   0.00000  Uiso   1.00
O637   O     0.34948   0.95035   0.26403   0.00000  Uiso   1.00
O638   O     0.33974   0.87264   0.29171   0.00000  Uiso   1.00
O639   O     0.41251   0.90102   0.27826   0.00000  Uiso   1.00
O640   O     0.07889   0.57487   0.06402   0.00000  Uiso   1.00
O641   O     0.15004   0.54979   0.06082   0.00000  Uiso   1.00
O642   O     0.10349   0.51651   0.12348   0.00000  Uiso   1.00
O643   O     0.17709   0.55728   0.27708   0.00000  Uiso   1.00
O644   O     0.04581   0.79581   0.20487   0.00000  Uiso   1.00
O645   O     0.12895   0.61454   0.29501   0.00000  Uiso   1.00
O646   O     0.10094   0.54449   0.26164   0.00000  Uiso   1.00
O647   O     0.42074   0.94879   0.07831   0.00000  Uiso   1.00
O648   O     0.35674   0.92958   0.03987   0.00000  Uiso   1.00
O649   O     0.35559   0.99161   0.09535   0.00000  Uiso   1.00
O650   O     0.04581   0.79581   0.12846   0.00000  Uiso   1.00
O651   O     0.45420   0.70419   0.20487   0.00000  Uiso   1.00
O652   O     0.29581   0.95419   0.20487   0.00000  Uiso   1.00
S653   S     0.35583   0.70353   0.10077   0.00000  Uiso   1.00
S654   S     0.39499   0.54644   0.23274   0.00000  Uiso   1.00
S655   S     0.37550   0.59075   0.07859   0.00000  Uiso   1.00
S656   S     0.11822   0.94082   0.24332   0.00000  Uiso   1.00
S657   S     0.36345   0.90311   0.26060   0.00000  Uiso   1.00
S658   S     0.11618   0.56125   0.09146   0.00000  Uiso   1.00
S659   S     0.13929   0.58195   0.26121   0.00000  Uiso   1.00
S660   S     0.37505   0.94253   0.08352   0.00000  Uiso   1.00
S661   S     0.12034   0.82500   0.26114   0.00000  Uiso   1.00
S662   S     0.14565   0.80397   0.10991   0.00000  Uiso   1.00
S663   S     0.39067   0.65586   0.26432   0.00000  Uiso   1.00
S664   S     0.14070   0.69779   0.23241   0.00000  Uiso   1.00
S665   S     0.39081   0.83740   0.06808   0.00000  Uiso   1.00
S666   S     0.36451   0.79514   0.23436   0.00000  Uiso   1.00
S667   S     0.12013   0.67620   0.07521   0.00000  Uiso   1.00
S668   S     0.11725   0.92196   0.08256   0.00000  Uiso   1.00
Zn669  Zn    0.00000   0.75000   0.21771   0.00000  Uiso   1.00
Zn670  Zn    0.00000   0.75000   0.11563   0.00000  Uiso   1.00
Zn671  Zn    0.25000   0.50000   0.21771   0.00000  Uiso   1.00
Zn672  Zn    0.25000   0.50000   0.11563   0.00000  Uiso   1.00
C673   C     0.56188   0.69226   0.16673   0.00000  Uiso   1.00
C674   C     0.50491   0.71110   0.31207   0.00000  Uiso   1.00
C675   C     0.99663   0.71095   0.02505   0.00000  Uiso   1.00
C676   C     0.99725   0.78948   0.30784   0.00000  Uiso   1.00
C677   C     0.75291   0.53977   0.02255   0.00000  Uiso   1.00
C678   C     0.74599   0.96062   0.31130   0.00000  Uiso   1.00
C679   C     0.74352   0.96078   0.02536   0.00000  Uiso   1.00
C680   C     0.75711   0.53956   0.30828   0.00000  Uiso   1.00
C681   C     0.87606   0.65721   0.13267   0.00000  Uiso   1.00
C682   C     0.60988   0.85829   0.21085   0.00000  Uiso   1.00
C683   C     0.62050   0.84864   0.13287   0.00000  Uiso   1.00
C684   C     0.93805   0.80744   0.16528   0.00000  Uiso   1.00
C685   C     0.89275   0.63542   0.20930   0.00000  Uiso   1.00
C686   C     0.62118   0.65173   0.20375   0.00000  Uiso   1.00
C687   C     0.88863   0.86002   0.12245   0.00000  Uiso   1.00
C688   C     0.87981   0.84278   0.20102   0.00000  Uiso   1.00
C689   C     0.60971   0.64297   0.12507   0.00000  Uiso   1.00
C690   C     0.63946   0.89021   0.12804   0.00000  Uiso   1.00
C691   C     0.87319   0.59395   0.20350   0.00000  Uiso   1.00
C692   C     0.85769   0.61560   0.12671   0.00000  Uiso   1.00
C693   C     0.63226   0.89855   0.20747   0.00000  Uiso   1.00
C694   C     0.85962   0.88329   0.20606   0.00000  Uiso   1.00
C695   C     0.93747   0.69290   0.16755   0.00000  Uiso   1.00
C696   C     0.63138   0.60270   0.12822   0.00000  Uiso   1.00
C697   C     0.64279   0.61110   0.20766   0.00000  Uiso   1.00
C698   C     0.86660   0.90023   0.12629   0.00000  Uiso   1.00
C699   C     0.59813   0.83802   0.17075   0.00000  Uiso   1.00
C700   C     0.89999   0.66384   0.17095   0.00000  Uiso   1.00
C701   C     0.90064   0.83564   0.16193   0.00000  Uiso   1.00
C702   C     0.59843   0.66259   0.16500   0.00000  Uiso   1.00
C703   C     0.84954   0.58762   0.16465   0.00000  Uiso   1.00
C704   C     0.65140   0.91170   0.16700   0.00000  Uiso   1.00
C705   C     0.65252   0.58944   0.16789   0.00000  Uiso   1.00
C706   C     0.56167   0.80809   0.16733   0.00000  Uiso   1.00
C707   C     0.84824   0.91023   0.16757   0.00000  Uiso   1.00
C708   C     0.53169   0.82789   0.03738   0.00000  Uiso   1.00
C709   C     0.50959   0.86213   0.06526   0.00000  Uiso   1.00
C710   C     0.50416   0.90871   0.04214   0.00000  Uiso   1.00
C711   C     0.52848   0.67117   0.29654   0.00000  Uiso   1.00
C712   C     0.50333   0.63559   0.27272   0.00000  Uiso   1.00
C713   C     0.53002   0.59650   0.26232   0.00000  Uiso   1.00
C714   C     0.97682   0.66892   0.04518   0.00000  Uiso   1.00
C715   C     0.50614   0.63390   0.06744   0.00000  Uiso   1.00
C716   C     0.99169   0.61431   0.11235   0.00000  Uiso   1.00
C717   C     0.81197   0.94163   0.16740   0.00000  Uiso   1.00
C718   C     0.97976   0.83320   0.28633   0.00000  Uiso   1.00
C719   C     0.50765   0.86144   0.25471   0.00000  Uiso   1.00
C720   C     0.99667   0.91112   0.24886   0.00000  Uiso   1.00
C721   C     0.75151   0.58430   0.04604   0.00000  Uiso   1.00
C722   C     0.71505   0.61496   0.03246   0.00000  Uiso   1.00
C723   C     0.72808   0.66342   0.02135   0.00000  Uiso   1.00
C724   C     0.75975   0.91661   0.29342   0.00000  Uiso   1.00
C725   C     0.72798   0.88381   0.27476   0.00000  Uiso   1.00
C726   C     0.73994   0.83482   0.28625   0.00000  Uiso   1.00
C727   C     0.72880   0.91643   0.04846   0.00000  Uiso   1.00
C728   C     0.68814   0.55806   0.16653   0.00000  Uiso   1.00
C729   C     0.76030   0.88881   0.07671   0.00000  Uiso   1.00
C730   C     0.75670   0.83869   0.06994   0.00000  Uiso   1.00
C731   C     0.77843   0.58130   0.28619   0.00000  Uiso   1.00
C732   C     0.75248   0.61291   0.25492   0.00000  Uiso   1.00
C733   C     0.77576   0.65435   0.23790   0.00000  Uiso   1.00
C734   C     0.68787   0.94226   0.16677   0.00000  Uiso   1.00
C735   C     0.81225   0.55780   0.16614   0.00000  Uiso   1.00
C736   C     0.50557   0.78907   0.02141   0.00000  Uiso   1.00
H737   H     0.53200   0.91925   0.02341   0.00000  Uiso   1.00
H738   H     0.51222   0.57151   0.24389   0.00000  Uiso   1.00
H739   H     0.97799   0.62176   0.29321   0.00000  Uiso   1.00
H740   H     0.99099   0.64915   0.24092   0.00000  Uiso   1.00
H741   H     0.55404   0.68353   0.27647   0.00000  Uiso   1.00
H742   H     0.54494   0.65429   0.32520   0.00000  Uiso   1.00
H743   H     0.50261   0.63477   0.13967   0.00000  Uiso   1.00
H744   H     0.95773   0.61257   0.11360   0.00000  Uiso   1.00
H745   H     0.50441   0.58007   0.11863   0.00000  Uiso   1.00
H746   H     0.50847   0.60572   0.04496   0.00000  Uiso   1.00
H747   H     0.53736   0.64781   0.07137   0.00000  Uiso   1.00
H748   H     0.97714   0.91066   0.01960   0.00000  Uiso   1.00
H749   H     0.95013   0.67721   0.06406   0.00000  Uiso   1.00
H750   H     0.96036   0.65210   0.01850   0.00000  Uiso   1.00
H751   H     0.96753   0.91567   0.22937   0.00000  Uiso   1.00
H752   H     0.99485   0.92705   0.28100   0.00000  Uiso   1.00
H753   H     0.52064   0.92886   0.22881   0.00000  Uiso   1.00
H754   H     0.54001   0.85849   0.26606   0.00000  Uiso   1.00
H755   H     0.50384   0.85034   0.22099   0.00000  Uiso   1.00
H756   H     0.94967   0.82687   0.27090   0.00000  Uiso   1.00
H757   H     0.97111   0.85445   0.31307   0.00000  Uiso   1.00
H758   H     0.73646   0.67996   0.05221   0.00000  Uiso   1.00
H759   H     0.99832   0.93338   0.06746   0.00000  Uiso   1.00
H760   H     0.75504   0.66528   0.33284   0.00000  Uiso   1.00
H761   H     0.70211   0.68201   0.00458   0.00000  Uiso   1.00
H762   H     0.69754   0.60197   0.00441   0.00000  Uiso   1.00
H763   H     0.69388   0.61581   0.06073   0.00000  Uiso   1.00
H764   H     0.74932   0.57805   0.08142   0.00000  Uiso   1.00
H765   H     0.78025   0.60374   0.04374   0.00000  Uiso   1.00
H766   H     0.77257   0.83090   0.29703   0.00000  Uiso   1.00
H767   H     0.71995   0.82022   0.31279   0.00000  Uiso   1.00
H768   H     0.73697   0.81475   0.25656   0.00000  Uiso   1.00
H769   H     0.69661   0.89033   0.28649   0.00000  Uiso   1.00
H770   H     0.97950   0.84934   0.07609   0.00000  Uiso   1.00
H771   H     0.72748   0.88757   0.23818   0.00000  Uiso   1.00
H772   H     0.78203   0.92308   0.26864   0.00000  Uiso   1.00
H773   H     0.77832   0.89932   0.32012   0.00000  Uiso   1.00
H774   H     0.72419   0.82817   0.06942   0.00000  Uiso   1.00
H775   H     0.76935   0.83061   0.03783   0.00000  Uiso   1.00
H776   H     0.77370   0.81932   0.09679   0.00000  Uiso   1.00
H777   H     0.79199   0.89977   0.06903   0.00000  Uiso   1.00
H778   H     0.75407   0.89270   0.11222   0.00000  Uiso   1.00
H779   H     0.70116   0.92032   0.06662   0.00000  Uiso   1.00
H780   H     0.71485   0.89454   0.02403   0.00000  Uiso   1.00
H781   H     0.52833   0.86736   0.09557   0.00000  Uiso   1.00
H782   H     0.77807   0.67911   0.26380   0.00000  Uiso   1.00
H783   H     0.80628   0.64457   0.22597   0.00000  Uiso   1.00
H784   H     0.75936   0.67045   0.20874   0.00000  Uiso   1.00
H785   H     0.74538   0.59723   0.22458   0.00000  Uiso   1.00
H786   H     0.72382   0.62322   0.27063   0.00000  Uiso   1.00
H787   H     0.79270   0.60282   0.31059   0.00000  Uiso   1.00
H788   H     0.80681   0.57111   0.27102   0.00000  Uiso   1.00
H789   H     0.79483   0.72314   0.07791   0.00000  Uiso   1.00
H790   H     0.67364   0.80685   0.22417   0.00000  Uiso   1.00
H791   H     0.70117   0.76754   0.12987   0.00000  Uiso   1.00
H792   H     0.55920   0.81377   0.05508   0.00000  Uiso   1.00
H793   H     0.84943   0.69604   0.30080   0.00000  Uiso   1.00
H794   H     0.70085   0.71779   0.25643   0.00000  Uiso   1.00
H795   H     0.84179   0.81021   0.02802   0.00000  Uiso   1.00
H796   H     0.80570   0.76623   0.25295   0.00000  Uiso   1.00
H797   H     0.67941   0.68620   0.10809   0.00000  Uiso   1.00
H798   H     0.56391   0.96478   0.07732   0.00000  Uiso   1.00
H799   H     0.87247   0.99848   0.18683   0.00000  Uiso   1.00
H800   H     0.92589   0.54620   0.06594   0.00000  Uiso   1.00
H801   H     0.62263   0.50088   0.20271   0.00000  Uiso   1.00
H802   H     0.91554   0.92525   0.29929   0.00000  Uiso   1.00
H803   H     0.54614   0.84594   0.00862   0.00000  Uiso   1.00
H804   H     0.63023   0.50247   0.13160   0.00000  Uiso   1.00
H805   H     0.60134   0.53045   0.29211   0.00000  Uiso   1.00
H806   H     0.83245   0.99554   0.07370   0.00000  Uiso   1.00
H807   H     0.55538   0.60876   0.24086   0.00000  Uiso   1.00
H808   H     0.54183   0.58026   0.29390   0.00000  Uiso   1.00
N809   N     0.50000   0.75000   0.28573   0.00000  Uiso   1.00
N810   N     0.50000   0.75000   0.04760   0.00000  Uiso   1.00
N811   N     0.75000   0.50000   0.28573   0.00000  Uiso   1.00
N812   N     0.75000   0.50000   0.04760   0.00000  Uiso   1.00
O813   O     0.54581   0.70419   0.20487   0.00000  Uiso   1.00
O814   O     0.70420   0.54581   0.12846   0.00000  Uiso   1.00
O815   O     0.70420   0.54581   0.20487   0.00000  Uiso   1.00
O816   O     0.79581   0.95419   0.12846   0.00000  Uiso   1.00
O817   O     0.70420   0.95419   0.12846   0.00000  Uiso   1.00
O818   O     0.79581   0.54581   0.20487   0.00000  Uiso   1.00
O819   O     0.79581   0.54581   0.12846   0.00000  Uiso   1.00
O820   O     0.70420   0.95419   0.20487   0.00000  Uiso   1.00
O821   O     0.85966   0.74518   0.12628   0.00000  Uiso   1.00
O822   O     0.87770   0.71004   0.05754   0.00000  Uiso   1.00
O823   O     0.80563   0.69396   0.09003   0.00000  Uiso   1.00
O824   O     0.95420   0.79581   0.12846   0.00000  Uiso   1.00
O825   O     0.62736   0.85376   0.29978   0.00000  Uiso   1.00
O826   O     0.58772   0.79113   0.27362   0.00000  Uiso   1.00
O827   O     0.66431   0.79733   0.25425   0.00000  Uiso   1.00
O828   O     0.62135   0.76221   0.11960   0.00000  Uiso   1.00
O829   O     0.65023   0.81161   0.06071   0.00000  Uiso   1.00
O830   O     0.69209   0.79832   0.13538   0.00000  Uiso   1.00
O831   O     0.88442   0.61724   0.29714   0.00000  Uiso   1.00
O832   O     0.92787   0.68151   0.27827   0.00000  Uiso   1.00
O833   O     0.85098   0.69078   0.26875   0.00000  Uiso   1.00
O834   O     0.62864   0.73974   0.20630   0.00000  Uiso   1.00
O835   O     0.95420   0.79581   0.20487   0.00000  Uiso   1.00
O836   O     0.62476   0.69974   0.27857   0.00000  Uiso   1.00
O837   O     0.69229   0.69530   0.23508   0.00000  Uiso   1.00
O838   O     0.91551   0.86716   0.03724   0.00000  Uiso   1.00
O839   O     0.90759   0.79095   0.06657   0.00000  Uiso   1.00
O840   O     0.84269   0.83605   0.04731   0.00000  Uiso   1.00
O841   O     0.87857   0.75345   0.21379   0.00000  Uiso   1.00
O842   O     0.88172   0.79595   0.28081   0.00000  Uiso   1.00
O843   O     0.81275   0.79427   0.23579   0.00000  Uiso   1.00
O844   O     0.62420   0.64674   0.03717   0.00000  Uiso   1.00
O845   O     0.58840   0.71091   0.06176   0.00000  Uiso   1.00
O846   O     0.54581   0.70419   0.12846   0.00000  Uiso   1.00
O847   O     0.66584   0.70205   0.08219   0.00000  Uiso   1.00
O848   O     0.64280   0.96124   0.06660   0.00000  Uiso   1.00
O849   O     0.60953   0.89262   0.04445   0.00000  Uiso   1.00
O850   O     0.57176   0.94065   0.09956   0.00000  Uiso   1.00
O851   O     0.93719   0.55829   0.24980   0.00000  Uiso   1.00
O852   O     0.86935   0.53217   0.27178   0.00000  Uiso   1.00
O853   O     0.90030   0.50365   0.19931   0.00000  Uiso   1.00
O854   O     0.84191   0.56941   0.05260   0.00000  Uiso   1.00
O855   O     0.89502   0.62555   0.04854   0.00000  Uiso   1.00
O856   O     0.91160   0.55240   0.09368   0.00000  Uiso   1.00
O857   O     0.95420   0.70419   0.12846   0.00000  Uiso   1.00
O858   O     0.58560   0.92577   0.27544   0.00000  Uiso   1.00
O859   O     0.65420   0.95837   0.26938   0.00000  Uiso   1.00
O860   O     0.59846   0.98167   0.20968   0.00000  Uiso   1.00
O861   O     0.84948   0.95035   0.26403   0.00000  Uiso   1.00
O862   O     0.83974   0.87264   0.29171   0.00000  Uiso   1.00
O863   O     0.91251   0.90102   0.27826   0.00000  Uiso   1.00
O864   O     0.57889   0.57487   0.06402   0.00000  Uiso   1.00
O865   O     0.65004   0.54979   0.06082   0.00000  Uiso   1.00
O866   O     0.60349   0.51651   0.12348   0.00000  Uiso   1.00
O867   O     0.67709   0.55728   0.27708   0.00000  Uiso   1.00
O868   O     0.54581   0.79581   0.20487   0.00000  Uiso   1.00
O869   O     0.62895   0.61454   0.29501   0.00000  Uiso   1.00
O870   O     0.60094   0.54449   0.26164   0.00000  Uiso   1.00
O871   O     0.92074   0.94879   0.07831   0.00000  Uiso   1.00
O872   O     0.85674   0.92958   0.03987   0.00000  Uiso   1.00
O873   O     0.85559   0.99161   0.09535   0.00000  Uiso   1.00
O874   O     0.54581   0.79581   0.12846   0.00000  Uiso   1.00
O875   O     0.95420   0.70419   0.20487   0.00000  Uiso   1.00
O876   O     0.79581   0.95419   0.20487   0.00000  Uiso   1.00
S877   S     0.85583   0.70353   0.10077   0.00000  Uiso   1.00
S878   S     0.89499   0.54644   0.23274   0.00000  Uiso   1.00
S879   S     0.87550   0.59075   0.07859   0.00000  Uiso   1.00
S880   S     0.61822   0.94082   0.24332   0.00000  Uiso   1.00
S881   S     0.86345   0.90311   0.26060   0.00000  Uiso   1.00
S882   S     0.61618   0.56125   0.09146   0.00000  Uiso   1.00
S883   S     0.63929   0.58195   0.26121   0.00000  Uiso   1.00
S884   S     0.87505   0.94253   0.08352   0.00000  Uiso   1.00
S885   S     0.62034   0.82500   0.26114   0.00000  Uiso   1.00
S886   S     0.64565   0.80397   0.10991   0.00000  Uiso   1.00
S887   S     0.89067   0.65586   0.26432   0.00000  Uiso   1.00
S888   S     0.64070   0.69779   0.23241   0.00000  Uiso   1.00
S889   S     0.89081   0.83740   0.06808   0.00000  Uiso   1.00
S890   S     0.86451   0.79514   0.23436   0.00000  Uiso   1.00
S891   S     0.62013   0.67620   0.07521   0.00000  Uiso   1.00
S892   S     0.61725   0.92196   0.08256   0.00000  Uiso   1.00
Zn893  Zn    0.50000   0.75000   0.21771   0.00000  Uiso   1.00
Zn894  Zn    0.50000   0.75000   0.11563   0.00000  Uiso   1.00
Zn895  Zn    0.75000   0.50000   0.21771   0.00000  Uiso   1.00
Zn896  Zn    0.75000   0.50000   0.11563   0.00000  Uiso   1.00
C897   C     0.06188   0.19226   0.50007   0.00000  Uiso   1.00
C898   C     0.00491   0.21110   0.64541   0.00000  Uiso   1.00
C899   C     0.49663   0.21095   0.35838   0.00000  Uiso   1.00
C900   C     0.49725   0.28948   0.64117   0.00000  Uiso   1.00
C901   C     0.25291   0.03977   0.35588   0.00000  Uiso   1.00
C902   C     0.24599   0.46062   0.64463   0.00000  Uiso   1.00
C903   C     0.24352   0.46078   0.35870   0.00000  Uiso   1.00
C904   C     0.25711   0.03956   0.64162   0.00000  Uiso   1.00
C905   C     0.37606   0.15721   0.46600   0.00000  Uiso   1.00
C906   C     0.10988   0.35829   0.54418   0.00000  Uiso   1.00
C907   C     0.12050   0.34864   0.46620   0.00000  Uiso   1.00
C908   C     0.43805   0.30744   0.49862   0.00000  Uiso   1.00
C909   C     0.39275   0.13542   0.54263   0.00000  Uiso   1.00
C910   C     0.12118   0.15173   0.53708   0.00000  Uiso   1.00
C911   C     0.38863   0.36002   0.45578   0.00000  Uiso   1.00
C912   C     0.37981   0.34278   0.53436   0.00000  Uiso   1.00
C913   C     0.10971   0.14297   0.45840   0.00000  Uiso   1.00
C914   C     0.13946   0.39021   0.46138   0.00000  Uiso   1.00
C915   C     0.37319   0.09395   0.53683   0.00000  Uiso   1.00
C916   C     0.35769   0.11560   0.46004   0.00000  Uiso   1.00
C917   C     0.13226   0.39855   0.54080   0.00000  Uiso   1.00
C918   C     0.35962   0.38329   0.53939   0.00000  Uiso   1.00
C919   C     0.43747   0.19290   0.50089   0.00000  Uiso   1.00
C920   C     0.13138   0.10270   0.46155   0.00000  Uiso   1.00
C921   C     0.14279   0.11110   0.54099   0.00000  Uiso   1.00
C922   C     0.36660   0.40023   0.45963   0.00000  Uiso   1.00
C923   C     0.09813   0.33802   0.50408   0.00000  Uiso   1.00
C924   C     0.39999   0.16384   0.50428   0.00000  Uiso   1.00
C925   C     0.40064   0.33564   0.49526   0.00000  Uiso   1.00
C926   C     0.09843   0.16259   0.49833   0.00000  Uiso   1.00
C927   C     0.34954   0.08762   0.49798   0.00000  Uiso   1.00
C928   C     0.15140   0.41170   0.50033   0.00000  Uiso   1.00
C929   C     0.15252   0.08944   0.50122   0.00000  Uiso   1.00
C930   C     0.06167   0.30809   0.50066   0.00000  Uiso   1.00
C931   C     0.34824   0.41023   0.50090   0.00000  Uiso   1.00
C932   C     0.03169   0.32789   0.37071   0.00000  Uiso   1.00
C933   C     0.00959   0.36213   0.39859   0.00000  Uiso   1.00
C934   C     0.00416   0.40871   0.37548   0.00000  Uiso   1.00
C935   C     0.02848   0.17117   0.62987   0.00000  Uiso   1.00
C936   C     0.00333   0.13559   0.60605   0.00000  Uiso   1.00
C937   C     0.03002   0.09650   0.59565   0.00000  Uiso   1.00
C938   C     0.47682   0.16892   0.37851   0.00000  Uiso   1.00
C939   C     0.00614   0.13390   0.40077   0.00000  Uiso   1.00
C940   C     0.49169   0.11431   0.44568   0.00000  Uiso   1.00
C941   C     0.31197   0.44163   0.50073   0.00000  Uiso   1.00
C942   C     0.47976   0.33320   0.61966   0.00000  Uiso   1.00
C943   C     0.00765   0.36144   0.58805   0.00000  Uiso   1.00
C944   C     0.49667   0.41112   0.58219   0.00000  Uiso   1.00
C945   C     0.25151   0.08430   0.37937   0.00000  Uiso   1.00
C946   C     0.21505   0.11496   0.36580   0.00000  Uiso   1.00
C947   C     0.22808   0.16342   0.35468   0.00000  Uiso   1.00
C948   C     0.25975   0.41661   0.62675   0.00000  Uiso   1.00
C949   C     0.22798   0.38381   0.60809   0.00000  Uiso   1.00
C950   C     0.23994   0.33482   0.61958   0.00000  Uiso   1.00
C951   C     0.22880   0.41643   0.38179   0.00000  Uiso   1.00
C952   C     0.18814   0.05806   0.49986   0.00000  Uiso   1.00
C953   C     0.26030   0.38881   0.41005   0.00000  Uiso   1.00
C954   C     0.25670   0.33869   0.40327   0.00000  Uiso   1.00
C955   C     0.27843   0.08130   0.61952   0.00000  Uiso   1.00
C956   C     0.25248   0.11291   0.58825   0.00000  Uiso   1.00
C957   C     0.27576   0.15435   0.57124   0.00000  Uiso   1.00
C958   C     0.18787   0.44226   0.50010   0.00000  Uiso   1.00
C959   C     0.31225   0.05780   0.49948   0.00000  Uiso   1.00
C960   C     0.00557   0.28907   0.35475   0.00000  Uiso   1.00
H961   H     0.03200   0.41925   0.35674   0.00000  Uiso   1.00
H962   H     0.01222   0.07151   0.57722   0.00000  Uiso   1.00
H963   H     0.47799   0.12176   0.62655   0.00000  Uiso   1.00
H964   H     0.49099   0.14915   0.57426   0.00000  Uiso   1.00
H965   H     0.05404   0.18353   0.60980   0.00000  Uiso   1.00
H966   H     0.04494   0.15429   0.65853   0.00000  Uiso   1.00
H967   H     0.00261   0.13477   0.47300   0.00000  Uiso   1.00
H968   H     0.45773   0.11257   0.44693   0.00000  Uiso   1.00
H969   H     0.00441   0.08007   0.45196   0.00000  Uiso   1.00
H970   H     0.00847   0.10572   0.37830   0.00000  Uiso   1.00
H971   H     0.03736   0.14781   0.40470   0.00000  Uiso   1.00
H972   H     0.47714   0.41066   0.35293   0.00000  Uiso   1.00
H973   H     0.45013   0.17721   0.39740   0.00000  Uiso   1.00
H974   H     0.46036   0.15210   0.35184   0.00000  Uiso   1.00
H975   H     0.46753   0.41567   0.56270   0.00000  Uiso   1.00
H976   H     0.49485   0.42705   0.61433   0.00000  Uiso   1.00
H977   H     0.02064   0.42886   0.56214   0.00000  Uiso   1.00
H978   H     0.04001   0.35849   0.59939   0.00000  Uiso   1.00
H979   H     0.00384   0.35034   0.55432   0.00000  Uiso   1.00
H980   H     0.44967   0.32687   0.60423   0.00000  Uiso   1.00
H981   H     0.47111   0.35445   0.64641   0.00000  Uiso   1.00
H982   H     0.23646   0.17996   0.38554   0.00000  Uiso   1.00
H983   H     0.49832   0.43338   0.40080   0.00000  Uiso   1.00
H984   H     0.25504   0.16528   0.66618   0.00000  Uiso   1.00
H985   H     0.20211   0.18201   0.33791   0.00000  Uiso   1.00
H986   H     0.19754   0.10197   0.33775   0.00000  Uiso   1.00
H987   H     0.19388   0.11581   0.39406   0.00000  Uiso   1.00
H988   H     0.24932   0.07805   0.41475   0.00000  Uiso   1.00
H989   H     0.28025   0.10374   0.37707   0.00000  Uiso   1.00
H990   H     0.27257   0.33090   0.63036   0.00000  Uiso   1.00
H991   H     0.21995   0.32022   0.64612   0.00000  Uiso   1.00
H992   H     0.23697   0.31475   0.58989   0.00000  Uiso   1.00
H993   H     0.19661   0.39033   0.61983   0.00000  Uiso   1.00
H994   H     0.47950   0.34934   0.40942   0.00000  Uiso   1.00
H995   H     0.22748   0.38757   0.57151   0.00000  Uiso   1.00
H996   H     0.28203   0.42308   0.60198   0.00000  Uiso   1.00
H997   H     0.27832   0.39932   0.65345   0.00000  Uiso   1.00
H998   H     0.22419   0.32817   0.40275   0.00000  Uiso   1.00
H999   H     0.26935   0.33061   0.37116   0.00000  Uiso   1.00
H1000  H     0.27370   0.31932   0.43012   0.00000  Uiso   1.00
H1001  H     0.29199   0.39977   0.40236   0.00000  Uiso   1.00
H1002  H     0.25407   0.39270   0.44555   0.00000  Uiso   1.00
H1003  H     0.20116   0.42032   0.39995   0.00000  Uiso   1.00
H1004  H     0.21485   0.39454   0.35736   0.00000  Uiso   1.00
H1005  H     0.02833   0.36736   0.42891   0.00000  Uiso   1.00
H1006  H     0.27807   0.17911   0.59714   0.00000  Uiso   1.00
H1007  H     0.30628   0.14457   0.55931   0.00000  Uiso   1.00
H1008  H     0.25936   0.17045   0.54207   0.00000  Uiso   1.00
H1009  H     0.24538   0.09723   0.55791   0.00000  Uiso   1.00
H1010  H     0.22382   0.12322   0.60396   0.00000  Uiso   1.00
H1011  H     0.29270   0.10282   0.64392   0.00000  Uiso   1.00
H1012  H     0.30681   0.07111   0.60435   0.00000  Uiso   1.00
H1013  H     0.29483   0.22314   0.41124   0.00000  Uiso   1.00
H1014  H     0.17364   0.30685   0.55750   0.00000  Uiso   1.00
H1015  H     0.20117   0.26754   0.46321   0.00000  Uiso   1.00
H1016  H     0.05920   0.31377   0.38841   0.00000  Uiso   1.00
H1017  H     0.34943   0.19604   0.63413   0.00000  Uiso   1.00
H1018  H     0.20085   0.21779   0.58976   0.00000  Uiso   1.00
H1019  H     0.34179   0.31021   0.36136   0.00000  Uiso   1.00
H1020  H     0.30570   0.26623   0.58629   0.00000  Uiso   1.00
H1021  H     0.17941   0.18620   0.44142   0.00000  Uiso   1.00
H1022  H     0.06391   0.46478   0.41066   0.00000  Uiso   1.00
H1023  H     0.37247   0.49848   0.52016   0.00000  Uiso   1.00
H1024  H     0.42589   0.04620   0.39927   0.00000  Uiso   1.00
H1025  H     0.12263   0.00088   0.53604   0.00000  Uiso   1.00
H1026  H     0.41554   0.42525   0.63262   0.00000  Uiso   1.00
H1027  H     0.04614   0.34594   0.34196   0.00000  Uiso   1.00
H1028  H     0.13023   0.00247   0.46493   0.00000  Uiso   1.00
H1029  H     0.10134   0.03045   0.62544   0.00000  Uiso   1.00
H1030  H     0.33245   0.49554   0.40704   0.00000  Uiso   1.00
H1031  H     0.05538   0.10876   0.57420   0.00000  Uiso   1.00
H1032  H     0.04183   0.08026   0.62723   0.00000  Uiso   1.00
N1033  N     0.00000   0.25000   0.61907   0.00000  Uiso   1.00
N1034  N     0.00000   0.25000   0.38093   0.00000  Uiso   1.00
N1035  N     0.25000   0.00000   0.61907   0.00000  Uiso   1.00
N1036  N     0.25000   0.00000   0.38093   0.00000  Uiso   1.00
O1037  O     0.04581   0.20419   0.53821   0.00000  Uiso   1.00
O1038  O     0.20420   0.04581   0.46179   0.00000  Uiso   1.00
O1039  O     0.20420   0.04581   0.53821   0.00000  Uiso   1.00
O1040  O     0.29581   0.45419   0.46179   0.00000  Uiso   1.00
O1041  O     0.20420   0.45419   0.46179   0.00000  Uiso   1.00
O1042  O     0.29581   0.04581   0.53821   0.00000  Uiso   1.00
O1043  O     0.29581   0.04581   0.46179   0.00000  Uiso   1.00
O1044  O     0.20420   0.45419   0.53821   0.00000  Uiso   1.00
O1045  O     0.35966   0.24518   0.45962   0.00000  Uiso   1.00
O1046  O     0.37770   0.21004   0.39088   0.00000  Uiso   1.00
O1047  O     0.30563   0.19396   0.42337   0.00000  Uiso   1.00
O1048  O     0.45420   0.29581   0.46179   0.00000  Uiso   1.00
O1049  O     0.12736   0.35376   0.63312   0.00000  Uiso   1.00
O1050  O     0.08772   0.29113   0.60695   0.00000  Uiso   1.00
O1051  O     0.16431   0.29733   0.58759   0.00000  Uiso   1.00
O1052  O     0.12135   0.26221   0.45294   0.00000  Uiso   1.00
O1053  O     0.15023   0.31161   0.39404   0.00000  Uiso   1.00
O1054  O     0.19209   0.29832   0.46871   0.00000  Uiso   1.00
O1055  O     0.38442   0.11724   0.63048   0.00000  Uiso   1.00
O1056  O     0.42787   0.18151   0.61160   0.00000  Uiso   1.00
O1057  O     0.35098   0.19078   0.60208   0.00000  Uiso   1.00
O1058  O     0.12864   0.23974   0.53963   0.00000  Uiso   1.00
O1059  O     0.45420   0.29581   0.53821   0.00000  Uiso   1.00
O1060  O     0.12476   0.19974   0.61190   0.00000  Uiso   1.00
O1061  O     0.19229   0.19530   0.56841   0.00000  Uiso   1.00
O1062  O     0.41551   0.36716   0.37058   0.00000  Uiso   1.00
O1063  O     0.40759   0.29095   0.39990   0.00000  Uiso   1.00
O1064  O     0.34269   0.33605   0.38064   0.00000  Uiso   1.00
O1065  O     0.37857   0.25345   0.54712   0.00000  Uiso   1.00
O1066  O     0.38172   0.29595   0.61415   0.00000  Uiso   1.00
O1067  O     0.31275   0.29427   0.56912   0.00000  Uiso   1.00
O1068  O     0.12420   0.14674   0.37050   0.00000  Uiso   1.00
O1069  O     0.08840   0.21091   0.39509   0.00000  Uiso   1.00
O1070  O     0.04581   0.20419   0.46179   0.00000  Uiso   1.00
O1071  O     0.16584   0.20205   0.41553   0.00000  Uiso   1.00
O1072  O     0.14280   0.46124   0.39994   0.00000  Uiso   1.00
O1073  O     0.10953   0.39262   0.37779   0.00000  Uiso   1.00
O1074  O     0.07176   0.44065   0.43289   0.00000  Uiso   1.00
O1075  O     0.43719   0.05829   0.58313   0.00000  Uiso   1.00
O1076  O     0.36935   0.03217   0.60512   0.00000  Uiso   1.00
O1077  O     0.40030   0.00365   0.53264   0.00000  Uiso   1.00
O1078  O     0.34191   0.06941   0.38593   0.00000  Uiso   1.00
O1079  O     0.39502   0.12555   0.38188   0.00000  Uiso   1.00
O1080  O     0.41160   0.05240   0.42701   0.00000  Uiso   1.00
O1081  O     0.45420   0.20419   0.46179   0.00000  Uiso   1.00
O1082  O     0.08560   0.42577   0.60877   0.00000  Uiso   1.00
O1083  O     0.15420   0.45837   0.60271   0.00000  Uiso   1.00
O1084  O     0.09846   0.48167   0.54301   0.00000  Uiso   1.00
O1085  O     0.34948   0.45035   0.59737   0.00000  Uiso   1.00
O1086  O     0.33974   0.37264   0.62504   0.00000  Uiso   1.00
O1087  O     0.41251   0.40102   0.61159   0.00000  Uiso   1.00
O1088  O     0.07889   0.07487   0.39735   0.00000  Uiso   1.00
O1089  O     0.15004   0.04979   0.39416   0.00000  Uiso   1.00
O1090  O     0.10349   0.01651   0.45681   0.00000  Uiso   1.00
O1091  O     0.17709   0.05728   0.61042   0.00000  Uiso   1.00
O1092  O     0.04581   0.29581   0.53821   0.00000  Uiso   1.00
O1093  O     0.12895   0.11454   0.62835   0.00000  Uiso   1.00
O1094  O     0.10094   0.04449   0.59498   0.00000  Uiso   1.00
O1095  O     0.42074   0.44879   0.41164   0.00000  Uiso   1.00
O1096  O     0.35674   0.42958   0.37321   0.00000  Uiso   1.00
O1097  O     0.35559   0.49161   0.42868   0.00000  Uiso   1.00
O1098  O     0.04581   0.29581   0.46179   0.00000  Uiso   1.00
O1099  O     0.45420   0.20419   0.53821   0.00000  Uiso   1.00
O1100  O     0.29581   0.45419   0.53821   0.00000  Uiso   1.00
S1101  S     0.35583   0.20353   0.43410   0.00000  Uiso   1.00
S1102  S     0.39499   0.04644   0.56607   0.00000  Uiso   1.00
S1103  S     0.37550   0.09075   0.41193   0.00000  Uiso   1.00
S1104  S     0.11822   0.44082   0.57665   0.00000  Uiso   1.00
S1105  S     0.36345   0.40311   0.59393   0.00000  Uiso   1.00
S1106  S     0.11618   0.06125   0.42479   0.00000  Uiso   1.00
S1107  S     0.13929   0.08195   0.59454   0.00000  Uiso   1.00
S1108  S     0.37505   0.44253   0.41685   0.00000  Uiso   1.00
S1109  S     0.12034   0.32500   0.59447   0.00000  Uiso   1.00
S1110  S     0.14565   0.30397   0.44324   0.00000  Uiso   1.00
S1111  S     0.39067   0.15586   0.59766   0.00000  Uiso   1.00
S1112  S     0.14070   0.19779   0.56574   0.00000  Uiso   1.00
S1113  S     0.39081   0.33740   0.40142   0.00000  Uiso   1.00
S1114  S     0.36451   0.29514   0.56769   0.00000  Uiso   1.00
S1115  S     0.12013   0.17620   0.40855   0.00000  Uiso   1.00
S1116  S     0.11725   0.42196   0.41590   0.00000  Uiso   1.00
Zn1117 Zn    0.00000   0.25000   0.55104   0.00000  Uiso   1.00
Zn1118 Zn    0.00000   0.25000   0.44896   0.00000  Uiso   1.00
Zn1119 Zn    0.25000   0.00000   0.55104   0.00000  Uiso   1.00
Zn1120 Zn    0.25000   0.00000   0.44896   0.00000  Uiso   1.00
C1121  C     0.56188   0.19226   0.50007   0.00000  Uiso   1.00
C1122  C     0.50491   0.21110   0.64541   0.00000  Uiso   1.00
C1123  C     0.99663   0.21095   0.35838   0.00000  Uiso   1.00
C1124  C     0.99725   0.28948   0.64117   0.00000  Uiso   1.00
C1125  C     0.75291   0.03977   0.35588   0.00000  Uiso   1.00
C1126  C     0.74599   0.46062   0.64463   0.00000  Uiso   1.00
C1127  C     0.74352   0.46078   0.35870   0.00000  Uiso   1.00
C1128  C     0.75711   0.03956   0.64162   0.00000  Uiso   1.00
C1129  C     0.87606   0.15721   0.46600   0.00000  Uiso   1.00
C1130  C     0.60988   0.35829   0.54418   0.00000  Uiso   1.00
C1131  C     0.62050   0.34864   0.46620   0.00000  Uiso   1.00
C1132  C     0.93805   0.30744   0.49862   0.00000  Uiso   1.00
C1133  C     0.89275   0.13542   0.54263   0.00000  Uiso   1.00
C1134  C     0.62118   0.15173   0.53708   0.00000  Uiso   1.00
C1135  C     0.88863   0.36002   0.45578   0.00000  Uiso   1.00
C1136  C     0.87981   0.34278   0.53436   0.00000  Uiso   1.00
C1137  C     0.60971   0.14297   0.45840   0.00000  Uiso   1.00
C1138  C     0.63946   0.39021   0.46138   0.00000  Uiso   1.00
C1139  C     0.87319   0.09395   0.53683   0.00000  Uiso   1.00
C1140  C     0.85769   0.11560   0.46004   0.00000  Uiso   1.00
C1141  C     0.63226   0.39855   0.54080   0.00000  Uiso   1.00
C1142  C     0.85962   0.38329   0.53939   0.00000  Uiso   1.00
C1143  C     0.93747   0.19290   0.50089   0.00000  Uiso   1.00
C1144  C     0.63138   0.10270   0.46155   0.00000  Uiso   1.00
C1145  C     0.64279   0.11110   0.54099   0.00000  Uiso   1.00
C1146  C     0.86660   0.40023   0.45963   0.00000  Uiso   1.00
C1147  C     0.59813   0.33802   0.50408   0.00000  Uiso   1.00
C1148  C     0.89999   0.16384   0.50428   0.00000  Uiso   1.00
C1149  C     0.90064   0.33564   0.49526   0.00000  Uiso   1.00
C1150  C     0.59843   0.16259   0.49833   0.00000  Uiso   1.00
C1151  C     0.84954   0.08762   0.49798   0.00000  Uiso   1.00
C1152  C     0.65140   0.41170   0.50033   0.00000  Uiso   1.00
C1153  C     0.65252   0.08944   0.50122   0.00000  Uiso   1.00
C1154  C     0.56167   0.30809   0.50066   0.00000  Uiso   1.00
C1155  C     0.84824   0.41023   0.50090   0.00000  Uiso   1.00
C1156  C     0.53169   0.32789   0.37071   0.00000  Uiso   1.00
C1157  C     0.50959   0.36213   0.39859   0.00000  Uiso   1.00
C1158  C     0.50416   0.40871   0.37548   0.00000  Uiso   1.00
C1159  C     0.52848   0.17117   0.62987   0.00000  Uiso   1.00
C1160  C     0.50333   0.13559   0.60605   0.00000  Uiso   1.00
C1161  C     0.53002   0.09650   0.59565   0.00000  Uiso   1.00
C1162  C     0.97682   0.16892   0.37851   0.00000  Uiso   1.00
C1163  C     0.50614   0.13390   0.40077   0.00000  Uiso   1.00
C1164  C     0.99169   0.11431   0.44568   0.00000  Uiso   1.00
C1165  C     0.81197   0.44163   0.50073   0.00000  Uiso   1.00
C1166  C     0.97976   0.33320   0.61966   0.00000  Uiso   1.00
C1167  C     0.50765   0.36144   0.58805   0.00000  Uiso   1.00
C1168  C     0.99667   0.41112   0.58219   0.00000  Uiso   1.00
C1169  C     0.75151   0.08430   0.37937   0.00000  Uiso   1.00
C1170  C     0.71505   0.11496   0.36580   0.00000  Uiso   1.00
C1171  C     0.72808   0.16342   0.35468   0.00000  Uiso   1.00
C1172  C     0.75975   0.41661   0.62675   0.00000  Uiso   1.00
C1173  C     0.72798   0.38381   0.60809   0.00000  Uiso   1.00
C1174  C     0.73994   0.33482   0.61958   0.00000  Uiso   1.00
C1175  C     0.72880   0.41643   0.38179   0.00000  Uiso   1.00
C1176  C     0.68814   0.05806   0.49986   0.00000  Uiso   1.00
C1177  C     0.76030   0.38881   0.41005   0.00000  Uiso   1.00
C1178  C     0.75670   0.33869   0.40327   0.00000  Uiso   1.00
C1179  C     0.77843   0.08130   0.61952   0.00000  Uiso   1.00
C1180  C     0.75248   0.11291   0.58825   0.00000  Uiso   1.00
C1181  C     0.77576   0.15435   0.57124   0.00000  Uiso   1.00
C1182  C     0.68787   0.44226   0.50010   0.00000  Uiso   1.00
C1183  C     0.81225   0.05780   0.49948   0.00000  Uiso   1.00
C1184  C     0.50557   0.28907   0.35475   0.00000  Uiso   1.00
H1185  H     0.53200   0.41925   0.35674   0.00000  Uiso   1.00
H1186  H     0.51222   0.07151   0.57722   0.00000  Uiso   1.00
H1187  H     0.97799   0.12176   0.62655   0.00000  Uiso   1.00
H1188  H     0.99099   0.14915   0.57426   0.00000  Uiso   1.00
H1189  H     0.55404   0.18353   0.60980   0.00000  Uiso   1.00
H1190  H     0.54494   0.15429   0.65853   0.00000  Uiso   1.00
H1191  H     0.50261   0.13477   0.47300   0.00000  Uiso   1.00
H1192  H     0.95773   0.11257   0.44693   0.00000  Uiso   1.00
H1193  H     0.50441   0.08007   0.45196   0.00000  Uiso   1.00
H1194  H     0.50847   0.10572   0.37830   0.00000  Uiso   1.00
H1195  H     0.53736   0.14781   0.40470   0.00000  Uiso   1.00
H1196  H     0.97714   0.41066   0.35293   0.00000  Uiso   1.00
H1197  H     0.95013   0.17721   0.39740   0.00000  Uiso   1.00
H1198  H     0.96036   0.15210   0.35184   0.00000  Uiso   1.00
H1199  H     0.96753   0.41567   0.56270   0.00000  Uiso   1.00
H1200  H     0.99485   0.42705   0.61433   0.00000  Uiso   1.00
H1201  H     0.52064   0.42886   0.56214   0.00000  Uiso   1.00
H1202  H     0.54001   0.35849   0.59939   0.00000  Uiso   1.00
H1203  H     0.50384   0.35034   0.55432   0.00000  Uiso   1.00
H1204  H     0.94967   0.32687   0.60423   0.00000  Uiso   1.00
H1205  H     0.97111   0.35445   0.64641   0.00000  Uiso   1.00
H1206  H     0.73646   0.17996   0.38554   0.00000  Uiso   1.00
H1207  H     0.99832   0.43338   0.40080   0.00000  Uiso   1.00
H1208  H     0.75504   0.16528   0.66618   0.00000  Uiso   1.00
H1209  H     0.70211   0.18201   0.33791   0.00000  Uiso   1.00
H1210  H     0.69754   0.10197   0.33775   0.00000  Uiso   1.00
H1211  H     0.69388   0.11581   0.39406   0.00000  Uiso   1.00
H1212  H     0.74932   0.07805   0.41475   0.00000  Uiso   1.00
H1213  H     0.78025   0.10374   0.37707   0.00000  Uiso   1.00
H1214  H     0.77257   0.33090   0.63036   0.00000  Uiso   1.00
H1215  H     0.71995   0.32022   0.64612   0.00000  Uiso   1.00
H1216  H     0.73697   0.31475   0.58989   0.00000  Uiso   1.00
H1217  H     0.69661   0.39033   0.61983   0.00000  Uiso   1.00
H1218  H     0.97950   0.34934   0.40942   0.00000  Uiso   1.00
H1219  H     0.72748   0.38757   0.57151   0.00000  Uiso   1.00
H1220  H     0.78203   0.42308   0.60198   0.00000  Uiso   1.00
H1221  H     0.77832   0.39932   0.65345   0.00000  Uiso   1.00
H1222  H     0.72419   0.32817   0.40275   0.00000  Uiso   1.00
H1223  H     0.76935   0.33061   0.37116   0.00000  Uiso   1.00
H1224  H     0.77370   0.31932   0.43012   0.00000  Uiso   1.00
H1225  H     0.79199   0.39977   0.40236   0.00000  Uiso   1.00
H1226  H     0.75407   0.39270   0.44555   0.00000  Uiso   1.00
H1227  H     0.70116   0.42032   0.39995   0.00000  Uiso   1.00
H1228  H     0.71485   0.39454   0.35736   0.00000  Uiso   1.00
H1229  H     0.52833   0.36736   0.42891   0.00000  Uiso   1.00
H1230  H     0.77807   0.17911   0.59714   0.00000  Uiso   1.00
H1231  H     0.80628   0.14457   0.55931   0.00000  Uiso   1.00
H1232  H     0.75936   0.17045   0.54207   0.00000  Uiso   1.00
H1233  H     0.74538   0.09723   0.55791   0.00000  Uiso   1.00
H1234  H     0.72382   0.12322   0.60396   0.00000  Uiso   1.00
H1235  H     0.79270   0.10282   0.64392   0.00000  Uiso   1.00
H1236  H     0.80681   0.07111   0.60435   0.00000  Uiso   1.00
H1237  H     0.79483   0.22314   0.41124   0.00000  Uiso   1.00
H1238  H     0.67364   0.30685   0.55750   0.00000  Uiso   1.00
H1239  H     0.70117   0.26754   0.46321   0.00000  Uiso   1.00
H1240  H     0.55920   0.31377   0.38841   0.00000  Uiso   1.00
H1241  H     0.84943   0.19604   0.63413   0.00000  Uiso   1.00
H1242  H     0.70085   0.21779   0.58976   0.00000  Uiso   1.00
H1243  H     0.84179   0.31021   0.36136   0.00000  Uiso   1.00
H1244  H     0.80570   0.26623   0.58629   0.00000  Uiso   1.00
H1245  H     0.67941   0.18620   0.44142   0.00000  Uiso   1.00
H1246  H     0.56391   0.46478   0.41066   0.00000  Uiso   1.00
H1247  H     0.87247   0.49848   0.52016   0.00000  Uiso   1.00
H1248  H     0.92589   0.04620   0.39927   0.00000  Uiso   1.00
H1249  H     0.62263   0.00088   0.53604   0.00000  Uiso   1.00
H1250  H     0.91554   0.42525   0.63262   0.00000  Uiso   1.00
H1251  H     0.54614   0.34594   0.34196   0.00000  Uiso   1.00
H1252  H     0.63023   0.00247   0.46493   0.00000  Uiso   1.00
H1253  H     0.60134   0.03045   0.62544   0.00000  Uiso   1.00
H1254  H     0.83245   0.49554   0.40704   0.00000  Uiso   1.00
H1255  H     0.55538   0.10876   0.57420   0.00000  Uiso   1.00
H1256  H     0.54183   0.08026   0.62723   0.00000  Uiso   1.00
N1257  N     0.50000   0.25000   0.61907   0.00000  Uiso   1.00
N1258  N     0.50000   0.25000   0.38093   0.00000  Uiso   1.00
N1259  N     0.75000   0.00000   0.61907   0.00000  Uiso   1.00
N1260  N     0.75000   0.00000   0.38093   0.00000  Uiso   1.00
O1261  O     0.54581   0.20419   0.53821   0.00000  Uiso   1.00
O1262  O     0.70420   0.04581   0.46179   0.00000  Uiso   1.00
O1263  O     0.70420   0.04581   0.53821   0.00000  Uiso   1.00
O1264  O     0.79581   0.45419   0.46179   0.00000  Uiso   1.00
O1265  O     0.70420   0.45419   0.46179   0.00000  Uiso   1.00
O1266  O     0.79581   0.04581   0.53821   0.00000  Uiso   1.00
O1267  O     0.79581   0.04581   0.46179   0.00000  Uiso   1.00
O1268  O     0.70420   0.45419   0.53821   0.00000  Uiso   1.00
O1269  O     0.85966   0.24518   0.45962   0.00000  Uiso   1.00
O1270  O     0.87770   0.21004   0.39088   0.00000  Uiso   1.00
O1271  O     0.80563   0.19396   0.42337   0.00000  Uiso   1.00
O1272  O     0.95420   0.29581   0.46179   0.00000  Uiso   1.00
O1273  O     0.62736   0.35376   0.63312   0.00000  Uiso   1.00
O1274  O     0.58772   0.29113   0.60695   0.00000  Uiso   1.00
O1275  O     0.66431   0.29733   0.58759   0.00000  Uiso   1.00
O1276  O     0.62135   0.26221   0.45294   0.00000  Uiso   1.00
O1277  O     0.65023   0.31161   0.39404   0.00000  Uiso   1.00
O1278  O     0.69209   0.29832   0.46871   0.00000  Uiso   1.00
O1279  O     0.88442   0.11724   0.63048   0.00000  Uiso   1.00
O1280  O     0.92787   0.18151   0.61160   0.00000  Uiso   1.00
O1281  O     0.85098   0.19078   0.60208   0.00000  Uiso   1.00
O1282  O     0.62864   0.23974   0.53963   0.00000  Uiso   1.00
O1283  O     0.95420   0.29581   0.53821   0.00000  Uiso   1.00
O1284  O     0.62476   0.19974   0.61190   0.00000  Uiso   1.00
O1285  O     0.69229   0.19530   0.56841   0.00000  Uiso   1.00
O1286  O     0.91551   0.36716   0.37058   0.00000  Uiso   1.00
O1287  O     0.90759   0.29095   0.39990   0.00000  Uiso   1.00
O1288  O     0.84269   0.33605   0.38064   0.00000  Uiso   1.00
O1289  O     0.87857   0.25345   0.54712   0.00000  Uiso   1.00
O1290  O     0.88172   0.29595   0.61415   0.00000  Uiso   1.00
O1291  O     0.81275   0.29427   0.56912   0.00000  Uiso   1.00
O1292  O     0.62420   0.14674   0.37050   0.00000  Uiso   1.00
O1293  O     0.58840   0.21091   0.39509   0.00000  Uiso   1.00
O1294  O     0.54581   0.20419   0.46179   0.00000  Uiso   1.00
O1295  O     0.66584   0.20205   0.41553   0.00000  Uiso   1.00
O1296  O     0.64280   0.46124   0.39994   0.00000  Uiso   1.00
O1297  O     0.60953   0.39262   0.37779   0.00000  Uiso   1.00
O1298  O     0.57176   0.44065   0.43289   0.00000  Uiso   1.00
O1299  O     0.93719   0.05829   0.58313   0.00000  Uiso   1.00
O1300  O     0.86935   0.03217   0.60512   0.00000  Uiso   1.00
O1301  O     0.90030   0.00365   0.53264   0.00000  Uiso   1.00
O1302  O     0.84191   0.06941   0.38593   0.00000  Uiso   1.00
O1303  O     0.89502   0.12555   0.38188   0.00000  Uiso   1.00
O1304  O     0.91160   0.05240   0.42701   0.00000  Uiso   1.00
O1305  O     0.95420   0.20419   0.46179   0.00000  Uiso   1.00
O1306  O     0.58560   0.42577   0.60877   0.00000  Uiso   1.00
O1307  O     0.65420   0.45837   0.60271   0.00000  Uiso   1.00
O1308  O     0.59846   0.48167   0.54301   0.00000  Uiso   1.00
O1309  O     0.84948   0.45035   0.59737   0.00000  Uiso   1.00
O1310  O     0.83974   0.37264   0.62504   0.00000  Uiso   1.00
O1311  O     0.91251   0.40102   0.61159   0.00000  Uiso   1.00
O1312  O     0.57889   0.07487   0.39735   0.00000  Uiso   1.00
O1313  O     0.65004   0.04979   0.39416   0.00000  Uiso   1.00
O1314  O     0.60349   0.01651   0.45681   0.00000  Uiso   1.00
O1315  O     0.67709   0.05728   0.61042   0.00000  Uiso   1.00
O1316  O     0.54581   0.29581   0.53821   0.00000  Uiso   1.00
O1317  O     0.62895   0.11454   0.62835   0.00000  Uiso   1.00
O1318  O     0.60094   0.04449   0.59498   0.00000  Uiso   1.00
O1319  O     0.92074   0.44879   0.41164   0.00000  Uiso   1.00
O1320  O     0.85674   0.42958   0.37321   0.00000  Uiso   1.00
O1321  O     0.85559   0.49161   0.42868   0.00000  Uiso   1.00
O1322  O     0.54581   0.29581   0.46179   0.00000  Uiso   1.00
O1323  O     0.95420   0.20419   0.53821   0.00000  Uiso   1.00
O1324  O     0.79581   0.45419   0.53821   0.00000  Uiso   1.00
S1325  S     0.85583   0.20353   0.43410   0.00000  Uiso   1.00
S1326  S     0.89499   0.04644   0.56607   0.00000  Uiso   1.00
S1327  S     0.87550   0.09075   0.41193   0.00000  Uiso   1.00
S1328  S     0.61822   0.44082   0.57665   0.00000  Uiso   1.00
S1329  S     0.86345   0.40311   0.59393   0.00000  Uiso   1.00
S1330  S     0.61618   0.06125   0.42479   0.00000  Uiso   1.00
S1331  S     0.63929   0.08195   0.59454   0.00000  Uiso   1.00
S1332  S     0.87505   0.44253   0.41685   0.00000  Uiso   1.00
S1333  S     0.62034   0.32500   0.59447   0.00000  Uiso   1.00
S1334  S     0.64565   0.30397   0.44324   0.00000  Uiso   1.00
S1335  S     0.89067   0.15586   0.59766   0.00000  Uiso   1.00
S1336  S     0.64070   0.19779   0.56574   0.00000  Uiso   1.00
S1337  S     0.89081   0.33740   0.40142   0.00000  Uiso   1.00
S1338  S     0.86451   0.29514   0.56769   0.00000  Uiso   1.00
S1339  S     0.62013   0.17620   0.40855   0.00000  Uiso   1.00
S1340  S     0.61725   0.42196   0.41590   0.00000  Uiso   1.00
Zn1341 Zn    0.50000   0.25000   0.55104   0.00000  Uiso   1.00
Zn1342 Zn    0.50000   0.25000   0.44896   0.00000  Uiso   1.00
Zn1343 Zn    0.75000   0.00000   0.55104   0.00000  Uiso   1.00
Zn1344 Zn    0.75000   0.00000   0.44896   0.00000  Uiso   1.00
C1345  C     0.06188   0.69226   0.50007   0.00000  Uiso   1.00
C1346  C     0.00491   0.71110   0.64541   0.00000  Uiso   1.00
C1347  C     0.49663   0.71095   0.35838   0.00000  Uiso   1.00
C1348  C     0.49725   0.78948   0.64117   0.00000  Uiso   1.00
C1349  C     0.25291   0.53977   0.35588   0.00000  Uiso   1.00
C1350  C     0.24599   0.96062   0.64463   0.00000  Uiso   1.00
C1351  C     0.24352   0.96078   0.35870   0.00000  Uiso   1.00
C1352  C     0.25711   0.53956   0.64162   0.00000  Uiso   1.00
C1353  C     0.37606   0.65721   0.46600   0.00000  Uiso   1.00
C1354  C     0.10988   0.85829   0.54418   0.00000  Uiso   1.00
C1355  C     0.12050   0.84864   0.46620   0.00000  Uiso   1.00
C1356  C     0.43805   0.80744   0.49862   0.00000  Uiso   1.00
C1357  C     0.39275   0.63542   0.54263   0.00000  Uiso   1.00
C1358  C     0.12118   0.65173   0.53708   0.00000  Uiso   1.00
C1359  C     0.38863   0.86002   0.45578   0.00000  Uiso   1.00
C1360  C     0.37981   0.84278   0.53436   0.00000  Uiso   1.00
C1361  C     0.10971   0.64297   0.45840   0.00000  Uiso   1.00
C1362  C     0.13946   0.89021   0.46138   0.00000  Uiso   1.00
C1363  C     0.37319   0.59395   0.53683   0.00000  Uiso   1.00
C1364  C     0.35769   0.61560   0.46004   0.00000  Uiso   1.00
C1365  C     0.13226   0.89855   0.54080   0.00000  Uiso   1.00
C1366  C     0.35962   0.88329   0.53939   0.00000  Uiso   1.00
C1367  C     0.43747   0.69290   0.50089   0.00000  Uiso   1.00
C1368  C     0.13138   0.60270   0.46155   0.00000  Uiso   1.00
C1369  C     0.14279   0.61110   0.54099   0.00000  Uiso   1.00
C1370  C     0.36660   0.90023   0.45963   0.00000  Uiso   1.00
C1371  C     0.09813   0.83802   0.50408   0.00000  Uiso   1.00
C1372  C     0.39999   0.66384   0.50428   0.00000  Uiso   1.00
C1373  C     0.40064   0.83564   0.49526   0.00000  Uiso   1.00
C1374  C     0.09843   0.66259   0.49833   0.00000  Uiso   1.00
C1375  C     0.34954   0.58762   0.49798   0.00000  Uiso   1.00
C1376  C     0.15140   0.91170   0.50033   0.00000  Uiso   1.00
C1377  C     0.15252   0.58944   0.50122   0.00000  Uiso   1.00
C1378  C     0.06167   0.80809   0.50066   0.00000  Uiso   1.00
C1379  C     0.34824   0.91023   0.50090   0.00000  Uiso   1.00
C1380  C     0.03169   0.82789   0.37071   0.00000  Uiso   1.00
C1381  C     0.00959   0.86213   0.39859   0.00000  Uiso   1.00
C1382  C     0.00416   0.90871   0.37548   0.00000  Uiso   1.00
C1383  C     0.02848   0.67117   0.62987   0.00000  Uiso   1.00
C1384  C     0.00333   0.63559   0.60605   0.00000  Uiso   1.00
C1385  C     0.03002   0.59650   0.59565   0.00000  Uiso   1.00
C1386  C     0.47682   0.66892   0.37851   0.00000  Uiso   1.00
C1387  C     0.00614   0.63390   0.40077   0.00000  Uiso   1.00
C1388  C     0.49169   0.61431   0.44568   0.00000  Uiso   1.00
C1389  C     0.31197   0.94163   0.50073   0.00000  Uiso   1.00
C1390  C     0.47976   0.83320   0.61966   0.00000  Uiso   1.00
C1391  C     0.00765   0.86144   0.58805   0.00000  Uiso   1.00
C1392  C     0.49667   0.91112   0.58219   0.00000  Uiso   1.00
C1393  C     0.25151   0.58430   0.37937   0.00000  Uiso   1.00
C1394  C     0.21505   0.61496   0.36580   0.00000  Uiso   1.00
C1395  C     0.22808   0.66342   0.35468   0.00000  Uiso   1.00
C1396  C     0.25975   0.91661   0.62675   0.00000  Uiso   1.00
C1397  C     0.22798   0.88381   0.60809   0.00000  Uiso   1.00
C1398  C     0.23994   0.83482   0.61958   0.00000  Uiso   1.00
C1399  C     0.22880   0.91643   0.38179   0.00000  Uiso   1.00
C1400  C     0.18814   0.55806   0.49986   0.00000  Uiso   1.00
C1401  C     0.26030   0.88881   0.41005   0.00000  Uiso   1.00
C1402  C     0.25670   0.83869   0.40327   0.00000  Uiso   1.00
C1403  C     0.27843   0.58130   0.61952   0.00000  Uiso   1.00
C1404  C     0.25248   0.61291   0.58825   0.00000  Uiso   1.00
C1405  C     0.27576   0.65435   0.57124   0.00000  Uiso   1.00
C1406  C     0.18787   0.94226   0.50010   0.00000  Uiso   1.00
C1407  C     0.31225   0.55780   0.49948   0.00000  Uiso   1.00
C1408  C     0.00557   0.78907   0.35475   0.00000  Uiso   1.00
H1409  H     0.03200   0.91925   0.35674   0.00000  Uiso   1.00
H1410  H     0.01222   0.57151   0.57722   0.00000  Uiso   1.00
H1411  H     0.47799   0.62176   0.62655   0.00000  Uiso   1.00
H1412  H     0.49099   0.64915   0.57426   0.00000  Uiso   1.00
H1413  H     0.05404   0.68353   0.60980   0.00000  Uiso   1.00
H1414  H     0.04494   0.65429   0.65853   0.00000  Uiso   1.00
H1415  H     0.00261   0.63477   0.47300   0.00000  Uiso   1.00
H1416  H     0.45773   0.61257   0.44693   0.00000  Uiso   1.00
H1417  H     0.00441   0.58007   0.45196   0.00000  Uiso   1.00
H1418  H     0.00847   0.60572   0.37830   0.00000  Uiso   1.00
H1419  H     0.03736   0.64781   0.40470   0.00000  Uiso   1.00
H1420  H     0.47714   0.91066   0.35293   0.00000  Uiso   1.00
H1421  H     0.45013   0.67721   0.39740   0.00000  Uiso   1.00
H1422  H     0.46036   0.65210   0.35184   0.00000  Uiso   1.00
H1423  H     0.46753   0.91567   0.56270   0.00000  Uiso   1.00
H1424  H     0.49485   0.92705   0.61433   0.00000  Uiso   1.00
H1425  H     0.02064   0.92886   0.56214   0.00000  Uiso   1.00
H1426  H     0.04001   0.85849   0.59939   0.00000  Uiso   1.00
H1427  H     0.00384   0.85034   0.55432   0.00000  Uiso   1.00
H1428  H     0.44967   0.82687   0.60423   0.00000  Uiso   1.00
H1429  H     0.47111   0.85445   0.64641   0.00000  Uiso   1.00
H1430  H     0.23646   0.67996   0.38554   0.00000  Uiso   1.00
H1431  H     0.49832   0.93338   0.40080   0.00000  Uiso   1.00
H1432  H     0.25504   0.66528   0.66618   0.00000  Uiso   1.00
H1433  H     0.20211   0.68201   0.33791   0.00000  Uiso   1.00
H1434  H     0.19754   0.60197   0.33775   0.00000  Uiso   1.00
H1435  H     0.19388   0.61581   0.39406   0.00000  Uiso   1.00
H1436  H     0.24932   0.57805   0.41475   0.00000  Uiso   1.00
H1437  H     0.28025   0.60374   0.37707   0.00000  Uiso   1.00
H1438  H     0.27257   0.83090   0.63036   0.00000  Uiso   1.00
H1439  H     0.21995   0.82022   0.64612   0.00000  Uiso   1.00
H1440  H     0.23697   0.81475   0.58989   0.00000  Uiso   1.00
H1441  H     0.19661   0.89033   0.61983   0.00000  Uiso   1.00
H1442  H     0.47950   0.84934   0.40942   0.00000  Uiso   1.00
H1443  H     0.22748   0.88757   0.57151   0.00000  Uiso   1.00
H1444  H     0.28203   0.92308   0.60198   0.00000  Uiso   1.00
H1445  H     0.27832   0.89932   0.65345   0.00000  Uiso   1.00
H1446  H     0.22419   0.82817   0.40275   0.00000  Uiso   1.00
H1447  H     0.26935   0.83061   0.37116   0.00000  Uiso   1.00
H1448  H     0.27370   0.81932   0.43012   0.00000  Uiso   1.00
H1449  H     0.29199   0.89977   0.40236   0.00000  Uiso   1.00
H1450  H     0.25407   0.89270   0.44555   0.00000  Uiso   1.00
H1451  H     0.20116   0.92032   0.39995   0.00000  Uiso   1.00
H1452  H     0.21485   0.89454   0.35736   0.00000  Uiso   1.00
H1453  H     0.02833   0.86736   0.42891   0.00000  Uiso   1.00
H1454  H     0.27807   0.67911   0.59714   0.00000  Uiso   1.00
H1455  H     0.30628   0.64457   0.55931   0.00000  Uiso   1.00
H1456  H     0.25936   0.67045   0.54207   0.00000  Uiso   1.00
H1457  H     0.24538   0.59723   0.55791   0.00000  Uiso   1.00
H1458  H     0.22382   0.62322   0.60396   0.00000  Uiso   1.00
H1459  H     0.29270   0.60282   0.64392   0.00000  Uiso   1.00
H1460  H     0.30681   0.57111   0.60435   0.00000  Uiso   1.00
H1461  H     0.29483   0.72314   0.41124   0.00000  Uiso   1.00
H1462  H     0.17364   0.80685   0.55750   0.00000  Uiso   1.00
H1463  H     0.20117   0.76754   0.46321   0.00000  Uiso   1.00
H1464  H     0.05920   0.81377   0.38841   0.00000  Uiso   1.00
H1465  H     0.34943   0.69604   0.63413   0.00000  Uiso   1.00
H1466  H     0.20085   0.71779   0.58976   0.00000  Uiso   1.00
H1467  H     0.34179   0.81021   0.36136   0.00000  Uiso   1.00
H1468  H     0.30570   0.76623   0.58629   0.00000  Uiso   1.00
H1469  H     0.17941   0.68620   0.44142   0.00000  Uiso   1.00
H1470  H     0.06391   0.96478   0.41066   0.00000  Uiso   1.00
H1471  H     0.37247   0.99848   0.52016   0.00000  Uiso   1.00
H1472  H     0.42589   0.54620   0.39927   0.00000  Uiso   1.00
H1473  H     0.12263   0.50088   0.53604   0.00000  Uiso   1.00
H1474  H     0.41554   0.92525   0.63262   0.00000  Uiso   1.00
H1475  H     0.04614   0.84594   0.34196   0.00000  Uiso   1.00
H1476  H     0.13023   0.50247   0.46493   0.00000  Uiso   1.00
H1477  H     0.10134   0.53045   0.62544   0.00000  Uiso   1.00
H1478  H     0.33245   0.99554   0.40704   0.00000  Uiso   1.00
H1479  H     0.05538   0.60876   0.57420   0.00000  Uiso   1.00
H1480  H     0.04183   0.58026   0.62723   0.00000  Uiso   1.00
N1481  N     0.00000   0.75000   0.61907   0.00000  Uiso   1.00
N1482  N     0.00000   0.75000   0.38093   0.00000  Uiso   1.00
N1483  N     0.25000   0.50000   0.61907   0.00000  Uiso   1.00
N1484  N     0.25000   0.50000   0.38093   0.00000  Uiso   1.00
O1485  O     0.04581   0.70419   0.53821   0.00000  Uiso   1.00
O1486  O     0.20420   0.54581   0.46179   0.00000  Uiso   1.00
O1487  O     0.20420   0.54581   0.53821   0.00000  Uiso   1.00
O1488  O     0.29581   0.95419   0.46179   0.00000  Uiso   1.00
O1489  O     0.20420   0.95419   0.46179   0.00000  Uiso   1.00
O1490  O     0.29581   0.54581   0.53821   0.00000  Uiso   1.00
O1491  O     0.29581   0.54581   0.46179   0.00000  Uiso   1.00
O1492  O     0.20420   0.95419   0.53821   0.00000  Uiso   1.00
O1493  O     0.35966   0.74518   0.45962   0.00000  Uiso   1.00
O1494  O     0.37770   0.71004   0.39088   0.00000  Uiso   1.00
O1495  O     0.30563   0.69396   0.42337   0.00000  Uiso   1.00
O1496  O     0.45420   0.79581   0.46179   0.00000  Uiso   1.00
O1497  O     0.12736   0.85376   0.63312   0.00000  Uiso   1.00
O1498  O     0.08772   0.79113   0.60695   0.00000  Uiso   1.00
O1499  O     0.16431   0.79733   0.58759   0.00000  Uiso   1.00
O1500  O     0.12135   0.76221   0.45294   0.00000  Uiso   1.00
O1501  O     0.15023   0.81161   0.39404   0.00000  Uiso   1.00
O1502  O     0.19209   0.79832   0.46871   0.00000  Uiso   1.00
O1503  O     0.38442   0.61724   0.63048   0.00000  Uiso   1.00
O1504  O     0.42787   0.68151   0.61160   0.00000  Uiso   1.00
O1505  O     0.35098   0.69078   0.60208   0.00000  Uiso   1.00
O1506  O     0.12864   0.73974   0.53963   0.00000  Uiso   1.00
O1507  O     0.45420   0.79581   0.53821   0.00000  Uiso   1.00
O1508  O     0.12476   0.69974   0.61190   0.00000  Uiso   1.00
O1509  O     0.19229   0.69530   0.56841   0.00000  Uiso   1.00
O1510  O     0.41551   0.86716   0.37058   0.00000  Uiso   1.00
O1511  O     0.40759   0.79095   0.39990   0.00000  Uiso   1.00
O1512  O     0.34269   0.83605   0.38064   0.00000  Uiso   1.00
O1513  O     0.37857   0.75345   0.54712   0.00000  Uiso   1.00
O1514  O     0.38172   0.79595   0.61415   0.00000  Uiso   1.00
O1515  O     0.31275   0.79427   0.56912   0.00000  Uiso   1.00
O1516  O     0.12420   0.64674   0.37050   0.00000  Uiso   1.00
O1517  O     0.08840   0.71091   0.39509   0.00000  Uiso   1.00
O1518  O     0.04581   0.70419   0.46179   0.00000  Uiso   1.00
O1519  O     0.16584   0.70205   0.41553   0.00000  Uiso   1.00
O1520  O     0.14280   0.96124   0.39994   0.00000  Uiso   1.00
O1521  O     0.10953   0.89262   0.37779   0.00000  Uiso   1.00
O1522  O     0.07176   0.94065   0.43289   0.00000  Uiso   1.00
O1523  O     0.43719   0.55829   0.58313   0.00000  Uiso   1.00
O1524  O     0.36935   0.53217   0.60512   0.00000  Uiso   1.00
O1525  O     0.40030   0.50365   0.53264   0.00000  Uiso   1.00
O1526  O     0.34191   0.56941   0.38593   0.00000  Uiso   1.00
O1527  O     0.39502   0.62555   0.38188   0.00000  Uiso   1.00
O1528  O     0.41160   0.55240   0.42701   0.00000  Uiso   1.00
O1529  O     0.45420   0.70419   0.46179   0.00000  Uiso   1.00
O1530  O     0.08560   0.92577   0.60877   0.00000  Uiso   1.00
O1531  O     0.15420   0.95837   0.60271   0.00000  Uiso   1.00
O1532  O     0.09846   0.98167   0.54301   0.00000  Uiso   1.00
O1533  O     0.34948   0.95035   0.59737   0.00000  Uiso   1.00
O1534  O     0.33974   0.87264   0.62504   0.00000  Uiso   1.00
O1535  O     0.41251   0.90102   0.61159   0.00000  Uiso   1.00
O1536  O     0.07889   0.57487   0.39735   0.00000  Uiso   1.00
O1537  O     0.15004   0.54979   0.39416   0.00000  Uiso   1.00
O1538  O     0.10349   0.51651   0.45681   0.00000  Uiso   1.00
O1539  O     0.17709   0.55728   0.61042   0.00000  Uiso   1.00
O1540  O     0.04581   0.79581   0.53821   0.00000  Uiso   1.00
O1541  O     0.12895   0.61454   0.62835   0.00000  Uiso   1.00
O1542  O     0.10094   0.54449   0.59498   0.00000  Uiso   1.00
O1543  O     0.42074   0.94879   0.41164   0.00000  Uiso   1.00
O1544  O     0.35674   0.92958   0.37321   0.00000  Uiso   1.00
O1545  O     0.35559   0.99161   0.42868   0.00000  Uiso   1.00
O1546  O     0.04581   0.79581   0.46179   0.00000  Uiso   1.00
O1547  O     0.45420   0.70419   0.53821   0.00000  Uiso   1.00
O1548  O     0.29581   0.95419   0.53821   0.00000  Uiso   1.00
S1549  S     0.35583   0.70353   0.43410   0.00000  Uiso   1.00
S1550  S     0.39499   0.54644   0.56607   0.00000  Uiso   1.00
S1551  S     0.37550   0.59075   0.41193   0.00000  Uiso   1.00
S1552  S     0.11822   0.94082   0.57665   0.00000  Uiso   1.00
S1553  S     0.36345   0.90311   0.59393   0.00000  Uiso   1.00
S1554  S     0.11618   0.56125   0.42479   0.00000  Uiso   1.00
S1555  S     0.13929   0.58195   0.59454   0.00000  Uiso   1.00
S1556  S     0.37505   0.94253   0.41685   0.00000  Uiso   1.00
S1557  S     0.12034   0.82500   0.59447   0.00000  Uiso   1.00
S1558  S     0.14565   0.80397   0.44324   0.00000  Uiso   1.00
S1559  S     0.39067   0.65586   0.59766   0.00000  Uiso   1.00
S1560  S     0.14070   0.69779   0.56574   0.00000  Uiso   1.00
S1561  S     0.39081   0.83740   0.40142   0.00000  Uiso   1.00
S1562  S     0.36451   0.79514   0.56769   0.00000  Uiso   1.00
S1563  S     0.12013   0.67620   0.40855   0.00000  Uiso   1.00
S1564  S     0.11725   0.92196   0.41590   0.00000  Uiso   1.00
Zn1565 Zn    0.00000   0.75000   0.55104   0.00000  Uiso   1.00
Zn1566 Zn    0.00000   0.75000   0.44896   0.00000  Uiso   1.00
Zn1567 Zn    0.25000   0.50000   0.55104   0.00000  Uiso   1.00
Zn1568 Zn    0.25000   0.50000   0.44896   0.00000  Uiso   1.00
C1569  C     0.56188   0.69226   0.50007   0.00000  Uiso   1.00
C1570  C     0.50491   0.71110   0.64541   0.00000  Uiso   1.00
C1571  C     0.99663   0.71095   0.35838   0.00000  Uiso   1.00
C1572  C     0.99725   0.78948   0.64117   0.00000  Uiso   1.00
C1573  C     0.75291   0.53977   0.35588   0.00000  Uiso   1.00
C1574  C     0.74599   0.96062   0.64463   0.00000  Uiso   1.00
C1575  C     0.74352   0.96078   0.35870   0.00000  Uiso   1.00
C1576  C     0.75711   0.53956   0.64162   0.00000  Uiso   1.00
C1577  C     0.87606   0.65721   0.46600   0.00000  Uiso   1.00
C1578  C     0.60988   0.85829   0.54418   0.00000  Uiso   1.00
C1579  C     0.62050   0.84864   0.46620   0.00000  Uiso   1.00
C1580  C     0.93805   0.80744   0.49862   0.00000  Uiso   1.00
C1581  C     0.89275   0.63542   0.54263   0.00000  Uiso   1.00
C1582  C     0.62118   0.65173   0.53708   0.00000  Uiso   1.00
C1583  C     0.88863   0.86002   0.45578   0.00000  Uiso   1.00
C1584  C     0.87981   0.84278   0.53436   0.00000  Uiso   1.00
C1585  C     0.60971   0.64297   0.45840   0.00000  Uiso   1.00
C1586  C     0.63946   0.89021   0.46138   0.00000  Uiso   1.00
C1587  C     0.87319   0.59395   0.53683   0.00000  Uiso   1.00
C1588  C     0.85769   0.61560   0.46004   0.00000  Uiso   1.00
C1589  C     0.63226   0.89855   0.54080   0.00000  Uiso   1.00
C1590  C     0.85962   0.88329   0.53939   0.00000  Uiso   1.00
C1591  C     0.93747   0.69290   0.50089   0.00000  Uiso   1.00
C1592  C     0.63138   0.60270   0.46155   0.00000  Uiso   1.00
C1593  C     0.64279   0.61110   0.54099   0.00000  Uiso   1.00
C1594  C     0.86660   0.90023   0.45963   0.00000  Uiso   1.00
C1595  C     0.59813   0.83802   0.50408   0.00000  Uiso   1.00
C1596  C     0.89999   0.66384   0.50428   0.00000  Uiso   1.00
C1597  C     0.90064   0.83564   0.49526   0.00000  Uiso   1.00
C1598  C     0.59843   0.66259   0.49833   0.00000  Uiso   1.00
C1599  C     0.84954   0.58762   0.49798   0.00000  Uiso   1.00
C1600  C     0.65140   0.91170   0.50033   0.00000  Uiso   1.00
C1601  C     0.65252   0.58944   0.50122   0.00000  Uiso   1.00
C1602  C     0.56167   0.80809   0.50066   0.00000  Uiso   1.00
C1603  C     0.84824   0.91023   0.50090   0.00000  Uiso   1.00
C1604  C     0.53169   0.82789   0.37071   0.00000  Uiso   1.00
C1605  C     0.50959   0.86213   0.39859   0.00000  Uiso   1.00
C1606  C     0.50416   0.90871   0.37548   0.00000  Uiso   1.00
C1607  C     0.52848   0.67117   0.62987   0.00000  Uiso   1.00
C1608  C     0.50333   0.63559   0.60605   0.00000  Uiso   1.00
C1609  C     0.53002   0.59650   0.59565   0.00000  Uiso   1.00
C1610  C     0.97682   0.66892   0.37851   0.00000  Uiso   1.00
C1611  C     0.50614   0.63390   0.40077   0.00000  Uiso   1.00
C1612  C     0.99169   0.61431   0.44568   0.00000  Uiso   1.00
C1613  C     0.81197   0.94163   0.50073   0.00000  Uiso   1.00
C1614  C     0.97976   0.83320   0.61966   0.00000  Uiso   1.00
C1615  C     0.50765   0.86144   0.58805   0.00000  Uiso   1.00
C1616  C     0.99667   0.91112   0.58219   0.00000  Uiso   1.00
C1617  C     0.75151   0.58430   0.37937   0.00000  Uiso   1.00
C1618  C     0.71505   0.61496   0.36580   0.00000  Uiso   1.00
C1619  C     0.72808   0.66342   0.35468   0.00000  Uiso   1.00
C1620  C     0.75975   0.91661   0.62675   0.00000  Uiso   1.00
C1621  C     0.72798   0.88381   0.60809   0.00000  Uiso   1.00
C1622  C     0.73994   0.83482   0.61958   0.00000  Uiso   1.00
C1623  C     0.72880   0.91643   0.38179   0.00000  Uiso   1.00
C1624  C     0.68814   0.55806   0.49986   0.00000  Uiso   1.00
C1625  C     0.76030   0.88881   0.41005   0.00000  Uiso   1.00
C1626  C     0.75670   0.83869   0.40327   0.00000  Uiso   1.00
C1627  C     0.77843   0.58130   0.61952   0.00000  Uiso   1.00
C1628  C     0.75248   0.61291   0.58825   0.00000  Uiso   1.00
C1629  C     0.77576   0.65435   0.57124   0.00000  Uiso   1.00
C1630  C     0.68787   0.94226   0.50010   0.00000  Uiso   1.00
C1631  C     0.81225   0.55780   0.49948   0.00000  Uiso   1.00
C1632  C     0.50557   0.78907   0.35475   0.00000  Uiso   1.00
H1633  H     0.53200   0.91925   0.35674   0.00000  Uiso   1.00
H1634  H     0.51222   0.57151   0.57722   0.00000  Uiso   1.00
H1635  H     0.97799   0.62176   0.62655   0.00000  Uiso   1.00
H1636  H     0.99099   0.64915   0.57426   0.00000  Uiso   1.00
H1637  H     0.55404   0.68353   0.60980   0.00000  Uiso   1.00
H1638  H     0.54494   0.65429   0.65853   0.00000  Uiso   1.00
H1639  H     0.50261   0.63477   0.47300   0.00000  Uiso   1.00
H1640  H     0.95773   0.61257   0.44693   0.00000  Uiso   1.00
H1641  H     0.50441   0.58007   0.45196   0.00000  Uiso   1.00
H1642  H     0.50847   0.60572   0.37830   0.00000  Uiso   1.00
H1643  H     0.53736   0.64781   0.40470   0.00000  Uiso   1.00
H1644  H     0.97714   0.91066   0.35293   0.00000  Uiso   1.00
H1645  H     0.95013   0.67721   0.39740   0.00000  Uiso   1.00
H1646  H     0.96036   0.65210   0.35184   0.00000  Uiso   1.00
H1647  H     0.96753   0.91567   0.56270   0.00000  Uiso   1.00
H1648  H     0.99485   0.92705   0.61433   0.00000  Uiso   1.00
H1649  H     0.52064   0.92886   0.56214   0.00000  Uiso   1.00
H1650  H     0.54001   0.85849   0.59939   0.00000  Uiso   1.00
H1651  H     0.50384   0.85034   0.55432   0.00000  Uiso   1.00
H1652  H     0.94967   0.82687   0.60423   0.00000  Uiso   1.00
H1653  H     0.97111   0.85445   0.64641   0.00000  Uiso   1.00
H1654  H     0.73646   0.67996   0.38554   0.00000  Uiso   1.00
H1655  H     0.99832   0.93338   0.40080   0.00000  Uiso   1.00
H1656  H     0.75504   0.66528   0.66618   0.00000  Uiso   1.00
H1657  H     0.70211   0.68201   0.33791   0.00000  Uiso   1.00
H1658  H     0.69754   0.60197   0.33775   0.00000  Uiso   1.00
H1659  H     0.69388   0.61581   0.39406   0.00000  Uiso   1.00
H1660  H     0.74932   0.57805   0.41475   0.00000  Uiso   1.00
H1661  H     0.78025   0.60374   0.37707   0.00000  Uiso   1.00
H1662  H     0.77257   0.83090   0.63036   0.00000  Uiso   1.00
H1663  H     0.71995   0.82022   0.64612   0.00000  Uiso   1.00
H1664  H     0.73697   0.81475   0.58989   0.00000  Uiso   1.00
H1665  H     0.69661   0.89033   0.61983   0.00000  Uiso   1.00
H1666  H     0.97950   0.84934   0.40942   0.00000  Uiso   1.00
H1667  H     0.72748   0.88757   0.57151   0.00000  Uiso   1.00
H1668  H     0.78203   0.92308   0.60198   0.00000  Uiso   1.00
H1669  H     0.77832   0.89932   0.65345   0.00000  Uiso   1.00
H1670  H     0.72419   0.82817   0.40275   0.00000  Uiso   1.00
H1671  H     0.76935   0.83061   0.37116   0.00000  Uiso   1.00
H1672  H     0.77370   0.81932   0.43012   0.00000  Uiso   1.00
H1673  H     0.79199   0.89977   0.40236   0.00000  Uiso   1.00
H1674  H     0.75407   0.89270   0.44555   0.00000  Uiso   1.00
H1675  H     0.70116   0.92032   0.39995   0.00000  Uiso   1.00
H1676  H     0.71485   0.89454   0.35736   0.00000  Uiso   1.00
H1677  H     0.52833   0.86736   0.42891   0.00000  Uiso   1.00
H1678  H     0.77807   0.67911   0.59714   0.00000  Uiso   1.00
H1679  H     0.80628   0.64457   0.55931   0.00000  Uiso   1.00
H1680  H     0.75936   0.67045   0.54207   0.00000  Uiso   1.00
H1681  H     0.74538   0.59723   0.55791   0.00000  Uiso   1.00
H1682  H     0.72382   0.62322   0.60396   0.00000  Uiso   1.00
H1683  H     0.79270   0.60282   0.64392   0.00000  Uiso   1.00
H1684  H     0.80681   0.57111   0.60435   0.00000  Uiso   1.00
H1685  H     0.79483   0.72314   0.41124   0.00000  Uiso   1.00
H1686  H     0.67364   0.80685   0.55750   0.00000  Uiso   1.00
H1687  H     0.70117   0.76754   0.46321   0.00000  Uiso   1.00
H1688  H     0.55920   0.81377   0.38841   0.00000  Uiso   1.00
H1689  H     0.84943   0.69604   0.63413   0.00000  Uiso   1.00
H1690  H     0.70085   0.71779   0.58976   0.00000  Uiso   1.00
H1691  H     0.84179   0.81021   0.36136   0.00000  Uiso   1.00
H1692  H     0.80570   0.76623   0.58629   0.00000  Uiso   1.00
H1693  H     0.67941   0.68620   0.44142   0.00000  Uiso   1.00
H1694  H     0.56391   0.96478   0.41066   0.00000  Uiso   1.00
H1695  H     0.87247   0.99848   0.52016   0.00000  Uiso   1.00
H1696  H     0.92589   0.54620   0.39927   0.00000  Uiso   1.00
H1697  H     0.62263   0.50088   0.53604   0.00000  Uiso   1.00
H1698  H     0.91554   0.92525   0.63262   0.00000  Uiso   1.00
H1699  H     0.54614   0.84594   0.34196   0.00000  Uiso   1.00
H1700  H     0.63023   0.50247   0.46493   0.00000  Uiso   1.00
H1701  H     0.60134   0.53045   0.62544   0.00000  Uiso   1.00
H1702  H     0.83245   0.99554   0.40704   0.00000  Uiso   1.00
H1703  H     0.55538   0.60876   0.57420   0.00000  Uiso   1.00
H1704  H     0.54183   0.58026   0.62723   0.00000  Uiso   1.00
N1705  N     0.50000   0.75000   0.61907   0.00000  Uiso   1.00
N1706  N     0.50000   0.75000   0.38093   0.00000  Uiso   1.00
N1707  N     0.75000   0.50000   0.61907   0.00000  Uiso   1.00
N1708  N     0.75000   0.50000   0.38093   0.00000  Uiso   1.00
O1709  O     0.54581   0.70419   0.53821   0.00000  Uiso   1.00
O1710  O     0.70420   0.54581   0.46179   0.00000  Uiso   1.00
O1711  O     0.70420   0.54581   0.53821   0.00000  Uiso   1.00
O1712  O     0.79581   0.95419   0.46179   0.00000  Uiso   1.00
O1713  O     0.70420   0.95419   0.46179   0.00000  Uiso   1.00
O1714  O     0.79581   0.54581   0.53821   0.00000  Uiso   1.00
O1715  O     0.79581   0.54581   0.46179   0.00000  Uiso   1.00
O1716  O     0.70420   0.95419   0.53821   0.00000  Uiso   1.00
O1717  O     0.85966   0.74518   0.45962   0.00000  Uiso   1.00
O1718  O     0.87770   0.71004   0.39088   0.00000  Uiso   1.00
O1719  O     0.80563   0.69396   0.42337   0.00000  Uiso   1.00
O1720  O     0.95420   0.79581   0.46179   0.00000  Uiso   1.00
O1721  O     0.62736   0.85376   0.63312   0.00000  Uiso   1.00
O1722  O     0.58772   0.79113   0.60695   0.00000  Uiso   1.00
O1723  O     0.66431   0.79733   0.58759   0.00000  Uiso   1.00
O1724  O     0.62135   0.76221   0.45294   0.00000  Uiso   1.00
O1725  O     0.65023   0.81161   0.39404   0.00000  Uiso   1.00
O1726  O     0.69209   0.79832   0.46871   0.00000  Uiso   1.00
O1727  O     0.88442   0.61724   0.63048   0.00000  Uiso   1.00
O1728  O     0.92787   0.68151   0.61160   0.00000  Uiso   1.00
O1729  O     0.85098   0.69078   0.60208   0.00000  Uiso   1.00
O1730  O     0.62864   0.73974   0.53963   0.00000  Uiso   1.00
O1731  O     0.95420   0.79581   0.53821   0.00000  Uiso   1.00
O1732  O     0.62476   0.69974   0.61190   0.00000  Uiso   1.00
O1733  O     0.69229   0.69530   0.56841   0.00000  Uiso   1.00
O1734  O     0.91551   0.86716   0.37058   0.00000  Uiso   1.00
O1735  O     0.90759   0.79095   0.39990   0.00000  Uiso   1.00
O1736  O     0.84269   0.83605   0.38064   0.00000  Uiso   1.00
O1737  O     0.87857   0.75345   0.54712   0.00000  Uiso   1.00
O1738  O     0.88172   0.79595   0.61415   0.00000  Uiso   1.00
O1739  O     0.81275   0.79427   0.56912   0.00000  Uiso   1.00
O1740  O     0.62420   0.64674   0.37050   0.00000  Uiso   1.00
O1741  O     0.58840   0.71091   0.39509   0.00000  Uiso   1.00
O1742  O     0.54581   0.70419   0.46179   0.00000  Uiso   1.00
O1743  O     0.66584   0.70205   0.41553   0.00000  Uiso   1.00
O1744  O     0.64280   0.96124   0.39994   0.00000  Uiso   1.00
O1745  O     0.60953   0.89262   0.37779   0.00000  Uiso   1.00
O1746  O     0.57176   0.94065   0.43289   0.00000  Uiso   1.00
O1747  O     0.93719   0.55829   0.58313   0.00000  Uiso   1.00
O1748  O     0.86935   0.53217   0.60512   0.00000  Uiso   1.00
O1749  O     0.90030   0.50365   0.53264   0.00000  Uiso   1.00
O1750  O     0.84191   0.56941   0.38593   0.00000  Uiso   1.00
O1751  O     0.89502   0.62555   0.38188   0.00000  Uiso   1.00
O1752  O     0.91160   0.55240   0.42701   0.00000  Uiso   1.00
O1753  O     0.95420   0.70419   0.46179   0.00000  Uiso   1.00
O1754  O     0.58560   0.92577   0.60877   0.00000  Uiso   1.00
O1755  O     0.65420   0.95837   0.60271   0.00000  Uiso   1.00
O1756  O     0.59846   0.98167   0.54301   0.00000  Uiso   1.00
O1757  O     0.84948   0.95035   0.59737   0.00000  Uiso   1.00
O1758  O     0.83974   0.87264   0.62504   0.00000  Uiso   1.00
O1759  O     0.91251   0.90102   0.61159   0.00000  Uiso   1.00
O1760  O     0.57889   0.57487   0.39735   0.00000  Uiso   1.00
O1761  O     0.65004   0.54979   0.39416   0.00000  Uiso   1.00
O1762  O     0.60349   0.51651   0.45681   0.00000  Uiso   1.00
O1763  O     0.67709   0.55728   0.61042   0.00000  Uiso   1.00
O1764  O     0.54581   0.79581   0.53821   0.00000  Uiso   1.00
O1765  O     0.62895   0.61454   0.62835   0.00000  Uiso   1.00
O1766  O     0.60094   0.54449   0.59498   0.00000  Uiso   1.00
O1767  O     0.92074   0.94879   0.41164   0.00000  Uiso   1.00
O1768  O     0.85674   0.92958   0.37321   0.00000  Uiso   1.00
O1769  O     0.85559   0.99161   0.42868   0.00000  Uiso   1.00
O1770  O     0.54581   0.79581   0.46179   0.00000  Uiso   1.00
O1771  O     0.95420   0.70419   0.53821   0.00000  Uiso   1.00
O1772  O     0.79581   0.95419   0.53821   0.00000  Uiso   1.00
S1773  S     0.85583   0.70353   0.43410   0.00000  Uiso   1.00
S1774  S     0.89499   0.54644   0.56607   0.00000  Uiso   1.00
S1775  S     0.87550   0.59075   0.41193   0.00000  Uiso   1.00
S1776  S     0.61822   0.94082   0.57665   0.00000  Uiso   1.00
S1777  S     0.86345   0.90311   0.59393   0.00000  Uiso   1.00
S1778  S     0.61618   0.56125   0.42479   0.00000  Uiso   1.00
S1779  S     0.63929   0.58195   0.59454   0.00000  Uiso   1.00
S1780  S     0.87505   0.94253   0.41685   0.00000  Uiso   1.00
S1781  S     0.62034   0.82500   0.59447   0.00000  Uiso   1.00
S1782  S     0.64565   0.80397   0.44324   0.00000  Uiso   1.00
S1783  S     0.89067   0.65586   0.59766   0.00000  Uiso   1.00
S1784  S     0.64070   0.69779   0.56574   0.00000  Uiso   1.00
S1785  S     0.89081   0.83740   0.40142   0.00000  Uiso   1.00
S1786  S     0.86451   0.79514   0.56769   0.00000  Uiso   1.00
S1787  S     0.62013   0.67620   0.40855   0.00000  Uiso   1.00
S1788  S     0.61725   0.92196   0.41590   0.00000  Uiso   1.00
Zn1789 Zn    0.50000   0.75000   0.55104   0.00000  Uiso   1.00
Zn1790 Zn    0.50000   0.75000   0.44896   0.00000  Uiso   1.00
Zn1791 Zn    0.75000   0.50000   0.55104   0.00000  Uiso   1.00
Zn1792 Zn    0.75000   0.50000   0.44896   0.00000  Uiso   1.00
C1793  C     0.06188   0.19226   0.83340   0.00000  Uiso   1.00
C1794  C     0.00491   0.21110   0.97874   0.00000  Uiso   1.00
C1795  C     0.49663   0.21095   0.69171   0.00000  Uiso   1.00
C1796  C     0.49725   0.28948   0.97451   0.00000  Uiso   1.00
C1797  C     0.25291   0.03977   0.68922   0.00000  Uiso   1.00
C1798  C     0.24599   0.46062   0.97796   0.00000  Uiso   1.00
C1799  C     0.24352   0.46078   0.69203   0.00000  Uiso   1.00
C1800  C     0.25711   0.03956   0.97495   0.00000  Uiso   1.00
C1801  C     0.37606   0.15721   0.79933   0.00000  Uiso   1.00
C1802  C     0.10988   0.35829   0.87751   0.00000  Uiso   1.00
C1803  C     0.12050   0.34864   0.79953   0.00000  Uiso   1.00
C1804  C     0.43805   0.30744   0.83195   0.00000  Uiso   1.00
C1805  C     0.39275   0.13542   0.87596   0.00000  Uiso   1.00
C1806  C     0.12118   0.15173   0.87042   0.00000  Uiso   1.00
C1807  C     0.38863   0.36002   0.78911   0.00000  Uiso   1.00
C1808  C     0.37981   0.34278   0.86769   0.00000  Uiso   1.00
C1809  C     0.10971   0.14297   0.79174   0.00000  Uiso   1.00
C1810  C     0.13946   0.39021   0.79471   0.00000  Uiso   1.00
C1811  C     0.37319   0.09395   0.87016   0.00000  Uiso   1.00
C1812  C     0.35769   0.11560   0.79337   0.00000  Uiso   1.00
C1813  C     0.13226   0.39855   0.87413   0.00000  Uiso   1.00
C1814  C     0.35962   0.38329   0.87273   0.00000  Uiso   1.00
C1815  C     0.43747   0.19290   0.83422   0.00000  Uiso   1.00
C1816  C     0.13138   0.10270   0.79489   0.00000  Uiso   1.00
C1817  C     0.14279   0.11110   0.87432   0.00000  Uiso   1.00
C1818  C     0.36660   0.40023   0.79296   0.00000  Uiso   1.00
C1819  C     0.09813   0.33802   0.83741   0.00000  Uiso   1.00
C1820  C     0.39999   0.16384   0.83762   0.00000  Uiso   1.00
C1821  C     0.40064   0.33564   0.82860   0.00000  Uiso   1.00
C1822  C     0.09843   0.16259   0.83166   0.00000  Uiso   1.00
C1823  C     0.34954   0.08762   0.83132   0.00000  Uiso   1.00
C1824  C     0.15140   0.41170   0.83367   0.00000  Uiso   1.00
C1825  C     0.15252   0.08944   0.83455   0.00000  Uiso   1.00
C1826  C     0.06167   0.30809   0.83399   0.00000  Uiso   1.00
C1827  C     0.34824   0.41023   0.83423   0.00000  Uiso   1.00
C1828  C     0.03169   0.32789   0.70404   0.00000  Uiso   1.00
C1829  C     0.00959   0.36213   0.73192   0.00000  Uiso   1.00
C1830  C     0.00416   0.40871   0.70881   0.00000  Uiso   1.00
C1831  C     0.02848   0.17117   0.96320   0.00000  Uiso   1.00
C1832  C     0.00333   0.13559   0.93938   0.00000  Uiso   1.00
C1833  C     0.03002   0.09650   0.92899   0.00000  Uiso   1.00
C1834  C     0.47682   0.16892   0.71184   0.00000  Uiso   1.00
C1835  C     0.00614   0.13390   0.73410   0.00000  Uiso   1.00
C1836  C     0.49169   0.11431   0.77902   0.00000  Uiso   1.00
C1837  C     0.31197   0.44163   0.83406   0.00000  Uiso   1.00
C1838  C     0.47976   0.33320   0.95300   0.00000  Uiso   1.00
C1839  C     0.00765   0.36144   0.92138   0.00000  Uiso   1.00
C1840  C     0.49667   0.41112   0.91553   0.00000  Uiso   1.00
C1841  C     0.25151   0.08430   0.71270   0.00000  Uiso   1.00
C1842  C     0.21505   0.11496   0.69913   0.00000  Uiso   1.00
C1843  C     0.22808   0.16342   0.68802   0.00000  Uiso   1.00
C1844  C     0.25975   0.41661   0.96008   0.00000  Uiso   1.00
C1845  C     0.22798   0.38381   0.94142   0.00000  Uiso   1.00
C1846  C     0.23994   0.33482   0.95292   0.00000  Uiso   1.00
C1847  C     0.22880   0.41643   0.71512   0.00000  Uiso   1.00
C1848  C     0.18814   0.05806   0.83319   0.00000  Uiso   1.00
C1849  C     0.26030   0.38881   0.74338   0.00000  Uiso   1.00
C1850  C     0.25670   0.33869   0.73661   0.00000  Uiso   1.00
C1851  C     0.27843   0.08130   0.95286   0.00000  Uiso   1.00
C1852  C     0.25248   0.11291   0.92159   0.00000  Uiso   1.00
C1853  C     0.27576   0.15435   0.90457   0.00000  Uiso   1.00
C1854  C     0.18787   0.44226   0.83344   0.00000  Uiso   1.00
C1855  C     0.31225   0.05780   0.83281   0.00000  Uiso   1.00
C1856  C     0.00557   0.28907   0.68808   0.00000  Uiso   1.00
H1857  H     0.03200   0.41925   0.69007   0.00000  Uiso   1.00
H1858  H     0.01222   0.07151   0.91055   0.00000  Uiso   1.00
H1859  H     0.47799   0.12176   0.95988   0.00000  Uiso   1.00
H1860  H     0.49099   0.14915   0.90759   0.00000  Uiso   1.00
H1861  H     0.05404   0.18353   0.94313   0.00000  Uiso   1.00
H1862  H     0.04494   0.15429   0.99186   0.00000  Uiso   1.00
H1863  H     0.00261   0.13477   0.80633   0.00000  Uiso   1.00
H1864  H     0.45773   0.11257   0.78027   0.00000  Uiso   1.00
H1865  H     0.00441   0.08007   0.78530   0.00000  Uiso   1.00
H1866  H     0.00847   0.10572   0.71163   0.00000  Uiso   1.00
H1867  H     0.03736   0.14781   0.73803   0.00000  Uiso   1.00
H1868  H     0.47714   0.41066   0.68627   0.00000  Uiso   1.00
H1869  H     0.45013   0.17721   0.73073   0.00000  Uiso   1.00
H1870  H     0.46036   0.15210   0.68517   0.00000  Uiso   1.00
H1871  H     0.46753   0.41567   0.89604   0.00000  Uiso   1.00
H1872  H     0.49485   0.42705   0.94767   0.00000  Uiso   1.00
H1873  H     0.02064   0.42886   0.89548   0.00000  Uiso   1.00
H1874  H     0.04001   0.35849   0.93273   0.00000  Uiso   1.00
H1875  H     0.00384   0.35034   0.88765   0.00000  Uiso   1.00
H1876  H     0.44967   0.32687   0.93756   0.00000  Uiso   1.00
H1877  H     0.47111   0.35445   0.97974   0.00000  Uiso   1.00
H1878  H     0.23646   0.17996   0.71887   0.00000  Uiso   1.00
H1879  H     0.49832   0.43338   0.73413   0.00000  Uiso   1.00
H1880  H     0.25504   0.16528   0.99951   0.00000  Uiso   1.00
H1881  H     0.20211   0.18201   0.67125   0.00000  Uiso   1.00
H1882  H     0.19754   0.10197   0.67108   0.00000  Uiso   1.00
H1883  H     0.19388   0.11581   0.72739   0.00000  Uiso   1.00
H1884  H     0.24932   0.07805   0.74808   0.00000  Uiso   1.00
H1885  H     0.28025   0.10374   0.71040   0.00000  Uiso   1.00
H1886  H     0.27257   0.33090   0.96370   0.00000  Uiso   1.00
H1887  H     0.21995   0.32022   0.97946   0.00000  Uiso   1.00
H1888  H     0.23697   0.31475   0.92323   0.00000  Uiso   1.00
H1889  H     0.19661   0.39033   0.95316   0.00000  Uiso   1.00
H1890  H     0.47950   0.34934   0.74275   0.00000  Uiso   1.00
H1891  H     0.22748   0.38757   0.90485   0.00000  Uiso   1.00
H1892  H     0.28203   0.42308   0.93531   0.00000  Uiso   1.00
H1893  H     0.27832   0.39932   0.98679   0.00000  Uiso   1.00
H1894  H     0.22419   0.32817   0.73608   0.00000  Uiso   1.00
H1895  H     0.26935   0.33061   0.70450   0.00000  Uiso   1.00
H1896  H     0.27370   0.31932   0.76345   0.00000  Uiso   1.00
H1897  H     0.29199   0.39977   0.73569   0.00000  Uiso   1.00
H1898  H     0.25407   0.39270   0.77889   0.00000  Uiso   1.00
H1899  H     0.20116   0.42032   0.73328   0.00000  Uiso   1.00
H1900  H     0.21485   0.39454   0.69070   0.00000  Uiso   1.00
H1901  H     0.02833   0.36736   0.76224   0.00000  Uiso   1.00
H1902  H     0.27807   0.17911   0.93047   0.00000  Uiso   1.00
H1903  H     0.30628   0.14457   0.89264   0.00000  Uiso   1.00
H1904  H     0.25936   0.17045   0.87540   0.00000  Uiso   1.00
H1905  H     0.24538   0.09723   0.89124   0.00000  Uiso   1.00
H1906  H     0.22382   0.12322   0.93729   0.00000  Uiso   1.00
H1907  H     0.29270   0.10282   0.97726   0.00000  Uiso   1.00
H1908  H     0.30681   0.07111   0.93768   0.00000  Uiso   1.00
H1909  H     0.29483   0.22314   0.74458   0.00000  Uiso   1.00
H1910  H     0.17364   0.30685   0.89083   0.00000  Uiso   1.00
H1911  H     0.20117   0.26754   0.79654   0.00000  Uiso   1.00
H1912  H     0.05920   0.31377   0.72174   0.00000  Uiso   1.00
H1913  H     0.34943   0.19604   0.96746   0.00000  Uiso   1.00
H1914  H     0.20085   0.21779   0.92309   0.00000  Uiso   1.00
H1915  H     0.34179   0.31021   0.69469   0.00000  Uiso   1.00
H1916  H     0.30570   0.26623   0.91962   0.00000  Uiso   1.00
H1917  H     0.17941   0.18620   0.77476   0.00000  Uiso   1.00
H1918  H     0.06391   0.46478   0.74399   0.00000  Uiso   1.00
H1919  H     0.37247   0.49848   0.85349   0.00000  Uiso   1.00
H1920  H     0.42589   0.04620   0.73260   0.00000  Uiso   1.00
H1921  H     0.12263   0.00088   0.86937   0.00000  Uiso   1.00
H1922  H     0.41554   0.42525   0.96596   0.00000  Uiso   1.00
H1923  H     0.04614   0.34594   0.67529   0.00000  Uiso   1.00
H1924  H     0.13023   0.00247   0.79826   0.00000  Uiso   1.00
H1925  H     0.10134   0.03045   0.95877   0.00000  Uiso   1.00
H1926  H     0.33245   0.49554   0.74037   0.00000  Uiso   1.00
H1927  H     0.05538   0.10876   0.90753   0.00000  Uiso   1.00
H1928  H     0.04183   0.08026   0.96056   0.00000  Uiso   1.00
N1929  N     0.00000   0.25000   0.95240   0.00000  Uiso   1.00
N1930  N     0.00000   0.25000   0.71427   0.00000  Uiso   1.00
N1931  N     0.25000   0.00000   0.95240   0.00000  Uiso   1.00
N1932  N     0.25000   0.00000   0.71427   0.00000  Uiso   1.00
O1933  O     0.04581   0.20419   0.87154   0.00000  Uiso   1.00
O1934  O     0.20420   0.04581   0.79513   0.00000  Uiso   1.00
O1935  O     0.20420   0.04581   0.87154   0.00000  Uiso   1.00
O1936  O     0.29581   0.45419   0.79513   0.00000  Uiso   1.00
O1937  O     0.20420   0.45419   0.79513   0.00000  Uiso   1.00
O1938  O     0.29581   0.04581   0.87154   0.00000  Uiso   1.00
O1939  O     0.29581   0.04581   0.79513   0.00000  Uiso   1.00
O1940  O     0.20420   0.45419   0.87154   0.00000  Uiso   1.00
O1941  O     0.35966   0.24518   0.79295   0.00000  Uiso   1.00
O1942  O     0.37770   0.21004   0.72421   0.00000  Uiso   1.00
O1943  O     0.30563   0.19396   0.75670   0.00000  Uiso   1.00
O1944  O     0.45420   0.29581   0.79513   0.00000  Uiso   1.00
O1945  O     0.12736   0.35376   0.96645   0.00000  Uiso   1.00
O1946  O     0.08772   0.29113   0.94029   0.00000  Uiso   1.00
O1947  O     0.16431   0.29733   0.92092   0.00000  Uiso   1.00
O1948  O     0.12135   0.26221   0.78627   0.00000  Uiso   1.00
O1949  O     0.15023   0.31161   0.72737   0.00000  Uiso   1.00
O1950  O     0.19209   0.29832   0.80204   0.00000  Uiso   1.00
O1951  O     0.38442   0.11724   0.96381   0.00000  Uiso   1.00
O1952  O     0.42787   0.18151   0.94493   0.00000  Uiso   1.00
O1953  O     0.35098   0.19078   0.93542   0.00000  Uiso   1.00
O1954  O     0.12864   0.23974   0.87297   0.00000  Uiso   1.00
O1955  O     0.45420   0.29581   0.87154   0.00000  Uiso   1.00
O1956  O     0.12476   0.19974   0.94524   0.00000  Uiso   1.00
O1957  O     0.19229   0.19530   0.90174   0.00000  Uiso   1.00
O1958  O     0.41551   0.36716   0.70391   0.00000  Uiso   1.00
O1959  O     0.40759   0.29095   0.73324   0.00000  Uiso   1.00
O1960  O     0.34269   0.33605   0.71398   0.00000  Uiso   1.00
O1961  O     0.37857   0.25345   0.88046   0.00000  Uiso   1.00
O1962  O     0.38172   0.29595   0.94748   0.00000  Uiso   1.00
O1963  O     0.31275   0.29427   0.90246   0.00000  Uiso   1.00
O1964  O     0.12420   0.14674   0.70383   0.00000  Uiso   1.00
O1965  O     0.08840   0.21091   0.72842   0.00000  Uiso   1.00
O1966  O     0.04581   0.20419   0.79513   0.00000  Uiso   1.00
O1967  O     0.16584   0.20205   0.74886   0.00000  Uiso   1.00
O1968  O     0.14280   0.46124   0.73327   0.00000  Uiso   1.00
O1969  O     0.10953   0.39262   0.71112   0.00000  Uiso   1.00
O1970  O     0.07176   0.44065   0.76623   0.00000  Uiso   1.00
O1971  O     0.43719   0.05829   0.91646   0.00000  Uiso   1.00
O1972  O     0.36935   0.03217   0.93845   0.00000  Uiso   1.00
O1973  O     0.40030   0.00365   0.86597   0.00000  Uiso   1.00
O1974  O     0.34191   0.06941   0.71927   0.00000  Uiso   1.00
O1975  O     0.39502   0.12555   0.71521   0.00000  Uiso   1.00
O1976  O     0.41160   0.05240   0.76034   0.00000  Uiso   1.00
O1977  O     0.45420   0.20419   0.79513   0.00000  Uiso   1.00
O1978  O     0.08560   0.42577   0.94210   0.00000  Uiso   1.00
O1979  O     0.15420   0.45837   0.93604   0.00000  Uiso   1.00
O1980  O     0.09846   0.48167   0.87635   0.00000  Uiso   1.00
O1981  O     0.34948   0.45035   0.93070   0.00000  Uiso   1.00
O1982  O     0.33974   0.37264   0.95837   0.00000  Uiso   1.00
O1983  O     0.41251   0.40102   0.94493   0.00000  Uiso   1.00
O1984  O     0.07889   0.07487   0.73068   0.00000  Uiso   1.00
O1985  O     0.15004   0.04979   0.72749   0.00000  Uiso   1.00
O1986  O     0.10349   0.01651   0.79014   0.00000  Uiso   1.00
O1987  O     0.17709   0.05728   0.94375   0.00000  Uiso   1.00
O1988  O     0.04581   0.29581   0.87154   0.00000  Uiso   1.00
O1989  O     0.12895   0.11454   0.96168   0.00000  Uiso   1.00
O1990  O     0.10094   0.04449   0.92831   0.00000  Uiso   1.00
O1991  O     0.42074   0.44879   0.74497   0.00000  Uiso   1.00
O1992  O     0.35674   0.42958   0.70654   0.00000  Uiso   1.00
O1993  O     0.35559   0.49161   0.76201   0.00000  Uiso   1.00
O1994  O     0.04581   0.29581   0.79513   0.00000  Uiso   1.00
O1995  O     0.45420   0.20419   0.87154   0.00000  Uiso   1.00
O1996  O     0.29581   0.45419   0.87154   0.00000  Uiso   1.00
S1997  S     0.35583   0.20353   0.76744   0.00000  Uiso   1.00
S1998  S     0.39499   0.04644   0.89941   0.00000  Uiso   1.00
S1999  S     0.37550   0.09075   0.74526   0.00000  Uiso   1.00
S2000  S     0.11822   0.44082   0.90998   0.00000  Uiso   1.00
S2001  S     0.36345   0.40311   0.92726   0.00000  Uiso   1.00
S2002  S     0.11618   0.06125   0.75813   0.00000  Uiso   1.00
S2003  S     0.13929   0.08195   0.92788   0.00000  Uiso   1.00
S2004  S     0.37505   0.44253   0.75019   0.00000  Uiso   1.00
S2005  S     0.12034   0.32500   0.92780   0.00000  Uiso   1.00
S2006  S     0.14565   0.30397   0.77657   0.00000  Uiso   1.00
S2007  S     0.39067   0.15586   0.93099   0.00000  Uiso   1.00
S2008  S     0.14070   0.19779   0.89907   0.00000  Uiso   1.00
S2009  S     0.39081   0.33740   0.73475   0.00000  Uiso   1.00
S2010  S     0.36451   0.29514   0.90102   0.00000  Uiso   1.00
S2011  S     0.12013   0.17620   0.74188   0.00000  Uiso   1.00
S2012  S     0.11725   0.42196   0.74923   0.00000  Uiso   1.00
Zn2013 Zn    0.00000   0.25000   0.88437   0.00000  Uiso   1.00
Zn2014 Zn    0.00000   0.25000   0.78229   0.00000  Uiso   1.00
Zn2015 Zn    0.25000   0.00000   0.88437   0.00000  Uiso   1.00
Zn2016 Zn    0.25000   0.00000   0.78229   0.00000  Uiso   1.00
C2017  C     0.56188   0.19226   0.83340   0.00000  Uiso   1.00
C2018  C     0.50491   0.21110   0.97874   0.00000  Uiso   1.00
C2019  C     0.99663   0.21095   0.69171   0.00000  Uiso   1.00
C2020  C     0.99725   0.28948   0.97451   0.00000  Uiso   1.00
C2021  C     0.75291   0.03977   0.68922   0.00000  Uiso   1.00
C2022  C     0.74599   0.46062   0.97796   0.00000  Uiso   1.00
C2023  C     0.74352   0.46078   0.69203   0.00000  Uiso   1.00
C2024  C     0.75711   0.03956   0.97495   0.00000  Uiso   1.00
C2025  C     0.87606   0.15721   0.79933   0.00000  Uiso   1.00
C2026  C     0.60988   0.35829   0.87751   0.00000  Uiso   1.00
C2027  C     0.62050   0.34864   0.79953   0.00000  Uiso   1.00
C2028  C     0.93805   0.30744   0.83195   0.00000  Uiso   1.00
C2029  C     0.89275   0.13542   0.87596   0.00000  Uiso   1.00
C2030  C     0.62118   0.15173   0.87042   0.00000  Uiso   1.00
C2031  C     0.88863   0.36002   0.78911   0.00000  Uiso   1.00
C2032  C     0.87981   0.34278   0.86769   0.00000  Uiso   1.00
C2033  C     0.60971   0.14297   0.79174   0.00000  Uiso   1.00
C2034  C     0.63946   0.39021   0.79471   0.00000  Uiso   1.00
C2035  C     0.87319   0.09395   0.87016   0.00000  Uiso   1.00
C2036  C     0.85769   0.11560   0.79337   0.00000  Uiso   1.00
C2037  C     0.63226   0.39855   0.87413   0.00000  Uiso   1.00
C2038  C     0.85962   0.38329   0.87273   0.00000  Uiso   1.00
C2039  C     0.93747   0.19290   0.83422   0.00000  Uiso   1.00
C2040  C     0.63138   0.10270   0.79489   0.00000  Uiso   1.00
C2041  C     0.64279   0.11110   0.87432   0.00000  Uiso   1.00
C2042  C     0.86660   0.40023   0.79296   0.00000  Uiso   1.00
C2043  C     0.59813   0.33802   0.83741   0.00000  Uiso   1.00
C2044  C     0.89999   0.16384   0.83762   0.00000  Uiso   1.00
C2045  C     0.90064   0.33564   0.82860   0.00000  Uiso   1.00
C2046  C     0.59843   0.16259   0.83166   0.00000  Uiso   1.00
C2047  C     0.84954   0.08762   0.83132   0.00000  Uiso   1.00
C2048  C     0.65140   0.41170   0.83367   0.00000  Uiso   1.00
C2049  C     0.65252   0.08944   0.83455   0.00000  Uiso   1.00
C2050  C     0.56167   0.30809   0.83399   0.00000  Uiso   1.00
C2051  C     0.84824   0.41023   0.83423   0.00000  Uiso   1.00
C2052  C     0.53169   0.32789   0.70404   0.00000  Uiso   1.00
C2053  C     0.50959   0.36213   0.73192   0.00000  Uiso   1.00
C2054  C     0.50416   0.40871   0.70881   0.00000  Uiso   1.00
C2055  C     0.52848   0.17117   0.96320   0.00000  Uiso   1.00
C2056  C     0.50333   0.13559   0.93938   0.00000  Uiso   1.00
C2057  C     0.53002   0.09650   0.92899   0.00000  Uiso   1.00
C2058  C     0.97682   0.16892   0.71184   0.00000  Uiso   1.00
C2059  C     0.50614   0.13390   0.73410   0.00000  Uiso   1.00
C2060  C     0.99169   0.11431   0.77902   0.00000  Uiso   1.00
C2061  C     0.81197   0.44163   0.83406   0.00000  Uiso   1.00
C2062  C     0.97976   0.33320   0.95300   0.00000  Uiso   1.00
C2063  C     0.50765   0.36144   0.92138   0.00000  Uiso   1.00
C2064  C     0.99667   0.41112   0.91553   0.00000  Uiso   1.00
C2065  C     0.75151   0.08430   0.71270   0.00000  Uiso   1.00
C2066  C     0.71505   0.11496   0.69913   0.00000  Uiso   1.00
C2067  C     0.72808   0.16342   0.68802   0.00000  Uiso   1.00
C2068  C     0.75975   0.41661   0.96008   0.00000  Uiso   1.00
C2069  C     0.72798   0.38381   0.94142   0.00000  Uiso   1.00
C2070  C     0.73994   0.33482   0.95292   0.00000  Uiso   1.00
C2071  C     0.72880   0.41643   0.71512   0.00000  Uiso   1.00
C2072  C     0.68814   0.05806   0.83319   0.00000  Uiso   1.00
C2073  C     0.76030   0.38881   0.74338   0.00000  Uiso   1.00
C2074  C     0.75670   0.33869   0.73661   0.00000  Uiso   1.00
C2075  C     0.77843   0.08130   0.95286   0.00000  Uiso   1.00
C2076  C     0.75248   0.11291   0.92159   0.00000  Uiso   1.00
C2077  C     0.77576   0.15435   0.90457   0.00000  Uiso   1.00
C2078  C     0.68787   0.44226   0.83344   0.00000  Uiso   1.00
C2079  C     0.81225   0.05780   0.83281   0.00000  Uiso   1.00
C2080  C     0.50557   0.28907   0.68808   0.00000  Uiso   1.00
H2081  H     0.53200   0.41925   0.69007   0.00000  Uiso   1.00
H2082  H     0.51222   0.07151   0.91055   0.00000  Uiso   1.00
H2083  H     0.97799   0.12176   0.95988   0.00000  Uiso   1.00
H2084  H     0.99099   0.14915   0.90759   0.00000  Uiso   1.00
H2085  H     0.55404   0.18353   0.94313   0.00000  Uiso   1.00
H2086  H     0.54494   0.15429   0.99186   0.00000  Uiso   1.00
H2087  H     0.50261   0.13477   0.80633   0.00000  Uiso   1.00
H2088  H     0.95773   0.11257   0.78027   0.00000  Uiso   1.00
H2089  H     0.50441   0.08007   0.78530   0.00000  Uiso   1.00
H2090  H     0.50847   0.10572   0.71163   0.00000  Uiso   1.00
H2091  H     0.53736   0.14781   0.73803   0.00000  Uiso   1.00
H2092  H     0.97714   0.41066   0.68627   0.00000  Uiso   1.00
H2093  H     0.95013   0.17721   0.73073   0.00000  Uiso   1.00
H2094  H     0.96036   0.15210   0.68517   0.00000  Uiso   1.00
H2095  H     0.96753   0.41567   0.89604   0.00000  Uiso   1.00
H2096  H     0.99485   0.42705   0.94767   0.00000  Uiso   1.00
H2097  H     0.52064   0.42886   0.89548   0.00000  Uiso   1.00
H2098  H     0.54001   0.35849   0.93273   0.00000  Uiso   1.00
H2099  H     0.50384   0.35034   0.88765   0.00000  Uiso   1.00
H2100  H     0.94967   0.32687   0.93756   0.00000  Uiso   1.00
H2101  H     0.97111   0.35445   0.97974   0.00000  Uiso   1.00
H2102  H     0.73646   0.17996   0.71887   0.00000  Uiso   1.00
H2103  H     0.99832   0.43338   0.73413   0.00000  Uiso   1.00
H2104  H     0.75504   0.16528   0.99951   0.00000  Uiso   1.00
H2105  H     0.70211   0.18201   0.67125   0.00000  Uiso   1.00
H2106  H     0.69754   0.10197   0.67108   0.00000  Uiso   1.00
H2107  H     0.69388   0.11581   0.72739   0.00000  Uiso   1.00
H2108  H     0.74932   0.07805   0.74808   0.00000  Uiso   1.00
H2109  H     0.78025   0.10374   0.71040   0.00000  Uiso   1.00
H2110  H     0.77257   0.33090   0.96370   0.00000  Uiso   1.00
H2111  H     0.71995   0.32022   0.97946   0.00000  Uiso   1.00
H2112  H     0.73697   0.31475   0.92323   0.00000  Uiso   1.00
H2113  H     0.69661   0.39033   0.95316   0.00000  Uiso   1.00
H2114  H     0.97950   0.34934   0.74275   0.00000  Uiso   1.00
H2115  H     0.72748   0.38757   0.90485   0.00000  Uiso   1.00
H2116  H     0.78203   0.42308   0.93531   0.00000  Uiso   1.00
H2117  H     0.77832   0.39932   0.98679   0.00000  Uiso   1.00
H2118  H     0.72419   0.32817   0.73608   0.00000  Uiso   1.00
H2119  H     0.76935   0.33061   0.70450   0.00000  Uiso   1.00
H2120  H     0.77370   0.31932   0.76345   0.00000  Uiso   1.00
H2121  H     0.79199   0.39977   0.73569   0.00000  Uiso   1.00
H2122  H     0.75407   0.39270   0.77889   0.00000  Uiso   1.00
H2123  H     0.70116   0.42032   0.73328   0.00000  Uiso   1.00
H2124  H     0.71485   0.39454   0.69070   0.00000  Uiso   1.00
H2125  H     0.52833   0.36736   0.76224   0.00000  Uiso   1.00
H2126  H     0.77807   0.17911   0.93047   0.00000  Uiso   1.00
H2127  H     0.80628   0.14457   0.89264   0.00000  Uiso   1.00
H2128  H     0.75936   0.17045   0.87540   0.00000  Uiso   1.00
H2129  H     0.74538   0.09723   0.89124   0.00000  Uiso   1.00
H2130  H     0.72382   0.12322   0.93729   0.00000  Uiso   1.00
H2131  H     0.79270   0.10282   0.97726   0.00000  Uiso   1.00
H2132  H     0.80681   0.07111   0.93768   0.00000  Uiso   1.00
H2133  H     0.79483   0.22314   0.74458   0.00000  Uiso   1.00
H2134  H     0.67364   0.30685   0.89083   0.00000  Uiso   1.00
H2135  H     0.70117   0.26754   0.79654   0.00000  Uiso   1.00
H2136  H     0.55920   0.31377   0.72174   0.00000  Uiso   1.00
H2137  H     0.84943   0.19604   0.96746   0.00000  Uiso   1.00
H2138  H     0.70085   0.21779   0.92309   0.00000  Uiso   1.00
H2139  H     0.84179   0.31021   0.69469   0.00000  Uiso   1.00
H2140  H     0.80570   0.26623   0.91962   0.00000  Uiso   1.00
H2141  H     0.67941   0.18620   0.77476   0.00000  Uiso   1.00
H2142  H     0.56391   0.46478   0.74399   0.00000  Uiso   1.00
H2143  H     0.87247   0.49848   0.85349   0.00000  Uiso   1.00
H2144  H     0.92589   0.04620   0.73260   0.00000  Uiso   1.00
H2145  H     0.62263   0.00088   0.86937   0.00000  Uiso   1.00
H2146  H     0.91554   0.42525   0.96596   0.00000  Uiso   1.00
H2147  H     0.54614   0.34594   0.67529   0.00000  Uiso   1.00
H2148  H     0.63023   0.00247   0.79826   0.00000  Uiso   1.00
H2149  H     0.60134   0.03045   0.95877   0.00000  Uiso   1.00
H2150  H     0.83245   0.49554   0.74037   0.00000  Uiso   1.00
H2151  H     0.55538   0.10876   0.90753   0.00000  Uiso   1.00
H2152  H     0.54183   0.08026   0.96056   0.00000  Uiso   1.00
N2153  N     0.50000   0.25000   0.95240   0.00000  Uiso   1.00
N2154  N     0.50000   0.25000   0.71427   0.00000  Uiso   1.00
N2155  N     0.75000   0.00000   0.95240   0.00000  Uiso   1.00
N2156  N     0.75000   0.00000   0.71427   0.00000  Uiso   1.00
O2157  O     0.54581   0.20419   0.87154   0.00000  Uiso   1.00
O2158  O     0.70420   0.04581   0.79513   0.00000  Uiso   1.00
O2159  O     0.70420   0.04581   0.87154   0.00000  Uiso   1.00
O2160  O     0.79581   0.45419   0.79513   0.00000  Uiso   1.00
O2161  O     0.70420   0.45419   0.79513   0.00000  Uiso   1.00
O2162  O     0.79581   0.04581   0.87154   0.00000  Uiso   1.00
O2163  O     0.79581   0.04581   0.79513   0.00000  Uiso   1.00
O2164  O     0.70420   0.45419   0.87154   0.00000  Uiso   1.00
O2165  O     0.85966   0.24518   0.79295   0.00000  Uiso   1.00
O2166  O     0.87770   0.21004   0.72421   0.00000  Uiso   1.00
O2167  O     0.80563   0.19396   0.75670   0.00000  Uiso   1.00
O2168  O     0.95420   0.29581   0.79513   0.00000  Uiso   1.00
O2169  O     0.62736   0.35376   0.96645   0.00000  Uiso   1.00
O2170  O     0.58772   0.29113   0.94029   0.00000  Uiso   1.00
O2171  O     0.66431   0.29733   0.92092   0.00000  Uiso   1.00
O2172  O     0.62135   0.26221   0.78627   0.00000  Uiso   1.00
O2173  O     0.65023   0.31161   0.72737   0.00000  Uiso   1.00
O2174  O     0.69209   0.29832   0.80204   0.00000  Uiso   1.00
O2175  O     0.88442   0.11724   0.96381   0.00000  Uiso   1.00
O2176  O     0.92787   0.18151   0.94493   0.00000  Uiso   1.00
O2177  O     0.85098   0.19078   0.93542   0.00000  Uiso   1.00
O2178  O     0.62864   0.23974   0.87297   0.00000  Uiso   1.00
O2179  O     0.95420   0.29581   0.87154   0.00000  Uiso   1.00
O2180  O     0.62476   0.19974   0.94524   0.00000  Uiso   1.00
O2181  O     0.69229   0.19530   0.90174   0.00000  Uiso   1.00
O2182  O     0.91551   0.36716   0.70391   0.00000  Uiso   1.00
O2183  O     0.90759   0.29095   0.73324   0.00000  Uiso   1.00
O2184  O     0.84269   0.33605   0.71398   0.00000  Uiso   1.00
O2185  O     0.87857   0.25345   0.88046   0.00000  Uiso   1.00
O2186  O     0.88172   0.29595   0.94748   0.00000  Uiso   1.00
O2187  O     0.81275   0.29427   0.90246   0.00000  Uiso   1.00
O2188  O     0.62420   0.14674   0.70383   0.00000  Uiso   1.00
O2189  O     0.58840   0.21091   0.72842   0.00000  Uiso   1.00
O2190  O     0.54581   0.20419   0.79513   0.00000  Uiso   1.00
O2191  O     0.66584   0.20205   0.74886   0.00000  Uiso   1.00
O2192  O     0.64280   0.46124   0.73327   0.00000  Uiso   1.00
O2193  O     0.60953   0.39262   0.71112   0.00000  Uiso   1.00
O2194  O     0.57176   0.44065   0.76623   0.00000  Uiso   1.00
O2195  O     0.93719   0.05829   0.91646   0.00000  Uiso   1.00
O2196  O     0.86935   0.03217   0.93845   0.00000  Uiso   1.00
O2197  O     0.90030   0.00365   0.86597   0.00000  Uiso   1.00
O2198  O     0.84191   0.06941   0.71927   0.00000  Uiso   1.00
O2199  O     0.89502   0.12555   0.71521   0.00000  Uiso   1.00
O2200  O     0.91160   0.05240   0.76034   0.00000  Uiso   1.00
O2201  O     0.95420   0.20419   0.79513   0.00000  Uiso   1.00
O2202  O     0.58560   0.42577   0.94210   0.00000  Uiso   1.00
O2203  O     0.65420   0.45837   0.93604   0.00000  Uiso   1.00
O2204  O     0.59846   0.48167   0.87635   0.00000  Uiso   1.00
O2205  O     0.84948   0.45035   0.93070   0.00000  Uiso   1.00
O2206  O     0.83974   0.37264   0.95837   0.00000  Uiso   1.00
O2207  O     0.91251   0.40102   0.94493   0.00000  Uiso   1.00
O2208  O     0.57889   0.07487   0.73068   0.00000  Uiso   1.00
O2209  O     0.65004   0.04979   0.72749   0.00000  Uiso   1.00
O2210  O     0.60349   0.01651   0.79014   0.00000  Uiso   1.00
O2211  O     0.67709   0.05728   0.94375   0.00000  Uiso   1.00
O2212  O     0.54581   0.29581   0.87154   0.00000  Uiso   1.00
O2213  O     0.62895   0.11454   0.96168   0.00000  Uiso   1.00
O2214  O     0.60094   0.04449   0.92831   0.00000  Uiso   1.00
O2215  O     0.92074   0.44879   0.74497   0.00000  Uiso   1.00
O2216  O     0.85674   0.42958   0.70654   0.00000  Uiso   1.00
O2217  O     0.85559   0.49161   0.76201   0.00000  Uiso   1.00
O2218  O     0.54581   0.29581   0.79513   0.00000  Uiso   1.00
O2219  O     0.95420   0.20419   0.87154   0.00000  Uiso   1.00
O2220  O     0.79581   0.45419   0.87154   0.00000  Uiso   1.00
S2221  S     0.85583   0.20353   0.76744   0.00000  Uiso   1.00
S2222  S     0.89499   0.04644   0.89941   0.00000  Uiso   1.00
S2223  S     0.87550   0.09075   0.74526   0.00000  Uiso   1.00
S2224  S     0.61822   0.44082   0.90998   0.00000  Uiso   1.00
S2225  S     0.86345   0.40311   0.92726   0.00000  Uiso   1.00
S2226  S     0.61618   0.06125   0.75813   0.00000  Uiso   1.00
S2227  S     0.63929   0.08195   0.92788   0.00000  Uiso   1.00
S2228  S     0.87505   0.44253   0.75019   0.00000  Uiso   1.00
S2229  S     0.62034   0.32500   0.92780   0.00000  Uiso   1.00
S2230  S     0.64565   0.30397   0.77657   0.00000  Uiso   1.00
S2231  S     0.89067   0.15586   0.93099   0.00000  Uiso   1.00
S2232  S     0.64070   0.19779   0.89907   0.00000  Uiso   1.00
S2233  S     0.89081   0.33740   0.73475   0.00000  Uiso   1.00
S2234  S     0.86451   0.29514   0.90102   0.00000  Uiso   1.00
S2235  S     0.62013   0.17620   0.74188   0.00000  Uiso   1.00
S2236  S     0.61725   0.42196   0.74923   0.00000  Uiso   1.00
Zn2237 Zn    0.50000   0.25000   0.88437   0.00000  Uiso   1.00
Zn2238 Zn    0.50000   0.25000   0.78229   0.00000  Uiso   1.00
Zn2239 Zn    0.75000   0.00000   0.88437   0.00000  Uiso   1.00
Zn2240 Zn    0.75000   0.00000   0.78229   0.00000  Uiso   1.00
C2241  C     0.06188   0.69226   0.83340   0.00000  Uiso   1.00
C2242  C     0.00491   0.71110   0.97874   0.00000  Uiso   1.00
C2243  C     0.49663   0.71095   0.69171   0.00000  Uiso   1.00
C2244  C     0.49725   0.78948   0.97451   0.00000  Uiso   1.00
C2245  C     0.25291   0.53977   0.68922   0.00000  Uiso   1.00
C2246  C     0.24599   0.96062   0.97796   0.00000  Uiso   1.00
C2247  C     0.24352   0.96078   0.69203   0.00000  Uiso   1.00
C2248  C     0.25711   0.53956   0.97495   0.00000  Uiso   1.00
C2249  C     0.37606   0.65721   0.79933   0.00000  Uiso   1.00
C2250  C     0.10988   0.85829   0.87751   0.00000  Uiso   1.00
C2251  C     0.12050   0.84864   0.79953   0.00000  Uiso   1.00
C2252  C     0.43805   0.80744   0.83195   0.00000  Uiso   1.00
C2253  C     0.39275   0.63542   0.87596   0.00000  Uiso   1.00
C2254  C     0.12118   0.65173   0.87042   0.00000  Uiso   1.00
C2255  C     0.38863   0.86002   0.78911   0.00000  Uiso   1.00
C2256  C     0.37981   0.84278   0.86769   0.00000  Uiso   1.00
C2257  C     0.10971   0.64297   0.79174   0.00000  Uiso   1.00
C2258  C     0.13946   0.89021   0.79471   0.00000  Uiso   1.00
C2259  C     0.37319   0.59395   0.87016   0.00000  Uiso   1.00
C2260  C     0.35769   0.61560   0.79337   0.00000  Uiso   1.00
C2261  C     0.13226   0.89855   0.87413   0.00000  Uiso   1.00
C2262  C     0.35962   0.88329   0.87273   0.00000  Uiso   1.00
C2263  C     0.43747   0.69290   0.83422   0.00000  Uiso   1.00
C2264  C     0.13138   0.60270   0.79489   0.00000  Uiso   1.00
C2265  C     0.14279   0.61110   0.87432   0.00000  Uiso   1.00
C2266  C     0.36660   0.90023   0.79296   0.00000  Uiso   1.00
C2267  C     0.09813   0.83802   0.83741   0.00000  Uiso   1.00
C2268  C     0.39999   0.66384   0.83762   0.00000  Uiso   1.00
C2269  C     0.40064   0.83564   0.82860   0.00000  Uiso   1.00
C2270  C     0.09843   0.66259   0.83166   0.00000  Uiso   1.00
C2271  C     0.34954   0.58762   0.83132   0.00000  Uiso   1.00
C2272  C     0.15140   0.91170   0.83367   0.00000  Uiso   1.00
C2273  C     0.15252   0.58944   0.83455   0.00000  Uiso   1.00
C2274  C     0.06167   0.80809   0.83399   0.00000  Uiso   1.00
C2275  C     0.34824   0.91023   0.83423   0.00000  Uiso   1.00
C2276  C     0.03169   0.82789   0.70404   0.00000  Uiso   1.00
C2277  C     0.00959   0.86213   0.73192   0.00000  Uiso   1.00
C2278  C     0.00416   0.90871   0.70881   0.00000  Uiso   1.00
C2279  C     0.02848   0.67117   0.96320   0.00000  Uiso   1.00
C2280  C     0.00333   0.63559   0.93938   0.00000  Uiso   1.00
C2281  C     0.03002   0.59650   0.92899   0.00000  Uiso   1.00
C2282  C     0.47682   0.66892   0.71184   0.00000  Uiso   1.00
C2283  C     0.00614   0.63390   0.73410   0.00000  Uiso   1.00
C2284  C     0.49169   0.61431   0.77902   0.00000  Uiso   1.00
C2285  C     0.31197   0.94163   0.83406   0.00000  Uiso   1.00
C2286  C     0.47976   0.83320   0.95300   0.00000  Uiso   1.00
C2287  C     0.00765   0.86144   0.92138   0.00000  Uiso   1.00
C2288  C     0.49667   0.91112   0.91553   0.00000  Uiso   1.00
C2289  C     0.25151   0.58430   0.71270   0.00000  Uiso   1.00
C2290  C     0.21505   0.61496   0.69913   0.00000  Uiso   1.00
C2291  C     0.22808   0.66342   0.68802   0.00000  Uiso   1.00
C2292  C     0.25975   0.91661   0.96008   0.00000  Uiso   1.00
C2293  C     0.22798   0.88381   0.94142   0.00000  Uiso   1.00
C2294  C     0.23994   0.83482   0.95292   0.00000  Uiso   1.00
C2295  C     0.22880   0.91643   0.71512   0.00000  Uiso   1.00
C2296  C     0.18814   0.55806   0.83319   0.00000  Uiso   1.00
C2297  C     0.26030   0.88881   0.74338   0.00000  Uiso   1.00
C2298  C     0.25670   0.83869   0.73661   0.00000  Uiso   1.00
C2299  C     0.27843   0.58130   0.95286   0.00000  Uiso   1.00
C2300  C     0.25248   0.61291   0.92159   0.00000  Uiso   1.00
C2301  C     0.27576   0.65435   0.90457   0.00000  Uiso   1.00
C2302  C     0.18787   0.94226   0.83344   0.00000  Uiso   1.00
C2303  C     0.31225   0.55780   0.83281   0.00000  Uiso   1.00
C2304  C     0.00557   0.78907   0.68808   0.00000  Uiso   1.00
H2305  H     0.03200   0.91925   0.69007   0.00000  Uiso   1.00
H2306  H     0.01222   0.57151   0.91055   0.00000  Uiso   1.00
H2307  H     0.47799   0.62176   0.95988   0.00000  Uiso   1.00
H2308  H     0.49099   0.64915   0.90759   0.00000  Uiso   1.00
H2309  H     0.05404   0.68353   0.94313   0.00000  Uiso   1.00
H2310  H     0.04494   0.65429   0.99186   0.00000  Uiso   1.00
H2311  H     0.00261   0.63477   0.80633   0.00000  Uiso   1.00
H2312  H     0.45773   0.61257   0.78027   0.00000  Uiso   1.00
H2313  H     0.00441   0.58007   0.78530   0.00000  Uiso   1.00
H2314  H     0.00847   0.60572   0.71163   0.00000  Uiso   1.00
H2315  H     0.03736   0.64781   0.73803   0.00000  Uiso   1.00
H2316  H     0.47714   0.91066   0.68627   0.00000  Uiso   1.00
H2317  H     0.45013   0.67721   0.73073   0.00000  Uiso   1.00
H2318  H     0.46036   0.65210   0.68517   0.00000  Uiso   1.00
H2319  H     0.46753   0.91567   0.89604   0.00000  Uiso   1.00
H2320  H     0.49485   0.92705   0.94767   0.00000  Uiso   1.00
H2321  H     0.02064   0.92886   0.89548   0.00000  Uiso   1.00
H2322  H     0.04001   0.85849   0.93273   0.00000  Uiso   1.00
H2323  H     0.00384   0.85034   0.88765   0.00000  Uiso   1.00
H2324  H     0.44967   0.82687   0.93756   0.00000  Uiso   1.00
H2325  H     0.47111   0.85445   0.97974   0.00000  Uiso   1.00
H2326  H     0.23646   0.67996   0.71887   0.00000  Uiso   1.00
H2327  H     0.49832   0.93338   0.73413   0.00000  Uiso   1.00
H2328  H     0.25504   0.66528   0.99951   0.00000  Uiso   1.00
H2329  H     0.20211   0.68201   0.67125   0.00000  Uiso   1.00
H2330  H     0.19754   0.60197   0.67108   0.00000  Uiso   1.00
H2331  H     0.19388   0.61581   0.72739   0.00000  Uiso   1.00
H2332  H     0.24932   0.57805   0.74808   0.00000  Uiso   1.00
H2333  H     0.28025   0.60374   0.71040   0.00000  Uiso   1.00
H2334  H     0.27257   0.83090   0.96370   0.00000  Uiso   1.00
H2335  H     0.21995   0.82022   0.97946   0.00000  Uiso   1.00
H2336  H     0.23697   0.81475   0.92323   0.00000  Uiso   1.00
H2337  H     0.19661   0.89033   0.95316   0.00000  Uiso   1.00
H2338  H     0.47950   0.84934   0.74275   0.00000  Uiso   1.00
H2339  H     0.22748   0.88757   0.90485   0.00000  Uiso   1.00
H2340  H     0.28203   0.92308   0.93531   0.00000  Uiso   1.00
H2341  H     0.27832   0.89932   0.98679   0.00000  Uiso   1.00
H2342  H     0.22419   0.82817   0.73608   0.00000  Uiso   1.00
H2343  H     0.26935   0.83061   0.70450   0.00000  Uiso   1.00
H2344  H     0.27370   0.81932   0.76345   0.00000  Uiso   1.00
H2345  H     0.29199   0.89977   0.73569   0.00000  Uiso   1.00
H2346  H     0.25407   0.89270   0.77889   0.00000  Uiso   1.00
H2347  H     0.20116   0.92032   0.73328   0.00000  Uiso   1.00
H2348  H     0.21485   0.89454   0.69070   0.00000  Uiso   1.00
H2349  H     0.02833   0.86736   0.76224   0.00000  Uiso   1.00
H2350  H     0.27807   0.67911   0.93047   0.00000  Uiso   1.00
H2351  H     0.30628   0.64457   0.89264   0.00000  Uiso   1.00
H2352  H     0.25936   0.67045   0.87540   0.00000  Uiso   1.00
H2353  H     0.24538   0.59723   0.89124   0.00000  Uiso   1.00
H2354  H     0.22382   0.62322   0.93729   0.00000  Uiso   1.00
H2355  H     0.29270   0.60282   0.97726   0.00000  Uiso   1.00
H2356  H     0.30681   0.57111   0.93768   0.00000  Uiso   1.00
H2357  H     0.29483   0.72314   0.74458   0.00000  Uiso   1.00
H2358  H     0.17364   0.80685   0.89083   0.00000  Uiso   1.00
H2359  H     0.20117   0.76754   0.79654   0.00000  Uiso   1.00
H2360  H     0.05920   0.81377   0.72174   0.00000  Uiso   1.00
H2361  H     0.34943   0.69604   0.96746   0.00000  Uiso   1.00
H2362  H     0.20085   0.71779   0.92309   0.00000  Uiso   1.00
H2363  H     0.34179   0.81021   0.69469   0.00000  Uiso   1.00
H2364  H     0.30570   0.76623   0.91962   0.00000  Uiso   1.00
H2365  H     0.17941   0.68620   0.77476   0.00000  Uiso   1.00
H2366  H     0.06391   0.96478   0.74399   0.00000  Uiso   1.00
H2367  H     0.37247   0.99848   0.85349   0.00000  Uiso   1.00
H2368  H     0.42589   0.54620   0.73260   0.00000  Uiso   1.00
H2369  H     0.12263   0.50088   0.86937   0.00000  Uiso   1.00
H2370  H     0.41554   0.92525   0.96596   0.00000  Uiso   1.00
H2371  H     0.04614   0.84594   0.67529   0.00000  Uiso   1.00
H2372  H     0.13023   0.50247   0.79826   0.00000  Uiso   1.00
H2373  H     0.10134   0.53045   0.95877   0.00000  Uiso   1.00
H2374  H     0.33245   0.99554   0.74037   0.00000  Uiso   1.00
H2375  H     0.05538   0.60876   0.90753   0.00000  Uiso   1.00
H2376  H     0.04183   0.58026   0.96056   0.00000  Uiso   1.00
N2377  N     0.00000   0.75000   0.95240   0.00000  Uiso   1.00
N2378  N     0.00000   0.75000   0.71427   0.00000  Uiso   1.00
N2379  N     0.25000   0.50000   0.95240   0.00000  Uiso   1.00
N2380  N     0.25000   0.50000   0.71427   0.00000  Uiso   1.00
O2381  O     0.04581   0.70419   0.87154   0.00000  Uiso   1.00
O2382  O     0.20420   0.54581   0.79513   0.00000  Uiso   1.00
O2383  O     0.20420   0.54581   0.87154   0.00000  Uiso   1.00
O2384  O     0.29581   0.95419   0.79513   0.00000  Uiso   1.00
O2385  O     0.20420   0.95419   0.79513   0.00000  Uiso   1.00
O2386  O     0.29581   0.54581   0.87154   0.00000  Uiso   1.00
O2387  O     0.29581   0.54581   0.79513   0.00000  Uiso   1.00
O2388  O     0.20420   0.95419   0.87154   0.00000  Uiso   1.00
O2389  O     0.35966   0.74518   0.79295   0.00000  Uiso   1.00
O2390  O     0.37770   0.71004   0.72421   0.00000  Uiso   1.00
O2391  O     0.30563   0.69396   0.75670   0.00000  Uiso   1.00
O2392  O     0.45420   0.79581   0.79513   0.00000  Uiso   1.00
O2393  O     0.12736   0.85376   0.96645   0.00000  Uiso   1.00
O2394  O     0.08772   0.79113   0.94029   0.00000  Uiso   1.00
O2395  O     0.16431   0.79733   0.92092   0.00000  Uiso   1.00
O2396  O     0.12135   0.76221   0.78627   0.00000  Uiso   1.00
O2397  O     0.15023   0.81161   0.72737   0.00000  Uiso   1.00
O2398  O     0.19209   0.79832   0.80204   0.00000  Uiso   1.00
O2399  O     0.38442   0.61724   0.96381   0.00000  Uiso   1.00
O2400  O     0.42787   0.68151   0.94493   0.00000  Uiso   1.00
O2401  O     0.35098   0.69078   0.93542   0.00000  Uiso   1.00
O2402  O     0.12864   0.73974   0.87297   0.00000  Uiso   1.00
O2403  O     0.45420   0.79581   0.87154   0.00000  Uiso   1.00
O2404  O     0.12476   0.69974   0.94524   0.00000  Uiso   1.00
O2405  O     0.19229   0.69530   0.90174   0.00000  Uiso   1.00
O2406  O     0.41551   0.86716   0.70391   0.00000  Uiso   1.00
O2407  O     0.40759   0.79095   0.73324   0.00000  Uiso   1.00
O2408  O     0.34269   0.83605   0.71398   0.00000  Uiso   1.00
O2409  O     0.37857   0.75345   0.88046   0.00000  Uiso   1.00
O2410  O     0.38172   0.79595   0.94748   0.00000  Uiso   1.00
O2411  O     0.31275   0.79427   0.90246   0.00000  Uiso   1.00
O2412  O     0.12420   0.64674   0.70383   0.00000  Uiso   1.00
O2413  O     0.08840   0.71091   0.72842   0.00000  Uiso   1.00
O2414  O     0.04581   0.70419   0.79513   0.00000  Uiso   1.00
O2415  O     0.16584   0.70205   0.74886   0.00000  Uiso   1.00
O2416  O     0.14280   0.96124   0.73327   0.00000  Uiso   1.00
O2417  O     0.10953   0.89262   0.71112   0.00000  Uiso   1.00
O2418  O     0.07176   0.94065   0.76623   0.00000  Uiso   1.00
O2419  O     0.43719   0.55829   0.91646   0.00000  Uiso   1.00
O2420  O     0.36935   0.53217   0.93845   0.00000  Uiso   1.00
O2421  O     0.40030   0.50365   0.86597   0.00000  Uiso   1.00
O2422  O     0.34191   0.56941   0.71927   0.00000  Uiso   1.00
O2423  O     0.39502   0.62555   0.71521   0.00000  Uiso   1.00
O2424  O     0.41160   0.55240   0.76034   0.00000  Uiso   1.00
O2425  O     0.45420   0.70419   0.79513   0.00000  Uiso   1.00
O2426  O     0.08560   0.92577   0.94210   0.00000  Uiso   1.00
O2427  O     0.15420   0.95837   0.93604   0.00000  Uiso   1.00
O2428  O     0.09846   0.98167   0.87635   0.00000  Uiso   1.00
O2429  O     0.34948   0.95035   0.93070   0.00000  Uiso   1.00
O2430  O     0.33974   0.87264   0.95837   0.00000  Uiso   1.00
O2431  O     0.41251   0.90102   0.94493   0.00000  Uiso   1.00
O2432  O     0.07889   0.57487   0.73068   0.00000  Uiso   1.00
O2433  O     0.15004   0.54979   0.72749   0.00000  Uiso   1.00
O2434  O     0.10349   0.51651   0.79014   0.00000  Uiso   1.00
O2435  O     0.17709   0.55728   0.94375   0.00000  Uiso   1.00
O2436  O     0.04581   0.79581   0.87154   0.00000  Uiso   1.00
O2437  O     0.12895   0.61454   0.96168   0.00000  Uiso   1.00
O2438  O     0.10094   0.54449   0.92831   0.00000  Uiso   1.00
O2439  O     0.42074   0.94879   0.74497   0.00000  Uiso   1.00
O2440  O     0.35674   0.92958   0.70654   0.00000  Uiso   1.00
O2441  O     0.35559   0.99161   0.76201   0.00000  Uiso   1.00
O2442  O     0.04581   0.79581   0.79513   0.00000  Uiso   1.00
O2443  O     0.45420   0.70419   0.87154   0.00000  Uiso   1.00
O2444  O     0.29581   0.95419   0.87154   0.00000  Uiso   1.00
S2445  S     0.35583   0.70353   0.76744   0.00000  Uiso   1.00
S2446  S     0.39499   0.54644   0.89941   0.00000  Uiso   1.00
S2447  S     0.37550   0.59075   0.74526   0.00000  Uiso   1.00
S2448  S     0.11822   0.94082   0.90998   0.00000  Uiso   1.00
S2449  S     0.36345   0.90311   0.92726   0.00000  Uiso   1.00
S2450  S     0.11618   0.56125   0.75813   0.00000  Uiso   1.00
S2451  S     0.13929   0.58195   0.92788   0.00000  Uiso   1.00
S2452  S     0.37505   0.94253   0.75019   0.00000  Uiso   1.00
S2453  S     0.12034   0.82500   0.92780   0.00000  Uiso   1.00
S2454  S     0.14565   0.80397   0.77657   0.00000  Uiso   1.00
S2455  S     0.39067   0.65586   0.93099   0.00000  Uiso   1.00
S2456  S     0.14070   0.69779   0.89907   0.00000  Uiso   1.00
S2457  S     0.39081   0.83740   0.73475   0.00000  Uiso   1.00
S2458  S     0.36451   0.79514   0.90102   0.00000  Uiso   1.00
S2459  S     0.12013   0.67620   0.74188   0.00000  Uiso   1.00
S2460  S     0.11725   0.92196   0.74923   0.00000  Uiso   1.00
Zn2461 Zn    0.00000   0.75000   0.88437   0.00000  Uiso   1.00
Zn2462 Zn    0.00000   0.75000   0.78229   0.00000  Uiso   1.00
Zn2463 Zn    0.25000   0.50000   0.88437   0.00000  Uiso   1.00
Zn2464 Zn    0.25000   0.50000   0.78229   0.00000  Uiso   1.00
C2465  C     0.56188   0.69226   0.83340   0.00000  Uiso   1.00
C2466  C     0.50491   0.71110   0.97874   0.00000  Uiso   1.00
C2467  C     0.99663   0.71095   0.69171   0.00000  Uiso   1.00
C2468  C     0.99725   0.78948   0.97451   0.00000  Uiso   1.00
C2469  C     0.75291   0.53977   0.68922   0.00000  Uiso   1.00
C2470  C     0.74599   0.96062   0.97796   0.00000  Uiso   1.00
C2471  C     0.74352   0.96078   0.69203   0.00000  Uiso   1.00
C2472  C     0.75711   0.53956   0.97495   0.00000  Uiso   1.00
C2473  C     0.87606   0.65721   0.79933   0.00000  Uiso   1.00
C2474  C     0.60988   0.85829   0.87751   0.00000  Uiso   1.00
C2475  C     0.62050   0.84864   0.79953   0.00000  Uiso   1.00
C2476  C     0.93805   0.80744   0.83195   0.00000  Uiso   1.00
C2477  C     0.89275   0.63542   0.87596   0.00000  Uiso   1.00
C2478  C     0.62118   0.65173   0.87042   0.00000  Uiso   1.00
C2479  C     0.88863   0.86002   0.78911   0.00000  Uiso   1.00
C2480  C     0.87981   0.84278   0.86769   0.00000  Uiso   1.00
C2481  C     0.60971   0.64297   0.79174   0.00000  Uiso   1.00
C2482  C     0.63946   0.89021   0.79471   0.00000  Uiso   1.00
C2483  C     0.87319   0.59395   0.87016   0.00000  Uiso   1.00
C2484  C     0.85769   0.61560   0.79337   0.00000  Uiso   1.00
C2485  C     0.63226   0.89855   0.87413   0.00000  Uiso   1.00
C2486  C     0.85962   0.88329   0.87273   0.00000  Uiso   1.00
C2487  C     0.93747   0.69290   0.83422   0.00000  Uiso   1.00
C2488  C     0.63138   0.60270   0.79489   0.00000  Uiso   1.00
C2489  C     0.64279   0.61110   0.87432   0.00000  Uiso   1.00
C2490  C     0.86660   0.90023   0.79296   0.00000  Uiso   1.00
C2491  C     0.59813   0.83802   0.83741   0.00000  Uiso   1.00
C2492  C     0.89999   0.66384   0.83762   0.00000  Uiso   1.00
C2493  C     0.90064   0.83564   0.82860   0.00000  Uiso   1.00
C2494  C     0.59843   0.66259   0.83166   0.00000  Uiso   1.00
C2495  C     0.84954   0.58762   0.83132   0.00000  Uiso   1.00
C2496  C     0.65140   0.91170   0.83367   0.00000  Uiso   1.00
C2497  C     0.65252   0.58944   0.83455   0.00000  Uiso   1.00
C2498  C     0.56167   0.80809   0.83399   0.00000  Uiso   1.00
C2499  C     0.84824   0.91023   0.83423   0.00000  Uiso   1.00
C2500  C     0.53169   0.82789   0.70404   0.00000  Uiso   1.00
C2501  C     0.50959   0.86213   0.73192   0.00000  Uiso   1.00
C2502  C     0.50416   0.90871   0.70881   0.00000  Uiso   1.00
C2503  C     0.52848   0.67117   0.96320   0.00000  Uiso   1.00
C2504  C     0.50333   0.63559   0.93938   0.00000  Uiso   1.00
C2505  C     0.53002   0.59650   0.92899   0.00000  Uiso   1.00
C2506  C     0.97682   0.66892   0.71184   0.00000  Uiso   1.00
C2507  C     0.50614   0.63390   0.73410   0.00000  Uiso   1.00
C2508  C     0.99169   0.61431   0.77902   0.00000  Uiso   1.00
C2509  C     0.81197   0.94163   0.83406   0.00000  Uiso   1.00
C2510  C     0.97976   0.83320   0.95300   0.00000  Uiso   1.00
C2511  C     0.50765   0.86144   0.92138   0.00000  Uiso   1.00
C2512  C     0.99667   0.91112   0.91553   0.00000  Uiso   1.00
C2513  C     0.75151   0.58430   0.71270   0.00000  Uiso   1.00
C2514  C     0.71505   0.61496   0.69913   0.00000  Uiso   1.00
C2515  C     0.72808   0.66342   0.68802   0.00000  Uiso   1.00
C2516  C     0.75975   0.91661   0.96008   0.00000  Uiso   1.00
C2517  C     0.72798   0.88381   0.94142   0.00000  Uiso   1.00
C2518  C     0.73994   0.83482   0.95292   0.00000  Uiso   1.00
C2519  C     0.72880   0.91643   0.71512   0.00000  Uiso   1.00
C2520  C     0.68814   0.55806   0.83319   0.00000  Uiso   1.00
C2521  C     0.76030   0.88881   0.74338   0.00000  Uiso   1.00
C2522  C     0.75670   0.83869   0.73661   0.00000  Uiso   1.00
C2523  C     0.77843   0.58130   0.95286   0.00000  Uiso   1.00
C2524  C     0.75248   0.61291   0.92159   0.00000  Uiso   1.00
C2525  C     0.77576   0.65435   0.90457   0.00000  Uiso   1.00
C2526  C     0.68787   0.94226   0.83344   0.00000  Uiso   1.00
C2527  C     0.81225   0.55780   0.83281   0.00000  Uiso   1.00
C2528  C     0.50557   0.78907   0.68808   0.00000  Uiso   1.00
H2529  H     0.53200   0.91925   0.69007   0.00000  Uiso   1.00
H2530  H     0.51222   0.57151   0.91055   0.00000  Uiso   1.00
H2531  H     0.97799   0.62176   0.95988   0.00000  Uiso   1.00
H2532  H     0.99099   0.64915   0.90759   0.00000  Uiso   1.00
H2533  H     0.55404   0.68353   0.94313   0.00000  Uiso   1.00
H2534  H     0.54494   0.65429   0.99186   0.00000  Uiso   1.00
H2535  H     0.50261   0.63477   0.80633   0.00000  Uiso   1.00
H2536  H     0.95773   0.61257   0.78027   0.00000  Uiso   1.00
H2537  H     0.50441   0.58007   0.78530   0.00000  Uiso   1.00
H2538  H     0.50847   0.60572   0.71163   0.00000  Uiso   1.00
H2539  H     0.53736   0.64781   0.73803   0.00000  Uiso   1.00
H2540  H     0.97714   0.91066   0.68627   0.00000  Uiso   1.00
H2541  H     0.95013   0.67721   0.73073   0.00000  Uiso   1.00
H2542  H     0.96036   0.65210   0.68517   0.00000  Uiso   1.00
H2543  H     0.96753   0.91567   0.89604   0.00000  Uiso   1.00
H2544  H     0.99485   0.92705   0.94767   0.00000  Uiso   1.00
H2545  H     0.52064   0.92886   0.89548   0.00000  Uiso   1.00
H2546  H     0.54001   0.85849   0.93273   0.00000  Uiso   1.00
H2547  H     0.50384   0.85034   0.88765   0.00000  Uiso   1.00
H2548  H     0.94967   0.82687   0.93756   0.00000  Uiso   1.00
H2549  H     0.97111   0.85445   0.97974   0.00000  Uiso   1.00
H2550  H     0.73646   0.67996   0.71887   0.00000  Uiso   1.00
H2551  H     0.99832   0.93338   0.73413   0.00000  Uiso   1.00
H2552  H     0.75504   0.66528   0.99951   0.00000  Uiso   1.00
H2553  H     0.70211   0.68201   0.67125   0.00000  Uiso   1.00
H2554  H     0.69754   0.60197   0.67108   0.00000  Uiso   1.00
H2555  H     0.69388   0.61581   0.72739   0.00000  Uiso   1.00
H2556  H     0.74932   0.57805   0.74808   0.00000  Uiso   1.00
H2557  H     0.78025   0.60374   0.71040   0.00000  Uiso   1.00
H2558  H     0.77257   0.83090   0.96370   0.00000  Uiso   1.00
H2559  H     0.71995   0.82022   0.97946   0.00000  Uiso   1.00
H2560  H     0.73697   0.81475   0.92323   0.00000  Uiso   1.00
H2561  H     0.69661   0.89033   0.95316   0.00000  Uiso   1.00
H2562  H     0.97950   0.84934   0.74275   0.00000  Uiso   1.00
H2563  H     0.72748   0.88757   0.90485   0.00000  Uiso   1.00
H2564  H     0.78203   0.92308   0.93531   0.00000  Uiso   1.00
H2565  H     0.77832   0.89932   0.98679   0.00000  Uiso   1.00
H2566  H     0.72419   0.82817   0.73608   0.00000  Uiso   1.00
H2567  H     0.76935   0.83061   0.70450   0.00000  Uiso   1.00
H2568  H     0.77370   0.81932   0.76345   0.00000  Uiso   1.00
H2569  H     0.79199   0.89977   0.73569   0.00000  Uiso   1.00
H2570  H     0.75407   0.89270   0.77889   0.00000  Uiso   1.00
H2571  H     0.70116   0.92032   0.73328   0.00000  Uiso   1.00
H2572  H     0.71485   0.89454   0.69070   0.00000  Uiso   1.00
H2573  H     0.52833   0.86736   0.76224   0.00000  Uiso   1.00
H2574  H     0.77807   0.67911   0.93047   0.00000  Uiso   1.00
H2575  H     0.80628   0.64457   0.89264   0.00000  Uiso   1.00
H2576  H     0.75936   0.67045   0.87540   0.00000  Uiso   1.00
H2577  H     0.74538   0.59723   0.89124   0.00000  Uiso   1.00
H2578  H     0.72382   0.62322   0.93729   0.00000  Uiso   1.00
H2579  H     0.79270   0.60282   0.97726   0.00000  Uiso   1.00
H2580  H     0.80681   0.57111   0.93768   0.00000  Uiso   1.00
H2581  H     0.79483   0.72314   0.74458   0.00000  Uiso   1.00
H2582  H     0.67364   0.80685   0.89083   0.00000  Uiso   1.00
H2583  H     0.70117   0.76754   0.79654   0.00000  Uiso   1.00
H2584  H     0.55920   0.81377   0.72174   0.00000  Uiso   1.00
H2585  H     0.84943   0.69604   0.96746   0.00000  Uiso   1.00
H2586  H     0.70085   0.71779   0.92309   0.00000  Uiso   1.00
H2587  H     0.84179   0.81021   0.69469   0.00000  Uiso   1.00
H2588  H     0.80570   0.76623   0.91962   0.00000  Uiso   1.00
H2589  H     0.67941   0.68620   0.77476   0.00000  Uiso   1.00
H2590  H     0.56391   0.96478   0.74399   0.00000  Uiso   1.00
H2591  H     0.87247   0.99848   0.85349   0.00000  Uiso   1.00
H2592  H     0.92589   0.54620   0.73260   0.00000  Uiso   1.00
H2593  H     0.62263   0.50088   0.86937   0.00000  Uiso   1.00
H2594  H     0.91554   0.92525   0.96596   0.00000  Uiso   1.00
H2595  H     0.54614   0.84594   0.67529   0.00000  Uiso   1.00
H2596  H     0.63023   0.50247   0.79826   0.00000  Uiso   1.00
H2597  H     0.60134   0.53045   0.95877   0.00000  Uiso   1.00
H2598  H     0.83245   0.99554   0.74037   0.00000  Uiso   1.00
H2599  H     0.55538   0.60876   0.90753   0.00000  Uiso   1.00
H2600  H     0.54183   0.58026   0.96056   0.00000  Uiso   1.00
N2601  N     0.50000   0.75000   0.95240   0.00000  Uiso   1.00
N2602  N     0.50000   0.75000   0.71427   0.00000  Uiso   1.00
N2603  N     0.75000   0.50000   0.95240   0.00000  Uiso   1.00
N2604  N     0.75000   0.50000   0.71427   0.00000  Uiso   1.00
O2605  O     0.54581   0.70419   0.87154   0.00000  Uiso   1.00
O2606  O     0.70420   0.54581   0.79513   0.00000  Uiso   1.00
O2607  O     0.70420   0.54581   0.87154   0.00000  Uiso   1.00
O2608  O     0.79581   0.95419   0.79513   0.00000  Uiso   1.00
O2609  O     0.70420   0.95419   0.79513   0.00000  Uiso   1.00
O2610  O     0.79581   0.54581   0.87154   0.00000  Uiso   1.00
O2611  O     0.79581   0.54581   0.79513   0.00000  Uiso   1.00
O2612  O     0.70420   0.95419   0.87154   0.00000  Uiso   1.00
O2613  O     0.85966   0.74518   0.79295   0.00000  Uiso   1.00
O2614  O     0.87770   0.71004   0.72421   0.00000  Uiso   1.00
O2615  O     0.80563   0.69396   0.75670   0.00000  Uiso   1.00
O2616  O     0.95420   0.79581   0.79513   0.00000  Uiso   1.00
O2617  O     0.62736   0.85376   0.96645   0.00000  Uiso   1.00
O2618  O     0.58772   0.79113   0.94029   0.00000  Uiso   1.00
O2619  O     0.66431   0.79733   0.92092   0.00000  Uiso   1.00
O2620  O     0.62135   0.76221   0.78627   0.00000  Uiso   1.00
O2621  O     0.65023   0.81161   0.72737   0.00000  Uiso   1.00
O2622  O     0.69209   0.79832   0.80204   0.00000  Uiso   1.00
O2623  O     0.88442   0.61724   0.96381   0.00000  Uiso   1.00
O2624  O     0.92787   0.68151   0.94493   0.00000  Uiso   1.00
O2625  O     0.85098   0.69078   0.93542   0.00000  Uiso   1.00
O2626  O     0.62864   0.73974   0.87297   0.00000  Uiso   1.00
O2627  O     0.95420   0.79581   0.87154   0.00000  Uiso   1.00
O2628  O     0.62476   0.69974   0.94524   0.00000  Uiso   1.00
O2629  O     0.69229   0.69530   0.90174   0.00000  Uiso   1.00
O2630  O     0.91551   0.86716   0.70391   0.00000  Uiso   1.00
O2631  O     0.90759   0.79095   0.73324   0.00000  Uiso   1.00
O2632  O     0.84269   0.83605   0.71398   0.00000  Uiso   1.00
O2633  O     0.87857   0.75345   0.88046   0.00000  Uiso   1.00
O2634  O     0.88172   0.79595   0.94748   0.00000  Uiso   1.00
O2635  O     0.81275   0.79427   0.90246   0.00000  Uiso   1.00
O2636  O     0.62420   0.64674   0.70383   0.00000  Uiso   1.00
O2637  O     0.58840   0.71091   0.72842   0.00000  Uiso   1.00
O2638  O     0.54581   0.70419   0.79513   0.00000  Uiso   1.00
O2639  O     0.66584   0.70205   0.74886   0.00000  Uiso   1.00
O2640  O     0.64280   0.96124   0.73327   0.00000  Uiso   1.00
O2641  O     0.60953   0.89262   0.71112   0.00000  Uiso   1.00
O2642  O     0.57176   0.94065   0.76623   0.00000  Uiso   1.00
O2643  O     0.93719   0.55829   0.91646   0.00000  Uiso   1.00
O2644  O     0.86935   0.53217   0.93845   0.00000  Uiso   1.00
O2645  O     0.90030   0.50365   0.86597   0.00000  Uiso   1.00
O2646  O     0.84191   0.56941   0.71927   0.00000  Uiso   1.00
O2647  O     0.89502   0.62555   0.71521   0.00000  Uiso   1.00
O2648  O     0.91160   0.55240   0.76034   0.00000  Uiso   1.00
O2649  O     0.95420   0.70419   0.79513   0.00000  Uiso   1.00
O2650  O     0.58560   0.92577   0.94210   0.00000  Uiso   1.00
O2651  O     0.65420   0.95837   0.93604   0.00000  Uiso   1.00
O2652  O     0.59846   0.98167   0.87635   0.00000  Uiso   1.00
O2653  O     0.84948   0.95035   0.93070   0.00000  Uiso   1.00
O2654  O     0.83974   0.87264   0.95837   0.00000  Uiso   1.00
O2655  O     0.91251   0.90102   0.94493   0.00000  Uiso   1.00
O2656  O     0.57889   0.57487   0.73068   0.00000  Uiso   1.00
O2657  O     0.65004   0.54979   0.72749   0.00000  Uiso   1.00
O2658  O     0.60349   0.51651   0.79014   0.00000  Uiso   1.00
O2659  O     0.67709   0.55728   0.94375   0.00000  Uiso   1.00
O2660  O     0.54581   0.79581   0.87154   0.00000  Uiso   1.00
O2661  O     0.62895   0.61454   0.96168   0.00000  Uiso   1.00
O2662  O     0.60094   0.54449   0.92831   0.00000  Uiso   1.00
O2663  O     0.92074   0.94879   0.74497   0.00000  Uiso   1.00
O2664  O     0.85674   0.92958   0.70654   0.00000  Uiso   1.00
O2665  O     0.85559   0.99161   0.76201   0.00000  Uiso   1.00
O2666  O     0.54581   0.79581   0.79513   0.00000  Uiso   1.00
O2667  O     0.95420   0.70419   0.87154   0.00000  Uiso   1.00
O2668  O     0.79581   0.95419   0.87154   0.00000  Uiso   1.00
S2669  S     0.85583   0.70353   0.76744   0.00000  Uiso   1.00
S2670  S     0.89499   0.54644   0.89941   0.00000  Uiso   1.00
S2671  S     0.87550   0.59075   0.74526   0.00000  Uiso   1.00
S2672  S     0.61822   0.94082   0.90998   0.00000  Uiso   1.00
S2673  S     0.86345   0.90311   0.92726   0.00000  Uiso   1.00
S2674  S     0.61618   0.56125   0.75813   0.00000  Uiso   1.00
S2675  S     0.63929   0.58195   0.92788   0.00000  Uiso   1.00
S2676  S     0.87505   0.94253   0.75019   0.00000  Uiso   1.00
S2677  S     0.62034   0.82500   0.92780   0.00000  Uiso   1.00
S2678  S     0.64565   0.80397   0.77657   0.00000  Uiso   1.00
S2679  S     0.89067   0.65586   0.93099   0.00000  Uiso   1.00
S2680  S     0.64070   0.69779   0.89907   0.00000  Uiso   1.00
S2681  S     0.89081   0.83740   0.73475   0.00000  Uiso   1.00
S2682  S     0.86451   0.79514   0.90102   0.00000  Uiso   1.00
S2683  S     0.62013   0.67620   0.74188   0.00000  Uiso   1.00
S2684  S     0.61725   0.92196   0.74923   0.00000  Uiso   1.00
Zn2685 Zn    0.50000   0.75000   0.88437   0.00000  Uiso   1.00
Zn2686 Zn    0.50000   0.75000   0.78229   0.00000  Uiso   1.00
Zn2687 Zn    0.75000   0.50000   0.88437   0.00000  Uiso   1.00
Zn2688 Zn    0.75000   0.50000   0.78229   0.00000  Uiso   1.00
loop_
_geom_bond_atom_site_label_1
_geom_bond_atom_site_label_2
_geom_bond_distance
_geom_bond_site_symmetry_2
_ccdc_geom_bond_type
C1     O174    1.293   .     A
C1     C30     1.486   .     S
C1     O141    1.338   .     A
C2     C39     1.519   .     S
C2     N137    1.382   .     A
C2     C1123   1.429   1_455 S
C3     C42     1.512   .     S
C3     C2018   1.429   1_554 S
C3     N362    1.384   .     S
C4     C46     1.535   .     S
C4     C1184   1.437   .     S
C4     N361    1.389   .     S
C5     C49     1.541   .     S
C5     N140    1.379   .     A
C5     C1800   1.447   1_554 S
C6     C52     1.519   .     S
C6     C903    1.436   .     S
C6     N587    1.381   .     S
C7     C55     1.543   .     S
C7     C1798   1.436   1_554 S
C7     N588    1.393   .     S
C8     N139    1.410   .     A
C8     C59     1.549   .     S
C8     C901    1.447   .     S
C9     C20     1.394   .     A
C9     S205    1.767   .     S
C9     C28     1.402   .     A
C10    C27     1.427   .     A
C10    C21     1.401   .     A
C10    S213    1.800   .     S
C11    C18     1.385   .     A
C11    C27     1.388   .     A
C11    S214    1.747   .     S
C12    C29     1.478   .     S
C12    O152    1.302   .     A
C12    O163    1.327   .     A
C13    C28     1.423   .     A
C13    C19     1.406   .     A
C13    S215    1.803   .     S
C14    C30     1.396   .     A
C14    S216    1.771   .     S
C14    C25     1.403   .     A
C15    S217    1.810   .     S
C15    C29     1.415   .     A
C15    C26     1.411   .     A
C16    S218    1.775   .     S
C16    C29     1.397   .     A
C16    C22     1.395   .     A
C17    S219    1.797   .     S
C17    C30     1.422   .     A
C17    C24     1.394   .     A
C18    S220    1.772   .     S
C18    C32     1.416   .     A
C19    C31     1.410   .     A
C19    S206    1.775   .     S
C20    S207    1.773   .     S
C20    C31     1.412   .     A
C21    C32     1.418   .     A
C21    S208    1.772   .     S
C22    C35     1.424   .     A
C22    S209    1.781   .     S
C23    O185    1.335   .     A
C23    C28     1.491   .     S
C23    O203    1.301   .     A
C24    S210    1.767   .     S
C24    C33     1.409   .     A
C25    S211    1.803   .     S
C25    C33     1.434   .     A
C26    S212    1.784   .     S
C26    C35     1.437   .     A
C27    C34     1.483   .     S
C31    C63     1.497   .     S
C32    C62     1.489   .     S
C33    C56     1.493   .     S
C34    O202    1.341   .     A
C34    O196    1.289   .     A
C35    C45     1.507   .     S
C36    C37     1.545   .     S
C36    H131    1.108   .     S
C36    H120    1.105   .     S
C36    C64     1.525   .     S
C37    H109    1.107   .     S
C37    C38     1.534   .     S
C37    H322    1.094   1_455 S
C38    H65     1.109   .     S
C38    H300    1.099   1_455 S
C38    H311    1.108   1_455 S
C39    C40     1.536   .     S
C39    H69     1.087   .     S
C39    H70     1.109   .     S
C40    C41     1.506   .     S
C40    H291    1.103   1_455 S
C40    H292    1.093   1_455 S
C41    H135    1.105   .     S
C41    H66     1.107   .     S
C41    H136    1.110   .     S
C42    H78     1.100   .     S
C42    H77     1.081   .     S
C42    C267    1.537   .     S
C43    H75     1.098   .     S
C43    H74     1.112   .     S
C43    C266    1.537   1_455 S
C43    C268    1.530   1_455 S
C44    H72     1.102   .     S
C44    C267    1.530   .     S
C44    H295    1.104   .     S
C44    H297    1.111   .     S
C45    O144    1.316   .     A
C45    O204    1.328   .     A
C46    H85     1.094   .     S
C46    H84     1.092   .     S
C46    C271    1.543   .     S
C47    H82     1.099   .     S
C47    H83     1.092   .     S
C47    C270    1.543   1_455 S
C47    C272    1.529   1_455 S
C48    H79     1.108   .     S
C48    H80     1.106   .     S
C48    C271    1.529   .     S
C48    H305    1.109   .     S
C49    H93     1.096   .     S
C49    C50     1.535   .     S
C49    H92     1.079   .     S
C50    H90     1.097   .     S
C50    H91     1.106   .     S
C50    C51     1.529   .     S
C51    H86     1.106   .     S
C51    H89     1.110   .     S
C51    H1880   1.103   1_554 S
C52    H101    1.105   .     S
C52    H100    1.059   .     S
C52    C53     1.537   .     S
C53    C54     1.537   .     S
C53    H97     1.103   .     S
C53    H99     1.105   .     S
C54    H95     1.110   .     S
C54    H94     1.105   .     S
C54    H96     1.107   .     S
C55    H107    1.068   .     S
C55    C57     1.534   .     S
C55    H108    1.100   .     S
C56    O143    1.297   .     A
C56    O142    1.339   .     A
C57    H105    1.101   .     S
C57    H106    1.107   .     S
C57    C58     1.525   .     S
C58    H102    1.097   .     S
C58    H104    1.111   .     S
C58    H103    1.099   .     S
C59    H116    1.086   .     S
C59    C60     1.542   .     S
C59    H115    1.097   .     S
C60    H114    1.103   .     S
C60    H113    1.071   .     S
C60    C61     1.518   .     S
C61    H110    1.105   .     S
C61    H112    1.110   .     S
C61    H111    1.104   .     S
C62    O148    1.323   .     A
C62    O145    1.313   .     A
C63    O146    1.326   .     A
C63    O147    1.313   .     A
C64    N138    1.389   .     A
C64    C2020   1.437   1_454 S
H67    C264    1.103   .     S
H68    C264    1.093   .     S
H71    C268    1.104   1_455 S
H73    C268    1.111   1_455 S
H76    C262    1.099   .     S
H81    C272    1.109   1_455 S
H87    C262    1.108   .     S
H88    C947    1.103   .     S
H98    C261    1.094   .     S
H117   O151    0.991   .     S
H118   O155    0.990   .     S
H119   O158    0.990   .     S
H121   O161    0.991   .     S
H122   O165    0.990   .     S
H123   O168    0.991   .     S
H124   O171    0.990   .     S
H125   O175    0.990   .     S
H126   O178    0.991   .     S
H127   O629    0.985   .     S
H128   O184    0.991   .     S
H129   O636    0.988   1_545 S
H130   O191    0.991   .     S
H132   O194    0.986   .     S
H133   O198    0.991   .     S
H134   O201    0.989   .     S
N137   C228    1.389   1_455 S
N137   Zn221   2.055   .     S
N138   Zn222   2.055   .     S
N138   C227    1.384   1_455 S
N139   Zn223   2.055   .     S
N139   C454    1.381   1_545 S
N140   Zn224   2.055   .     S
N140   C455    1.393   1_545 S
O141   Zn221   2.078   .     S
O142   Zn224   2.078   .     S
O143   Zn223   2.042   .     S
O144   Zn672   2.042   .     S
O145   Zn672   2.042   .     S
O146   Zn223   2.042   .     S
O147   Zn224   2.058   .     S
O148   Zn671   2.058   .     S
O149   S205    1.500   .     D
O150   S205    1.500   .     D
O151   S205    1.678   .     S
O152   Zn446   2.078   .     S
O153   S213    1.498   .     D
O154   S213    1.499   .     D
O155   S213    1.672   .     S
O156   S214    1.491   .     D
O157   S214    1.502   .     D
O158   S214    1.682   .     S
O159   S215    1.498   .     D
O160   S215    1.490   .     D
O161   S215    1.671   .     S
O162   S216    1.496   .     D
O163   Zn445   2.042   .     S
O164   S216    1.500   .     D
O165   S216    1.673   .     S
O166   S217    1.494   .     D
O167   S217    1.496   .     D
O168   S217    1.670   .     S
O169   S218    1.497   .     D
O170   S218    1.502   .     D
O171   S218    1.678   .     S
O172   S219    1.491   .     D
O173   S219    1.500   .     D
O174   Zn222   2.042   .     S
O175   S219    1.681   .     S
O176   S220    1.497   .     D
O177   S220    1.499   .     D
O178   S220    1.677   .     S
O179   S206    1.499   .     D
O180   S206    1.498   .     D
O181   S206    1.681   .     S
O181   H575    0.985   1_545 S
O182   S207    1.490   .     D
O183   S207    1.491   .     D
O184   S207    1.682   .     S
O185   Zn446   2.042   .     S
O186   S208    1.499   .     D
O187   S208    1.502   .     D
O188   S208    1.670   .     S
O188   H577    0.988   .     S
O189   S209    1.494   .     D
O190   S209    1.494   .     D
O191   S209    1.667   .     S
O192   S210    1.498   .     D
O193   S210    1.500   .     D
O194   S210    1.664   .     S
O195   S211    1.491   .     D
O196   Zn221   2.042   .     S
O197   S211    1.490   .     D
O198   S211    1.667   .     S
O199   S212    1.501   .     D
O200   S212    1.504   .     D
O201   S212    1.657   .     S
O202   Zn222   2.058   .     S
O203   Zn445   2.058   .     S
O204   Zn671   2.078   .     S
Zn221  O427    2.058   1_455 S
Zn221  O387    2.042   1_455 S
Zn222  O409    2.042   1_455 S
Zn222  O376    2.078   1_455 S
Zn223  O596    2.058   1_545 S
Zn223  O652    2.078   1_545 S
Zn224  O593    2.042   1_545 S
Zn224  O592    2.042   1_545 S
C225   O398    1.293   .     A
C225   C254    1.486   .     S
C225   O365    1.338   .     A
C226   C263    1.519   .     S
C226   N361    1.382   .     A
C226   C899    1.429   .     S
C227   C266    1.512   .     S
C227   C1794   1.429   1_654 S
C227   N138    1.384   1_655 S
C228   C270    1.535   .     S
C228   C960    1.437   1_655 S
C228   N137    1.389   1_655 S
C229   C273    1.541   .     S
C229   N364    1.379   .     A
C229   C2024   1.447   1_554 S
C230   C276    1.519   .     S
C230   C1127   1.436   .     S
C230   N811    1.381   .     S
C231   C279    1.543   .     S
C231   C2022   1.436   1_554 S
C231   N812    1.393   .     S
C232   N363    1.410   .     A
C232   C283    1.549   .     S
C232   C1125   1.447   .     S
C233   C244    1.394   .     A
C233   S429    1.767   .     S
C233   C252    1.402   .     A
C234   C251    1.427   .     A
C234   C245    1.401   .     A
C234   S437    1.800   .     S
C235   C242    1.385   .     A
C235   C251    1.388   .     A
C235   S438    1.747   .     S
C236   C253    1.478   .     S
C236   O376    1.302   .     A
C236   O387    1.327   .     A
C237   C252    1.423   .     A
C237   C243    1.406   .     A
C237   S439    1.803   .     S
C238   C254    1.396   .     A
C238   S440    1.771   .     S
C238   C249    1.403   .     A
C239   S441    1.810   .     S
C239   C253    1.415   .     A
C239   C250    1.411   .     A
C240   S442    1.775   .     S
C240   C253    1.397   .     A
C240   C246    1.395   .     A
C241   S443    1.797   .     S
C241   C254    1.422   .     A
C241   C248    1.394   .     A
C242   S444    1.772   .     S
C242   C256    1.416   .     A
C243   C255    1.410   .     A
C243   S430    1.775   .     S
C244   S431    1.773   .     S
C244   C255    1.412   .     A
C245   C256    1.418   .     A
C245   S432    1.772   .     S
C246   C259    1.424   .     A
C246   S433    1.781   .     S
C247   O409    1.335   .     A
C247   C252    1.491   .     S
C247   O427    1.301   .     A
C248   S434    1.767   .     S
C248   C257    1.409   .     A
C249   S435    1.803   .     S
C249   C257    1.434   .     A
C250   S436    1.784   .     S
C250   C259    1.437   .     A
C251   C258    1.483   .     S
C255   C287    1.497   .     S
C256   C286    1.489   .     S
C257   C280    1.493   .     S
C258   O426    1.341   .     A
C258   O420    1.289   .     A
C259   C269    1.507   .     S
C260   C261    1.545   .     S
C260   H355    1.108   .     S
C260   H344    1.105   .     S
C260   C288    1.525   .     S
C261   H333    1.107   .     S
C261   C262    1.534   .     S
C262   H289    1.109   .     S
C263   C264    1.536   .     S
C263   H293    1.087   .     S
C263   H294    1.109   .     S
C264   C265    1.506   .     S
C265   H359    1.105   .     S
C265   H290    1.107   .     S
C265   H360    1.110   .     S
C266   H302    1.100   .     S
C266   H301    1.081   .     S
C266   C43     1.537   1_655 S
C267   H299    1.098   .     S
C267   H298    1.112   .     S
C268   H296    1.102   .     S
C268   C43     1.530   1_655 S
C268   H71     1.104   1_655 S
C268   H73     1.111   1_655 S
C269   O368    1.316   .     A
C269   O428    1.328   .     A
C270   H309    1.094   .     S
C270   H308    1.092   .     S
C270   C47     1.543   1_655 S
C271   H306    1.099   .     S
C271   H307    1.092   .     S
C272   H303    1.108   .     S
C272   H304    1.106   .     S
C272   C47     1.529   1_655 S
C272   H81     1.109   1_655 S
C273   H317    1.096   .     S
C273   C274    1.535   .     S
C273   H316    1.079   .     S
C274   H314    1.097   .     S
C274   H315    1.106   .     S
C274   C275    1.529   .     S
C275   H310    1.106   .     S
C275   H313    1.110   .     S
C275   H2104   1.103   1_554 S
C276   H325    1.105   .     S
C276   H324    1.059   .     S
C276   C277    1.537   .     S
C277   C278    1.537   .     S
C277   H321    1.103   .     S
C277   H323    1.105   .     S
C278   H319    1.110   .     S
C278   H318    1.105   .     S
C278   H320    1.107   .     S
C279   H331    1.068   .     S
C279   C281    1.534   .     S
C279   H332    1.100   .     S
C280   O367    1.297   .     A
C280   O366    1.339   .     A
C281   H329    1.101   .     S
C281   H330    1.107   .     S
C281   C282    1.525   .     S
C282   H326    1.097   .     S
C282   H328    1.111   .     S
C282   H327    1.099   .     S
C283   H340    1.086   .     S
C283   C284    1.542   .     S
C283   H339    1.097   .     S
C284   H338    1.103   .     S
C284   H337    1.071   .     S
C284   C285    1.518   .     S
C285   H334    1.105   .     S
C285   H336    1.110   .     S
C285   H335    1.104   .     S
C286   O372    1.323   .     A
C286   O369    1.313   .     A
C287   O370    1.326   .     A
C287   O371    1.313   .     A
C288   N362    1.389   .     A
C288   C1796   1.437   1_554 S
H291   C40     1.103   1_655 S
H292   C40     1.093   1_655 S
H300   C38     1.099   1_655 S
H311   C38     1.108   1_655 S
H312   C1171   1.103   .     S
H322   C37     1.094   1_655 S
H341   O375    0.991   .     S
H342   O379    0.990   .     S
H343   O382    0.990   .     S
H345   O385    0.991   .     S
H346   O389    0.990   .     S
H347   O392    0.991   .     S
H348   O395    0.990   .     S
H349   O399    0.990   .     S
H350   O402    0.991   .     S
H351   O853    0.985   .     S
H352   O408    0.991   .     S
H353   O860    0.988   1_545 S
H354   O415    0.991   .     S
H356   O418    0.986   .     S
H357   O422    0.991   .     S
H358   O425    0.989   .     S
N361   Zn445   2.055   .     S
N362   Zn446   2.055   .     S
N363   Zn447   2.055   .     S
N363   C678    1.381   1_545 S
N364   Zn448   2.055   .     S
N364   C679    1.393   1_545 S
O365   Zn445   2.078   .     S
O366   Zn448   2.078   .     S
O367   Zn447   2.042   .     S
O368   Zn896   2.042   .     S
O369   Zn896   2.042   .     S
O370   Zn447   2.042   .     S
O371   Zn448   2.058   .     S
O372   Zn895   2.058   .     S
O373   S429    1.500   .     D
O374   S429    1.500   .     D
O375   S429    1.678   .     S
O376   Zn222   2.078   1_655 S
O377   S437    1.498   .     D
O378   S437    1.499   .     D
O379   S437    1.672   .     S
O380   S438    1.491   .     D
O381   S438    1.502   .     D
O382   S438    1.682   .     S
O383   S439    1.498   .     D
O384   S439    1.490   .     D
O385   S439    1.671   .     S
O386   S440    1.496   .     D
O387   Zn221   2.042   1_655 S
O388   S440    1.500   .     D
O389   S440    1.673   .     S
O390   S441    1.494   .     D
O391   S441    1.496   .     D
O392   S441    1.670   .     S
O393   S442    1.497   .     D
O394   S442    1.502   .     D
O395   S442    1.678   .     S
O396   S443    1.491   .     D
O397   S443    1.500   .     D
O398   Zn446   2.042   .     S
O399   S443    1.681   .     S
O400   S444    1.497   .     D
O401   S444    1.499   .     D
O402   S444    1.677   .     S
O403   S430    1.499   .     D
O404   S430    1.498   .     D
O405   S430    1.681   .     S
O405   H799    0.985   1_545 S
O406   S431    1.490   .     D
O407   S431    1.491   .     D
O408   S431    1.682   .     S
O409   Zn222   2.042   1_655 S
O410   S432    1.499   .     D
O411   S432    1.502   .     D
O412   S432    1.670   .     S
O412   H801    0.988   .     S
O413   S433    1.494   .     D
O414   S433    1.494   .     D
O415   S433    1.667   .     S
O416   S434    1.498   .     D
O417   S434    1.500   .     D
O418   S434    1.664   .     S
O419   S435    1.491   .     D
O420   Zn445   2.042   .     S
O421   S435    1.490   .     D
O422   S435    1.667   .     S
O423   S436    1.501   .     D
O424   S436    1.504   .     D
O425   S436    1.657   .     S
O426   Zn446   2.058   .     S
O427   Zn221   2.058   1_655 S
O428   Zn895   2.078   .     S
Zn447  O820    2.058   1_545 S
Zn447  O876    2.078   1_545 S
Zn448  O817    2.042   1_545 S
Zn448  O816    2.042   1_545 S
C449   O622    1.293   .     A
C449   C478    1.486   .     S
C449   O589    1.338   .     A
C450   C487    1.519   .     S
C450   N585    1.382   .     A
C450   C1571   1.429   1_455 S
C451   C490    1.512   .     S
C451   C2466   1.429   1_554 S
C451   N810    1.384   .     S
C452   C494    1.535   .     S
C452   C1632   1.437   .     S
C452   N809    1.389   .     S
C453   C497    1.541   .     S
C453   N588    1.379   .     A
C453   C2248   1.447   1_554 S
C454   C500    1.519   .     S
C454   C1351   1.436   .     S
C454   N139    1.381   1_565 S
C455   C503    1.543   .     S
C455   C2246   1.436   1_554 S
C455   N140    1.393   1_565 S
C456   N587    1.410   .     A
C456   C507    1.549   .     S
C456   C1349   1.447   .     S
C457   C468    1.394   .     A
C457   S653    1.767   .     S
C457   C476    1.402   .     A
C458   C475    1.427   .     A
C458   C469    1.401   .     A
C458   S661    1.800   .     S
C459   C466    1.385   .     A
C459   C475    1.388   .     A
C459   S662    1.747   .     S
C460   C477    1.478   .     S
C460   O600    1.302   .     A
C460   O611    1.327   .     A
C461   C476    1.423   .     A
C461   C467    1.406   .     A
C461   S663    1.803   .     S
C462   C478    1.396   .     A
C462   S664    1.771   .     S
C462   C473    1.403   .     A
C463   S665    1.810   .     S
C463   C477    1.415   .     A
C463   C474    1.411   .     A
C464   S666    1.775   .     S
C464   C477    1.397   .     A
C464   C470    1.395   .     A
C465   S667    1.797   .     S
C465   C478    1.422   .     A
C465   C472    1.394   .     A
C466   S668    1.772   .     S
C466   C480    1.416   .     A
C467   C479    1.410   .     A
C467   S654    1.775   .     S
C468   S655    1.773   .     S
C468   C479    1.412   .     A
C469   C480    1.418   .     A
C469   S656    1.772   .     S
C470   C483    1.424   .     A
C470   S657    1.781   .     S
C471   O633    1.335   .     A
C471   C476    1.491   .     S
C471   O651    1.301   .     A
C472   S658    1.767   .     S
C472   C481    1.409   .     A
C473   S659    1.803   .     S
C473   C481    1.434   .     A
C474   S660    1.784   .     S
C474   C483    1.437   .     A
C475   C482    1.483   .     S
C479   C511    1.497   .     S
C480   C510    1.489   .     S
C481   C504    1.493   .     S
C482   O650    1.341   .     A
C482   O644    1.289   .     A
C483   C493    1.507   .     S
C484   C485    1.545   .     S
C484   H579    1.108   .     S
C484   H568    1.105   .     S
C484   C512    1.525   .     S
C485   H557    1.107   .     S
C485   C486    1.534   .     S
C485   H770    1.094   1_455 S
C486   H513    1.109   .     S
C486   H748    1.099   1_455 S
C486   H759    1.108   1_455 S
C487   C488    1.536   .     S
C487   H517    1.087   .     S
C487   H518    1.109   .     S
C488   C489    1.506   .     S
C488   H739    1.103   1_455 S
C488   H740    1.093   1_455 S
C489   H583    1.105   .     S
C489   H514    1.107   .     S
C489   H584    1.110   .     S
C490   H526    1.100   .     S
C490   H525    1.081   .     S
C490   C715    1.537   .     S
C491   H523    1.098   .     S
C491   H522    1.112   .     S
C491   C714    1.537   1_455 S
C491   C716    1.530   1_455 S
C492   H520    1.102   .     S
C492   C715    1.530   .     S
C492   H743    1.104   .     S
C492   H745    1.111   .     S
C493   O592    1.316   .     A
C493   O652    1.328   .     A
C494   H533    1.094   .     S
C494   H532    1.092   .     S
C494   C719    1.543   .     S
C495   H530    1.099   .     S
C495   H531    1.092   .     S
C495   C718    1.543   1_455 S
C495   C720    1.529   1_455 S
C496   H527    1.108   .     S
C496   H528    1.106   .     S
C496   C719    1.529   .     S
C496   H753    1.109   .     S
C497   H541    1.096   .     S
C497   C498    1.535   .     S
C497   H540    1.079   .     S
C498   H538    1.097   .     S
C498   H539    1.106   .     S
C498   C499    1.529   .     S
C499   H534    1.106   .     S
C499   H537    1.110   .     S
C499   H2328   1.103   1_554 S
C500   H549    1.105   .     S
C500   H548    1.059   .     S
C500   C501    1.537   .     S
C501   C502    1.537   .     S
C501   H545    1.103   .     S
C501   H547    1.105   .     S
C502   H543    1.110   .     S
C502   H542    1.105   .     S
C502   H544    1.107   .     S
C503   H555    1.068   .     S
C503   C505    1.534   .     S
C503   H556    1.100   .     S
C504   O591    1.297   .     A
C504   O590    1.339   .     A
C505   H553    1.101   .     S
C505   H554    1.107   .     S
C505   C506    1.525   .     S
C506   H550    1.097   .     S
C506   H552    1.111   .     S
C506   H551    1.099   .     S
C507   H564    1.086   .     S
C507   C508    1.542   .     S
C507   H563    1.097   .     S
C508   H562    1.103   .     S
C508   H561    1.071   .     S
C508   C509    1.518   .     S
C509   H558    1.105   .     S
C509   H560    1.110   .     S
C509   H559    1.104   .     S
C510   O596    1.323   .     A
C510   O593    1.313   .     A
C511   O594    1.326   .     A
C511   O595    1.313   .     A
C512   N586    1.389   .     A
C512   C2468   1.437   1_454 S
H515   C712    1.103   .     S
H516   C712    1.093   .     S
H519   C716    1.104   1_455 S
H521   C716    1.111   1_455 S
H524   C710    1.099   .     S
H529   C720    1.109   1_455 S
H535   C710    1.108   .     S
H536   C1395   1.103   .     S
H546   C709    1.094   .     S
H565   O599    0.991   .     S
H566   O603    0.990   .     S
H567   O606    0.990   .     S
H569   O609    0.991   .     S
H570   O613    0.990   .     S
H571   O616    0.991   .     S
H572   O619    0.990   .     S
H573   O623    0.990   .     S
H574   O626    0.991   .     S
H575   O181    0.985   1_565 S
H576   O632    0.991   .     S
H578   O639    0.991   .     S
H580   O642    0.986   .     S
H581   O646    0.991   .     S
H582   O649    0.989   .     S
N585   C676    1.389   1_455 S
N585   Zn669   2.055   .     S
N586   Zn670   2.055   .     S
N586   C675    1.384   1_455 S
N587   Zn671   2.055   .     S
N588   Zn672   2.055   .     S
O589   Zn669   2.078   .     S
O590   Zn672   2.078   .     S
O591   Zn671   2.042   .     S
O592   Zn224   2.042   1_565 S
O593   Zn224   2.042   1_565 S
O594   Zn671   2.042   .     S
O595   Zn672   2.058   .     S
O596   Zn223   2.058   1_565 S
O597   S653    1.500   .     D
O598   S653    1.500   .     D
O599   S653    1.678   .     S
O600   Zn894   2.078   .     S
O601   S661    1.498   .     D
O602   S661    1.499   .     D
O603   S661    1.672   .     S
O604   S662    1.491   .     D
O605   S662    1.502   .     D
O606   S662    1.682   .     S
O607   S663    1.498   .     D
O608   S663    1.490   .     D
O609   S663    1.671   .     S
O610   S664    1.496   .     D
O611   Zn893   2.042   .     S
O612   S664    1.500   .     D
O613   S664    1.673   .     S
O614   S665    1.494   .     D
O615   S665    1.496   .     D
O616   S665    1.670   .     S
O617   S666    1.497   .     D
O618   S666    1.502   .     D
O619   S666    1.678   .     S
O620   S667    1.491   .     D
O621   S667    1.500   .     D
O622   Zn670   2.042   .     S
O623   S667    1.681   .     S
O624   S668    1.497   .     D
O625   S668    1.499   .     D
O626   S668    1.677   .     S
O627   S654    1.499   .     D
O628   S654    1.498   .     D
O629   S654    1.681   .     S
O630   S655    1.490   .     D
O631   S655    1.491   .     D
O632   S655    1.682   .     S
O633   Zn894   2.042   .     S
O634   S656    1.499   .     D
O635   S656    1.502   .     D
O636   S656    1.670   .     S
O636   H129    0.988   1_565 S
O637   S657    1.494   .     D
O638   S657    1.494   .     D
O639   S657    1.667   .     S
O640   S658    1.498   .     D
O641   S658    1.500   .     D
O642   S658    1.664   .     S
O643   S659    1.491   .     D
O644   Zn669   2.042   .     S
O645   S659    1.490   .     D
O646   S659    1.667   .     S
O647   S660    1.501   .     D
O648   S660    1.504   .     D
O649   S660    1.657   .     S
O650   Zn670   2.058   .     S
O651   Zn893   2.058   .     S
O652   Zn223   2.078   1_565 S
Zn669  O875    2.058   1_455 S
Zn669  O835    2.042   1_455 S
Zn670  O857    2.042   1_455 S
Zn670  O824    2.078   1_455 S
C673   O846    1.293   .     A
C673   C702    1.486   .     S
C673   O813    1.338   .     A
C674   C711    1.519   .     S
C674   N809    1.382   .     A
C674   C1347   1.429   .     S
C675   C714    1.512   .     S
C675   C2242   1.429   1_654 S
C675   N586    1.384   1_655 S
C676   C718    1.535   .     S
C676   C1408   1.437   1_655 S
C676   N585    1.389   1_655 S
C677   C721    1.541   .     S
C677   N812    1.379   .     A
C677   C2472   1.447   1_554 S
C678   C724    1.519   .     S
C678   C1575   1.436   .     S
C678   N363    1.381   1_565 S
C679   C727    1.543   .     S
C679   C2470   1.436   1_554 S
C679   N364    1.393   1_565 S
C680   N811    1.410   .     A
C680   C731    1.549   .     S
C680   C1573   1.447   .     S
C681   C692    1.394   .     A
C681   S877    1.767   .     S
C681   C700    1.402   .     A
C682   C699    1.427   .     A
C682   C693    1.401   .     A
C682   S885    1.800   .     S
C683   C690    1.385   .     A
C683   C699    1.388   .     A
C683   S886    1.747   .     S
C684   C701    1.478   .     S
C684   O824    1.302   .     A
C684   O835    1.327   .     A
C685   C700    1.423   .     A
C685   C691    1.406   .     A
C685   S887    1.803   .     S
C686   C702    1.396   .     A
C686   S888    1.771   .     S
C686   C697    1.403   .     A
C687   S889    1.810   .     S
C687   C701    1.415   .     A
C687   C698    1.411   .     A
C688   S890    1.775   .     S
C688   C701    1.397   .     A
C688   C694    1.395   .     A
C689   S891    1.797   .     S
C689   C702    1.422   .     A
C689   C696    1.394   .     A
C690   S892    1.772   .     S
C690   C704    1.416   .     A
C691   C703    1.410   .     A
C691   S878    1.775   .     S
C692   S879    1.773   .     S
C692   C703    1.412   .     A
C693   C704    1.418   .     A
C693   S880    1.772   .     S
C694   C707    1.424   .     A
C694   S881    1.781   .     S
C695   O857    1.335   .     A
C695   C700    1.491   .     S
C695   O875    1.301   .     A
C696   S882    1.767   .     S
C696   C705    1.409   .     A
C697   S883    1.803   .     S
C697   C705    1.434   .     A
C698   S884    1.784   .     S
C698   C707    1.437   .     A
C699   C706    1.483   .     S
C703   C735    1.497   .     S
C704   C734    1.489   .     S
C705   C728    1.493   .     S
C706   O874    1.341   .     A
C706   O868    1.289   .     A
C707   C717    1.507   .     S
C708   C709    1.545   .     S
C708   H803    1.108   .     S
C708   H792    1.105   .     S
C708   C736    1.525   .     S
C709   H781    1.107   .     S
C709   C710    1.534   .     S
C710   H737    1.109   .     S
C711   C712    1.536   .     S
C711   H741    1.087   .     S
C711   H742    1.109   .     S
C712   C713    1.506   .     S
C713   H807    1.105   .     S
C713   H738    1.107   .     S
C713   H808    1.110   .     S
C714   H750    1.100   .     S
C714   H749    1.081   .     S
C714   C491    1.537   1_655 S
C715   H747    1.098   .     S
C715   H746    1.112   .     S
C716   H744    1.102   .     S
C716   C491    1.530   1_655 S
C716   H519    1.104   1_655 S
C716   H521    1.111   1_655 S
C717   O816    1.316   .     A
C717   O876    1.328   .     A
C718   H757    1.094   .     S
C718   H756    1.092   .     S
C718   C495    1.543   1_655 S
C719   H754    1.099   .     S
C719   H755    1.092   .     S
C720   H751    1.108   .     S
C720   H752    1.106   .     S
C720   C495    1.529   1_655 S
C720   H529    1.109   1_655 S
C721   H765    1.096   .     S
C721   C722    1.535   .     S
C721   H764    1.079   .     S
C722   H762    1.097   .     S
C722   H763    1.106   .     S
C722   C723    1.529   .     S
C723   H758    1.106   .     S
C723   H761    1.110   .     S
C723   H2552   1.103   1_554 S
C724   H773    1.105   .     S
C724   H772    1.059   .     S
C724   C725    1.537   .     S
C725   C726    1.537   .     S
C725   H769    1.103   .     S
C725   H771    1.105   .     S
C726   H767    1.110   .     S
C726   H766    1.105   .     S
C726   H768    1.107   .     S
C727   H779    1.068   .     S
C727   C729    1.534   .     S
C727   H780    1.100   .     S
C728   O815    1.297   .     A
C728   O814    1.339   .     A
C729   H777    1.101   .     S
C729   H778    1.107   .     S
C729   C730    1.525   .     S
C730   H774    1.097   .     S
C730   H776    1.111   .     S
C730   H775    1.099   .     S
C731   H788    1.086   .     S
C731   C732    1.542   .     S
C731   H787    1.097   .     S
C732   H786    1.103   .     S
C732   H785    1.071   .     S
C732   C733    1.518   .     S
C733   H782    1.105   .     S
C733   H784    1.110   .     S
C733   H783    1.104   .     S
C734   O820    1.323   .     A
C734   O817    1.313   .     A
C735   O818    1.326   .     A
C735   O819    1.313   .     A
C736   N810    1.389   .     A
C736   C2244   1.437   1_554 S
H739   C488    1.103   1_655 S
H740   C488    1.093   1_655 S
H748   C486    1.099   1_655 S
H759   C486    1.108   1_655 S
H760   C1619   1.103   .     S
H770   C485    1.094   1_655 S
H789   O823    0.991   .     S
H790   O827    0.990   .     S
H791   O830    0.990   .     S
H793   O833    0.991   .     S
H794   O837    0.990   .     S
H795   O840    0.991   .     S
H796   O843    0.990   .     S
H797   O847    0.990   .     S
H798   O850    0.991   .     S
H799   O405    0.985   1_565 S
H800   O856    0.991   .     S
H802   O863    0.991   .     S
H804   O866    0.986   .     S
H805   O870    0.991   .     S
H806   O873    0.989   .     S
N809   Zn893   2.055   .     S
N810   Zn894   2.055   .     S
N811   Zn895   2.055   .     S
N812   Zn896   2.055   .     S
O813   Zn893   2.078   .     S
O814   Zn896   2.078   .     S
O815   Zn895   2.042   .     S
O816   Zn448   2.042   1_565 S
O817   Zn448   2.042   1_565 S
O818   Zn895   2.042   .     S
O819   Zn896   2.058   .     S
O820   Zn447   2.058   1_565 S
O821   S877    1.500   .     D
O822   S877    1.500   .     D
O823   S877    1.678   .     S
O824   Zn670   2.078   1_655 S
O825   S885    1.498   .     D
O826   S885    1.499   .     D
O827   S885    1.672   .     S
O828   S886    1.491   .     D
O829   S886    1.502   .     D
O830   S886    1.682   .     S
O831   S887    1.498   .     D
O832   S887    1.490   .     D
O833   S887    1.671   .     S
O834   S888    1.496   .     D
O835   Zn669   2.042   1_655 S
O836   S888    1.500   .     D
O837   S888    1.673   .     S
O838   S889    1.494   .     D
O839   S889    1.496   .     D
O840   S889    1.670   .     S
O841   S890    1.497   .     D
O842   S890    1.502   .     D
O843   S890    1.678   .     S
O844   S891    1.491   .     D
O845   S891    1.500   .     D
O846   Zn894   2.042   .     S
O847   S891    1.681   .     S
O848   S892    1.497   .     D
O849   S892    1.499   .     D
O850   S892    1.677   .     S
O851   S878    1.499   .     D
O852   S878    1.498   .     D
O853   S878    1.681   .     S
O854   S879    1.490   .     D
O855   S879    1.491   .     D
O856   S879    1.682   .     S
O857   Zn670   2.042   1_655 S
O858   S880    1.499   .     D
O859   S880    1.502   .     D
O860   S880    1.670   .     S
O860   H353    0.988   1_565 S
O861   S881    1.494   .     D
O862   S881    1.494   .     D
O863   S881    1.667   .     S
O864   S882    1.498   .     D
O865   S882    1.500   .     D
O866   S882    1.664   .     S
O867   S883    1.491   .     D
O868   Zn893   2.042   .     S
O869   S883    1.490   .     D
O870   S883    1.667   .     S
O871   S884    1.501   .     D
O872   S884    1.504   .     D
O873   S884    1.657   .     S
O874   Zn894   2.058   .     S
O875   Zn669   2.058   1_655 S
O876   Zn447   2.078   1_565 S
C897   O1070   1.293   .     A
C897   C926    1.486   .     S
C897   O1037   1.338   .     A
C898   C935    1.519   .     S
C898   N1033   1.382   .     A
C898   C2019   1.429   1_455 S
C899   C938    1.512   .     S
C899   N1258   1.384   .     S
C900   C942    1.535   .     S
C900   C2080   1.437   .     S
C900   N1257   1.389   .     S
C901   C945    1.541   .     S
C901   N1036   1.379   .     A
C902   C948    1.519   .     S
C902   C1799   1.436   .     S
C902   N1483   1.381   .     S
C903   C951    1.543   .     S
C903   N1484   1.393   .     S
C904   N1035   1.410   .     A
C904   C955    1.549   .     S
C904   C1797   1.447   .     S
C905   C916    1.394   .     A
C905   S1101   1.767   .     S
C905   C924    1.402   .     A
C906   C923    1.427   .     A
C906   C917    1.401   .     A
C906   S1109   1.800   .     S
C907   C914    1.385   .     A
C907   C923    1.388   .     A
C907   S1110   1.747   .     S
C908   C925    1.478   .     S
C908   O1048   1.302   .     A
C908   O1059   1.327   .     A
C909   C924    1.423   .     A
C909   C915    1.406   .     A
C909   S1111   1.803   .     S
C910   C926    1.396   .     A
C910   S1112   1.771   .     S
C910   C921    1.403   .     A
C911   S1113   1.810   .     S
C911   C925    1.415   .     A
C911   C922    1.411   .     A
C912   S1114   1.775   .     S
C912   C925    1.397   .     A
C912   C918    1.395   .     A
C913   S1115   1.797   .     S
C913   C926    1.422   .     A
C913   C920    1.394   .     A
C914   S1116   1.772   .     S
C914   C928    1.416   .     A
C915   C927    1.410   .     A
C915   S1102   1.775   .     S
C916   S1103   1.773   .     S
C916   C927    1.412   .     A
C917   C928    1.418   .     A
C917   S1104   1.772   .     S
C918   C931    1.424   .     A
C918   S1105   1.781   .     S
C919   O1081   1.335   .     A
C919   C924    1.491   .     S
C919   O1099   1.301   .     A
C920   S1106   1.767   .     S
C920   C929    1.409   .     A
C921   S1107   1.803   .     S
C921   C929    1.434   .     A
C922   S1108   1.784   .     S
C922   C931    1.437   .     A
C923   C930    1.483   .     S
C927   C959    1.497   .     S
C928   C958    1.489   .     S
C929   C952    1.493   .     S
C930   O1098   1.341   .     A
C930   O1092   1.289   .     A
C931   C941    1.507   .     S
C932   C933    1.545   .     S
C932   H1027   1.108   .     S
C932   H1016   1.105   .     S
C932   C960    1.525   .     S
C933   H1005   1.107   .     S
C933   C934    1.534   .     S
C933   H1218   1.094   1_455 S
C934   H961    1.109   .     S
C934   H1196   1.099   1_455 S
C934   H1207   1.108   1_455 S
C935   C936    1.536   .     S
C935   H965    1.087   .     S
C935   H966    1.109   .     S
C936   C937    1.506   .     S
C936   H1187   1.103   1_455 S
C936   H1188   1.093   1_455 S
C937   H1031   1.105   .     S
C937   H962    1.107   .     S
C937   H1032   1.110   .     S
C938   H974    1.100   .     S
C938   H973    1.081   .     S
C938   C1163   1.537   .     S
C939   H971    1.098   .     S
C939   H970    1.112   .     S
C939   C1162   1.537   1_455 S
C939   C1164   1.530   1_455 S
C940   H968    1.102   .     S
C940   C1163   1.530   .     S
C940   H1191   1.104   .     S
C940   H1193   1.111   .     S
C941   O1040   1.316   .     A
C941   O1100   1.328   .     A
C942   H981    1.094   .     S
C942   H980    1.092   .     S
C942   C1167   1.543   .     S
C943   H978    1.099   .     S
C943   H979    1.092   .     S
C943   C1166   1.543   1_455 S
C943   C1168   1.529   1_455 S
C944   H975    1.108   .     S
C944   H976    1.106   .     S
C944   C1167   1.529   .     S
C944   H1201   1.109   .     S
C945   H989    1.096   .     S
C945   C946    1.535   .     S
C945   H988    1.079   .     S
C946   H986    1.097   .     S
C946   H987    1.106   .     S
C946   C947    1.529   .     S
C947   H982    1.106   .     S
C947   H985    1.110   .     S
C948   H997    1.105   .     S
C948   H996    1.059   .     S
C948   C949    1.537   .     S
C949   C950    1.537   .     S
C949   H993    1.103   .     S
C949   H995    1.105   .     S
C950   H991    1.110   .     S
C950   H990    1.105   .     S
C950   H992    1.107   .     S
C951   H1003   1.068   .     S
C951   C953    1.534   .     S
C951   H1004   1.100   .     S
C952   O1039   1.297   .     A
C952   O1038   1.339   .     A
C953   H1001   1.101   .     S
C953   H1002   1.107   .     S
C953   C954    1.525   .     S
C954   H998    1.097   .     S
C954   H1000   1.111   .     S
C954   H999    1.099   .     S
C955   H1012   1.086   .     S
C955   C956    1.542   .     S
C955   H1011   1.097   .     S
C956   H1010   1.103   .     S
C956   H1009   1.071   .     S
C956   C957    1.518   .     S
C957   H1006   1.105   .     S
C957   H1008   1.110   .     S
C957   H1007   1.104   .     S
C958   O1044   1.323   .     A
C958   O1041   1.313   .     A
C959   O1042   1.326   .     A
C959   O1043   1.313   .     A
C960   N1034   1.389   .     A
C960   C228    1.437   1_455 S
H963   C1160   1.103   .     S
H964   C1160   1.093   .     S
H967   C1164   1.104   1_455 S
H969   C1164   1.111   1_455 S
H972   C1158   1.099   .     S
H977   C1168   1.109   1_455 S
H983   C1158   1.108   .     S
H984   C1843   1.103   .     S
H994   C1157   1.094   .     S
H1013  O1047   0.991   .     S
H1014  O1051   0.990   .     S
H1015  O1054   0.990   .     S
H1017  O1057   0.991   .     S
H1018  O1061   0.990   .     S
H1019  O1064   0.991   .     S
H1020  O1067   0.990   .     S
H1021  O1071   0.990   .     S
H1022  O1074   0.991   .     S
H1023  O1525   0.985   .     S
H1024  O1080   0.991   .     S
H1025  O1532   0.988   1_545 S
H1026  O1087   0.991   .     S
H1028  O1090   0.986   .     S
H1029  O1094   0.991   .     S
H1030  O1097   0.989   .     S
N1033  C1124   1.389   1_455 S
N1033  Zn1117  2.055   .     S
N1034  Zn1118  2.055   .     S
N1034  C1123   1.384   1_455 S
N1035  Zn1119  2.055   .     S
N1035  C1350   1.381   1_545 S
N1036  Zn1120  2.055   .     S
N1036  C1351   1.393   1_545 S
O1037  Zn1117  2.078   .     S
O1038  Zn1120  2.078   .     S
O1039  Zn1119  2.042   .     S
O1040  Zn1568  2.042   .     S
O1041  Zn1568  2.042   .     S
O1042  Zn1119  2.042   .     S
O1043  Zn1120  2.058   .     S
O1044  Zn1567  2.058   .     S
O1045  S1101   1.500   .     D
O1046  S1101   1.500   .     D
O1047  S1101   1.678   .     S
O1048  Zn1342  2.078   .     S
O1049  S1109   1.498   .     D
O1050  S1109   1.499   .     D
O1051  S1109   1.672   .     S
O1052  S1110   1.491   .     D
O1053  S1110   1.502   .     D
O1054  S1110   1.682   .     S
O1055  S1111   1.498   .     D
O1056  S1111   1.490   .     D
O1057  S1111   1.671   .     S
O1058  S1112   1.496   .     D
O1059  Zn1341  2.042   .     S
O1060  S1112   1.500   .     D
O1061  S1112   1.673   .     S
O1062  S1113   1.494   .     D
O1063  S1113   1.496   .     D
O1064  S1113   1.670   .     S
O1065  S1114   1.497   .     D
O1066  S1114   1.502   .     D
O1067  S1114   1.678   .     S
O1068  S1115   1.491   .     D
O1069  S1115   1.500   .     D
O1070  Zn1118  2.042   .     S
O1071  S1115   1.681   .     S
O1072  S1116   1.497   .     D
O1073  S1116   1.499   .     D
O1074  S1116   1.677   .     S
O1075  S1102   1.499   .     D
O1076  S1102   1.498   .     D
O1077  S1102   1.681   .     S
O1077  H1471   0.985   1_545 S
O1078  S1103   1.490   .     D
O1079  S1103   1.491   .     D
O1080  S1103   1.682   .     S
O1081  Zn1342  2.042   .     S
O1082  S1104   1.499   .     D
O1083  S1104   1.502   .     D
O1084  S1104   1.670   .     S
O1084  H1473   0.988   .     S
O1085  S1105   1.494   .     D
O1086  S1105   1.494   .     D
O1087  S1105   1.667   .     S
O1088  S1106   1.498   .     D
O1089  S1106   1.500   .     D
O1090  S1106   1.664   .     S
O1091  S1107   1.491   .     D
O1092  Zn1117  2.042   .     S
O1093  S1107   1.490   .     D
O1094  S1107   1.667   .     S
O1095  S1108   1.501   .     D
O1096  S1108   1.504   .     D
O1097  S1108   1.657   .     S
O1098  Zn1118  2.058   .     S
O1099  Zn1341  2.058   .     S
O1100  Zn1567  2.078   .     S
Zn1117 O1323   2.058   1_455 S
Zn1117 O1283   2.042   1_455 S
Zn1118 O1305   2.042   1_455 S
Zn1118 O1272   2.078   1_455 S
Zn1119 O1492   2.058   1_545 S
Zn1119 O1548   2.078   1_545 S
Zn1120 O1489   2.042   1_545 S
Zn1120 O1488   2.042   1_545 S
C1121  O1294   1.293   .     A
C1121  C1150   1.486   .     S
C1121  O1261   1.338   .     A
C1122  C1159   1.519   .     S
C1122  N1257   1.382   .     A
C1122  C1795   1.429   .     S
C1123  C1162   1.512   .     S
C1123  C2      1.429   1_655 S
C1123  N1034   1.384   1_655 S
C1124  C1166   1.535   .     S
C1124  C1856   1.437   1_655 S
C1124  N1033   1.389   1_655 S
C1125  C1169   1.541   .     S
C1125  N1260   1.379   .     A
C1126  C1172   1.519   .     S
C1126  C2023   1.436   .     S
C1126  N1707   1.381   .     S
C1127  C1175   1.543   .     S
C1127  N1708   1.393   .     S
C1128  N1259   1.410   .     A
C1128  C1179   1.549   .     S
C1128  C2021   1.447   .     S
C1129  C1140   1.394   .     A
C1129  S1325   1.767   .     S
C1129  C1148   1.402   .     A
C1130  C1147   1.427   .     A
C1130  C1141   1.401   .     A
C1130  S1333   1.800   .     S
C1131  C1138   1.385   .     A
C1131  C1147   1.388   .     A
C1131  S1334   1.747   .     S
C1132  C1149   1.478   .     S
C1132  O1272   1.302   .     A
C1132  O1283   1.327   .     A
C1133  C1148   1.423   .     A
C1133  C1139   1.406   .     A
C1133  S1335   1.803   .     S
C1134  C1150   1.396   .     A
C1134  S1336   1.771   .     S
C1134  C1145   1.403   .     A
C1135  S1337   1.810   .     S
C1135  C1149   1.415   .     A
C1135  C1146   1.411   .     A
C1136  S1338   1.775   .     S
C1136  C1149   1.397   .     A
C1136  C1142   1.395   .     A
C1137  S1339   1.797   .     S
C1137  C1150   1.422   .     A
C1137  C1144   1.394   .     A
C1138  S1340   1.772   .     S
C1138  C1152   1.416   .     A
C1139  C1151   1.410   .     A
C1139  S1326   1.775   .     S
C1140  S1327   1.773   .     S
C1140  C1151   1.412   .     A
C1141  C1152   1.418   .     A
C1141  S1328   1.772   .     S
C1142  C1155   1.424   .     A
C1142  S1329   1.781   .     S
C1143  O1305   1.335   .     A
C1143  C1148   1.491   .     S
C1143  O1323   1.301   .     A
C1144  S1330   1.767   .     S
C1144  C1153   1.409   .     A
C1145  S1331   1.803   .     S
C1145  C1153   1.434   .     A
C1146  S1332   1.784   .     S
C1146  C1155   1.437   .     A
C1147  C1154   1.483   .     S
C1151  C1183   1.497   .     S
C1152  C1182   1.489   .     S
C1153  C1176   1.493   .     S
C1154  O1322   1.341   .     A
C1154  O1316   1.289   .     A
C1155  C1165   1.507   .     S
C1156  C1157   1.545   .     S
C1156  H1251   1.108   .     S
C1156  H1240   1.105   .     S
C1156  C1184   1.525   .     S
C1157  H1229   1.107   .     S
C1157  C1158   1.534   .     S
C1158  H1185   1.109   .     S
C1159  C1160   1.536   .     S
C1159  H1189   1.087   .     S
C1159  H1190   1.109   .     S
C1160  C1161   1.506   .     S
C1161  H1255   1.105   .     S
C1161  H1186   1.107   .     S
C1161  H1256   1.110   .     S
C1162  H1198   1.100   .     S
C1162  H1197   1.081   .     S
C1162  C939    1.537   1_655 S
C1163  H1195   1.098   .     S
C1163  H1194   1.112   .     S
C1164  H1192   1.102   .     S
C1164  C939    1.530   1_655 S
C1164  H967    1.104   1_655 S
C1164  H969    1.111   1_655 S
C1165  O1264   1.316   .     A
C1165  O1324   1.328   .     A
C1166  H1205   1.094   .     S
C1166  H1204   1.092   .     S
C1166  C943    1.543   1_655 S
C1167  H1202   1.099   .     S
C1167  H1203   1.092   .     S
C1168  H1199   1.108   .     S
C1168  H1200   1.106   .     S
C1168  C943    1.529   1_655 S
C1168  H977    1.109   1_655 S
C1169  H1213   1.096   .     S
C1169  C1170   1.535   .     S
C1169  H1212   1.079   .     S
C1170  H1210   1.097   .     S
C1170  H1211   1.106   .     S
C1170  C1171   1.529   .     S
C1171  H1206   1.106   .     S
C1171  H1209   1.110   .     S
C1172  H1221   1.105   .     S
C1172  H1220   1.059   .     S
C1172  C1173   1.537   .     S
C1173  C1174   1.537   .     S
C1173  H1217   1.103   .     S
C1173  H1219   1.105   .     S
C1174  H1215   1.110   .     S
C1174  H1214   1.105   .     S
C1174  H1216   1.107   .     S
C1175  H1227   1.068   .     S
C1175  C1177   1.534   .     S
C1175  H1228   1.100   .     S
C1176  O1263   1.297   .     A
C1176  O1262   1.339   .     A
C1177  H1225   1.101   .     S
C1177  H1226   1.107   .     S
C1177  C1178   1.525   .     S
C1178  H1222   1.097   .     S
C1178  H1224   1.111   .     S
C1178  H1223   1.099   .     S
C1179  H1236   1.086   .     S
C1179  C1180   1.542   .     S
C1179  H1235   1.097   .     S
C1180  H1234   1.103   .     S
C1180  H1233   1.071   .     S
C1180  C1181   1.518   .     S
C1181  H1230   1.105   .     S
C1181  H1232   1.110   .     S
C1181  H1231   1.104   .     S
C1182  O1268   1.323   .     A
C1182  O1265   1.313   .     A
C1183  O1266   1.326   .     A
C1183  O1267   1.313   .     A
C1184  N1258   1.389   .     A
H1187  C936    1.103   1_655 S
H1188  C936    1.093   1_655 S
H1196  C934    1.099   1_655 S
H1207  C934    1.108   1_655 S
H1208  C2067   1.103   .     S
H1218  C933    1.094   1_655 S
H1237  O1271   0.991   .     S
H1238  O1275   0.990   .     S
H1239  O1278   0.990   .     S
H1241  O1281   0.991   .     S
H1242  O1285   0.990   .     S
H1243  O1288   0.991   .     S
H1244  O1291   0.990   .     S
H1245  O1295   0.990   .     S
H1246  O1298   0.991   .     S
H1247  O1749   0.985   .     S
H1248  O1304   0.991   .     S
H1249  O1756   0.988   1_545 S
H1250  O1311   0.991   .     S
H1252  O1314   0.986   .     S
H1253  O1318   0.991   .     S
H1254  O1321   0.989   .     S
N1257  Zn1341  2.055   .     S
N1258  Zn1342  2.055   .     S
N1259  Zn1343  2.055   .     S
N1259  C1574   1.381   1_545 S
N1260  Zn1344  2.055   .     S
N1260  C1575   1.393   1_545 S
O1261  Zn1341  2.078   .     S
O1262  Zn1344  2.078   .     S
O1263  Zn1343  2.042   .     S
O1264  Zn1792  2.042   .     S
O1265  Zn1792  2.042   .     S
O1266  Zn1343  2.042   .     S
O1267  Zn1344  2.058   .     S
O1268  Zn1791  2.058   .     S
O1269  S1325   1.500   .     D
O1270  S1325   1.500   .     D
O1271  S1325   1.678   .     S
O1272  Zn1118  2.078   1_655 S
O1273  S1333   1.498   .     D
O1274  S1333   1.499   .     D
O1275  S1333   1.672   .     S
O1276  S1334   1.491   .     D
O1277  S1334   1.502   .     D
O1278  S1334   1.682   .     S
O1279  S1335   1.498   .     D
O1280  S1335   1.490   .     D
O1281  S1335   1.671   .     S
O1282  S1336   1.496   .     D
O1283  Zn1117  2.042   1_655 S
O1284  S1336   1.500   .     D
O1285  S1336   1.673   .     S
O1286  S1337   1.494   .     D
O1287  S1337   1.496   .     D
O1288  S1337   1.670   .     S
O1289  S1338   1.497   .     D
O1290  S1338   1.502   .     D
O1291  S1338   1.678   .     S
O1292  S1339   1.491   .     D
O1293  S1339   1.500   .     D
O1294  Zn1342  2.042   .     S
O1295  S1339   1.681   .     S
O1296  S1340   1.497   .     D
O1297  S1340   1.499   .     D
O1298  S1340   1.677   .     S
O1299  S1326   1.499   .     D
O1300  S1326   1.498   .     D
O1301  S1326   1.681   .     S
O1301  H1695   0.985   1_545 S
O1302  S1327   1.490   .     D
O1303  S1327   1.491   .     D
O1304  S1327   1.682   .     S
O1305  Zn1118  2.042   1_655 S
O1306  S1328   1.499   .     D
O1307  S1328   1.502   .     D
O1308  S1328   1.670   .     S
O1308  H1697   0.988   .     S
O1309  S1329   1.494   .     D
O1310  S1329   1.494   .     D
O1311  S1329   1.667   .     S
O1312  S1330   1.498   .     D
O1313  S1330   1.500   .     D
O1314  S1330   1.664   .     S
O1315  S1331   1.491   .     D
O1316  Zn1341  2.042   .     S
O1317  S1331   1.490   .     D
O1318  S1331   1.667   .     S
O1319  S1332   1.501   .     D
O1320  S1332   1.504   .     D
O1321  S1332   1.657   .     S
O1322  Zn1342  2.058   .     S
O1323  Zn1117  2.058   1_655 S
O1324  Zn1791  2.078   .     S
Zn1343 O1716   2.058   1_545 S
Zn1343 O1772   2.078   1_545 S
Zn1344 O1713   2.042   1_545 S
Zn1344 O1712   2.042   1_545 S
C1345  O1518   1.293   .     A
C1345  C1374   1.486   .     S
C1345  O1485   1.338   .     A
C1346  C1383   1.519   .     S
C1346  N1481   1.382   .     A
C1346  C2467   1.429   1_455 S
C1347  C1386   1.512   .     S
C1347  N1706   1.384   .     S
C1348  C1390   1.535   .     S
C1348  C2528   1.437   .     S
C1348  N1705   1.389   .     S
C1349  C1393   1.541   .     S
C1349  N1484   1.379   .     A
C1350  C1396   1.519   .     S
C1350  C2247   1.436   .     S
C1350  N1035   1.381   1_565 S
C1351  C1399   1.543   .     S
C1351  N1036   1.393   1_565 S
C1352  N1483   1.410   .     A
C1352  C1403   1.549   .     S
C1352  C2245   1.447   .     S
C1353  C1364   1.394   .     A
C1353  S1549   1.767   .     S
C1353  C1372   1.402   .     A
C1354  C1371   1.427   .     A
C1354  C1365   1.401   .     A
C1354  S1557   1.800   .     S
C1355  C1362   1.385   .     A
C1355  C1371   1.388   .     A
C1355  S1558   1.747   .     S
C1356  C1373   1.478   .     S
C1356  O1496   1.302   .     A
C1356  O1507   1.327   .     A
C1357  C1372   1.423   .     A
C1357  C1363   1.406   .     A
C1357  S1559   1.803   .     S
C1358  C1374   1.396   .     A
C1358  S1560   1.771   .     S
C1358  C1369   1.403   .     A
C1359  S1561   1.810   .     S
C1359  C1373   1.415   .     A
C1359  C1370   1.411   .     A
C1360  S1562   1.775   .     S
C1360  C1373   1.397   .     A
C1360  C1366   1.395   .     A
C1361  S1563   1.797   .     S
C1361  C1374   1.422   .     A
C1361  C1368   1.394   .     A
C1362  S1564   1.772   .     S
C1362  C1376   1.416   .     A
C1363  C1375   1.410   .     A
C1363  S1550   1.775   .     S
C1364  S1551   1.773   .     S
C1364  C1375   1.412   .     A
C1365  C1376   1.418   .     A
C1365  S1552   1.772   .     S
C1366  C1379   1.424   .     A
C1366  S1553   1.781   .     S
C1367  O1529   1.335   .     A
C1367  C1372   1.491   .     S
C1367  O1547   1.301   .     A
C1368  S1554   1.767   .     S
C1368  C1377   1.409   .     A
C1369  S1555   1.803   .     S
C1369  C1377   1.434   .     A
C1370  S1556   1.784   .     S
C1370  C1379   1.437   .     A
C1371  C1378   1.483   .     S
C1375  C1407   1.497   .     S
C1376  C1406   1.489   .     S
C1377  C1400   1.493   .     S
C1378  O1546   1.341   .     A
C1378  O1540   1.289   .     A
C1379  C1389   1.507   .     S
C1380  C1381   1.545   .     S
C1380  H1475   1.108   .     S
C1380  H1464   1.105   .     S
C1380  C1408   1.525   .     S
C1381  H1453   1.107   .     S
C1381  C1382   1.534   .     S
C1381  H1666   1.094   1_455 S
C1382  H1409   1.109   .     S
C1382  H1644   1.099   1_455 S
C1382  H1655   1.108   1_455 S
C1383  C1384   1.536   .     S
C1383  H1413   1.087   .     S
C1383  H1414   1.109   .     S
C1384  C1385   1.506   .     S
C1384  H1635   1.103   1_455 S
C1384  H1636   1.093   1_455 S
C1385  H1479   1.105   .     S
C1385  H1410   1.107   .     S
C1385  H1480   1.110   .     S
C1386  H1422   1.100   .     S
C1386  H1421   1.081   .     S
C1386  C1611   1.537   .     S
C1387  H1419   1.098   .     S
C1387  H1418   1.112   .     S
C1387  C1610   1.537   1_455 S
C1387  C1612   1.530   1_455 S
C1388  H1416   1.102   .     S
C1388  C1611   1.530   .     S
C1388  H1639   1.104   .     S
C1388  H1641   1.111   .     S
C1389  O1488   1.316   .     A
C1389  O1548   1.328   .     A
C1390  H1429   1.094   .     S
C1390  H1428   1.092   .     S
C1390  C1615   1.543   .     S
C1391  H1426   1.099   .     S
C1391  H1427   1.092   .     S
C1391  C1614   1.543   1_455 S
C1391  C1616   1.529   1_455 S
C1392  H1423   1.108   .     S
C1392  H1424   1.106   .     S
C1392  C1615   1.529   .     S
C1392  H1649   1.109   .     S
C1393  H1437   1.096   .     S
C1393  C1394   1.535   .     S
C1393  H1436   1.079   .     S
C1394  H1434   1.097   .     S
C1394  H1435   1.106   .     S
C1394  C1395   1.529   .     S
C1395  H1430   1.106   .     S
C1395  H1433   1.110   .     S
C1396  H1445   1.105   .     S
C1396  H1444   1.059   .     S
C1396  C1397   1.537   .     S
C1397  C1398   1.537   .     S
C1397  H1441   1.103   .     S
C1397  H1443   1.105   .     S
C1398  H1439   1.110   .     S
C1398  H1438   1.105   .     S
C1398  H1440   1.107   .     S
C1399  H1451   1.068   .     S
C1399  C1401   1.534   .     S
C1399  H1452   1.100   .     S
C1400  O1487   1.297   .     A
C1400  O1486   1.339   .     A
C1401  H1449   1.101   .     S
C1401  H1450   1.107   .     S
C1401  C1402   1.525   .     S
C1402  H1446   1.097   .     S
C1402  H1448   1.111   .     S
C1402  H1447   1.099   .     S
C1403  H1460   1.086   .     S
C1403  C1404   1.542   .     S
C1403  H1459   1.097   .     S
C1404  H1458   1.103   .     S
C1404  H1457   1.071   .     S
C1404  C1405   1.518   .     S
C1405  H1454   1.105   .     S
C1405  H1456   1.110   .     S
C1405  H1455   1.104   .     S
C1406  O1492   1.323   .     A
C1406  O1489   1.313   .     A
C1407  O1490   1.326   .     A
C1407  O1491   1.313   .     A
C1408  N1482   1.389   .     A
C1408  C676    1.437   1_455 S
H1411  C1608   1.103   .     S
H1412  C1608   1.093   .     S
H1415  C1612   1.104   1_455 S
H1417  C1612   1.111   1_455 S
H1420  C1606   1.099   .     S
H1425  C1616   1.109   1_455 S
H1431  C1606   1.108   .     S
H1432  C2291   1.103   .     S
H1442  C1605   1.094   .     S
H1461  O1495   0.991   .     S
H1462  O1499   0.990   .     S
H1463  O1502   0.990   .     S
H1465  O1505   0.991   .     S
H1466  O1509   0.990   .     S
H1467  O1512   0.991   .     S
H1468  O1515   0.990   .     S
H1469  O1519   0.990   .     S
H1470  O1522   0.991   .     S
H1471  O1077   0.985   1_565 S
H1472  O1528   0.991   .     S
H1474  O1535   0.991   .     S
H1476  O1538   0.986   .     S
H1477  O1542   0.991   .     S
H1478  O1545   0.989   .     S
N1481  C1572   1.389   1_455 S
N1481  Zn1565  2.055   .     S
N1482  Zn1566  2.055   .     S
N1482  C1571   1.384   1_455 S
N1483  Zn1567  2.055   .     S
N1484  Zn1568  2.055   .     S
O1485  Zn1565  2.078   .     S
O1486  Zn1568  2.078   .     S
O1487  Zn1567  2.042   .     S
O1488  Zn1120  2.042   1_565 S
O1489  Zn1120  2.042   1_565 S
O1490  Zn1567  2.042   .     S
O1491  Zn1568  2.058   .     S
O1492  Zn1119  2.058   1_565 S
O1493  S1549   1.500   .     D
O1494  S1549   1.500   .     D
O1495  S1549   1.678   .     S
O1496  Zn1790  2.078   .     S
O1497  S1557   1.498   .     D
O1498  S1557   1.499   .     D
O1499  S1557   1.672   .     S
O1500  S1558   1.491   .     D
O1501  S1558   1.502   .     D
O1502  S1558   1.682   .     S
O1503  S1559   1.498   .     D
O1504  S1559   1.490   .     D
O1505  S1559   1.671   .     S
O1506  S1560   1.496   .     D
O1507  Zn1789  2.042   .     S
O1508  S1560   1.500   .     D
O1509  S1560   1.673   .     S
O1510  S1561   1.494   .     D
O1511  S1561   1.496   .     D
O1512  S1561   1.670   .     S
O1513  S1562   1.497   .     D
O1514  S1562   1.502   .     D
O1515  S1562   1.678   .     S
O1516  S1563   1.491   .     D
O1517  S1563   1.500   .     D
O1518  Zn1566  2.042   .     S
O1519  S1563   1.681   .     S
O1520  S1564   1.497   .     D
O1521  S1564   1.499   .     D
O1522  S1564   1.677   .     S
O1523  S1550   1.499   .     D
O1524  S1550   1.498   .     D
O1525  S1550   1.681   .     S
O1526  S1551   1.490   .     D
O1527  S1551   1.491   .     D
O1528  S1551   1.682   .     S
O1529  Zn1790  2.042   .     S
O1530  S1552   1.499   .     D
O1531  S1552   1.502   .     D
O1532  S1552   1.670   .     S
O1532  H1025   0.988   1_565 S
O1533  S1553   1.494   .     D
O1534  S1553   1.494   .     D
O1535  S1553   1.667   .     S
O1536  S1554   1.498   .     D
O1537  S1554   1.500   .     D
O1538  S1554   1.664   .     S
O1539  S1555   1.491   .     D
O1540  Zn1565  2.042   .     S
O1541  S1555   1.490   .     D
O1542  S1555   1.667   .     S
O1543  S1556   1.501   .     D
O1544  S1556   1.504   .     D
O1545  S1556   1.657   .     S
O1546  Zn1566  2.058   .     S
O1547  Zn1789  2.058   .     S
O1548  Zn1119  2.078   1_565 S
Zn1565 O1771   2.058   1_455 S
Zn1565 O1731   2.042   1_455 S
Zn1566 O1753   2.042   1_455 S
Zn1566 O1720   2.078   1_455 S
C1569  O1742   1.293   .     A
C1569  C1598   1.486   .     S
C1569  O1709   1.338   .     A
C1570  C1607   1.519   .     S
C1570  N1705   1.382   .     A
C1570  C2243   1.429   .     S
C1571  C1610   1.512   .     S
C1571  C450    1.429   1_655 S
C1571  N1482   1.384   1_655 S
C1572  C1614   1.535   .     S
C1572  C2304   1.437   1_655 S
C1572  N1481   1.389   1_655 S
C1573  C1617   1.541   .     S
C1573  N1708   1.379   .     A
C1574  C1620   1.519   .     S
C1574  C2471   1.436   .     S
C1574  N1259   1.381   1_565 S
C1575  C1623   1.543   .     S
C1575  N1260   1.393   1_565 S
C1576  N1707   1.410   .     A
C1576  C1627   1.549   .     S
C1576  C2469   1.447   .     S
C1577  C1588   1.394   .     A
C1577  S1773   1.767   .     S
C1577  C1596   1.402   .     A
C1578  C1595   1.427   .     A
C1578  C1589   1.401   .     A
C1578  S1781   1.800   .     S
C1579  C1586   1.385   .     A
C1579  C1595   1.388   .     A
C1579  S1782   1.747   .     S
C1580  C1597   1.478   .     S
C1580  O1720   1.302   .     A
C1580  O1731   1.327   .     A
C1581  C1596   1.423   .     A
C1581  C1587   1.406   .     A
C1581  S1783   1.803   .     S
C1582  C1598   1.396   .     A
C1582  S1784   1.771   .     S
C1582  C1593   1.403   .     A
C1583  S1785   1.810   .     S
C1583  C1597   1.415   .     A
C1583  C1594   1.411   .     A
C1584  S1786   1.775   .     S
C1584  C1597   1.397   .     A
C1584  C1590   1.395   .     A
C1585  S1787   1.797   .     S
C1585  C1598   1.422   .     A
C1585  C1592   1.394   .     A
C1586  S1788   1.772   .     S
C1586  C1600   1.416   .     A
C1587  C1599   1.410   .     A
C1587  S1774   1.775   .     S
C1588  S1775   1.773   .     S
C1588  C1599   1.412   .     A
C1589  C1600   1.418   .     A
C1589  S1776   1.772   .     S
C1590  C1603   1.424   .     A
C1590  S1777   1.781   .     S
C1591  O1753   1.335   .     A
C1591  C1596   1.491   .     S
C1591  O1771   1.301   .     A
C1592  S1778   1.767   .     S
C1592  C1601   1.409   .     A
C1593  S1779   1.803   .     S
C1593  C1601   1.434   .     A
C1594  S1780   1.784   .     S
C1594  C1603   1.437   .     A
C1595  C1602   1.483   .     S
C1599  C1631   1.497   .     S
C1600  C1630   1.489   .     S
C1601  C1624   1.493   .     S
C1602  O1770   1.341   .     A
C1602  O1764   1.289   .     A
C1603  C1613   1.507   .     S
C1604  C1605   1.545   .     S
C1604  H1699   1.108   .     S
C1604  H1688   1.105   .     S
C1604  C1632   1.525   .     S
C1605  H1677   1.107   .     S
C1605  C1606   1.534   .     S
C1606  H1633   1.109   .     S
C1607  C1608   1.536   .     S
C1607  H1637   1.087   .     S
C1607  H1638   1.109   .     S
C1608  C1609   1.506   .     S
C1609  H1703   1.105   .     S
C1609  H1634   1.107   .     S
C1609  H1704   1.110   .     S
C1610  H1646   1.100   .     S
C1610  H1645   1.081   .     S
C1610  C1387   1.537   1_655 S
C1611  H1643   1.098   .     S
C1611  H1642   1.112   .     S
C1612  H1640   1.102   .     S
C1612  C1387   1.530   1_655 S
C1612  H1415   1.104   1_655 S
C1612  H1417   1.111   1_655 S
C1613  O1712   1.316   .     A
C1613  O1772   1.328   .     A
C1614  H1653   1.094   .     S
C1614  H1652   1.092   .     S
C1614  C1391   1.543   1_655 S
C1615  H1650   1.099   .     S
C1615  H1651   1.092   .     S
C1616  H1647   1.108   .     S
C1616  H1648   1.106   .     S
C1616  C1391   1.529   1_655 S
C1616  H1425   1.109   1_655 S
C1617  H1661   1.096   .     S
C1617  C1618   1.535   .     S
C1617  H1660   1.079   .     S
C1618  H1658   1.097   .     S
C1618  H1659   1.106   .     S
C1618  C1619   1.529   .     S
C1619  H1654   1.106   .     S
C1619  H1657   1.110   .     S
C1620  H1669   1.105   .     S
C1620  H1668   1.059   .     S
C1620  C1621   1.537   .     S
C1621  C1622   1.537   .     S
C1621  H1665   1.103   .     S
C1621  H1667   1.105   .     S
C1622  H1663   1.110   .     S
C1622  H1662   1.105   .     S
C1622  H1664   1.107   .     S
C1623  H1675   1.068   .     S
C1623  C1625   1.534   .     S
C1623  H1676   1.100   .     S
C1624  O1711   1.297   .     A
C1624  O1710   1.339   .     A
C1625  H1673   1.101   .     S
C1625  H1674   1.107   .     S
C1625  C1626   1.525   .     S
C1626  H1670   1.097   .     S
C1626  H1672   1.111   .     S
C1626  H1671   1.099   .     S
C1627  H1684   1.086   .     S
C1627  C1628   1.542   .     S
C1627  H1683   1.097   .     S
C1628  H1682   1.103   .     S
C1628  H1681   1.071   .     S
C1628  C1629   1.518   .     S
C1629  H1678   1.105   .     S
C1629  H1680   1.110   .     S
C1629  H1679   1.104   .     S
C1630  O1716   1.323   .     A
C1630  O1713   1.313   .     A
C1631  O1714   1.326   .     A
C1631  O1715   1.313   .     A
C1632  N1706   1.389   .     A
H1635  C1384   1.103   1_655 S
H1636  C1384   1.093   1_655 S
H1644  C1382   1.099   1_655 S
H1655  C1382   1.108   1_655 S
H1656  C2515   1.103   .     S
H1666  C1381   1.094   1_655 S
H1685  O1719   0.991   .     S
H1686  O1723   0.990   .     S
H1687  O1726   0.990   .     S
H1689  O1729   0.991   .     S
H1690  O1733   0.990   .     S
H1691  O1736   0.991   .     S
H1692  O1739   0.990   .     S
H1693  O1743   0.990   .     S
H1694  O1746   0.991   .     S
H1695  O1301   0.985   1_565 S
H1696  O1752   0.991   .     S
H1698  O1759   0.991   .     S
H1700  O1762   0.986   .     S
H1701  O1766   0.991   .     S
H1702  O1769   0.989   .     S
N1705  Zn1789  2.055   .     S
N1706  Zn1790  2.055   .     S
N1707  Zn1791  2.055   .     S
N1708  Zn1792  2.055   .     S
O1709  Zn1789  2.078   .     S
O1710  Zn1792  2.078   .     S
O1711  Zn1791  2.042   .     S
O1712  Zn1344  2.042   1_565 S
O1713  Zn1344  2.042   1_565 S
O1714  Zn1791  2.042   .     S
O1715  Zn1792  2.058   .     S
O1716  Zn1343  2.058   1_565 S
O1717  S1773   1.500   .     D
O1718  S1773   1.500   .     D
O1719  S1773   1.678   .     S
O1720  Zn1566  2.078   1_655 S
O1721  S1781   1.498   .     D
O1722  S1781   1.499   .     D
O1723  S1781   1.672   .     S
O1724  S1782   1.491   .     D
O1725  S1782   1.502   .     D
O1726  S1782   1.682   .     S
O1727  S1783   1.498   .     D
O1728  S1783   1.490   .     D
O1729  S1783   1.671   .     S
O1730  S1784   1.496   .     D
O1731  Zn1565  2.042   1_655 S
O1732  S1784   1.500   .     D
O1733  S1784   1.673   .     S
O1734  S1785   1.494   .     D
O1735  S1785   1.496   .     D
O1736  S1785   1.670   .     S
O1737  S1786   1.497   .     D
O1738  S1786   1.502   .     D
O1739  S1786   1.678   .     S
O1740  S1787   1.491   .     D
O1741  S1787   1.500   .     D
O1742  Zn1790  2.042   .     S
O1743  S1787   1.681   .     S
O1744  S1788   1.497   .     D
O1745  S1788   1.499   .     D
O1746  S1788   1.677   .     S
O1747  S1774   1.499   .     D
O1748  S1774   1.498   .     D
O1749  S1774   1.681   .     S
O1750  S1775   1.490   .     D
O1751  S1775   1.491   .     D
O1752  S1775   1.682   .     S
O1753  Zn1566  2.042   1_655 S
O1754  S1776   1.499   .     D
O1755  S1776   1.502   .     D
O1756  S1776   1.670   .     S
O1756  H1249   0.988   1_565 S
O1757  S1777   1.494   .     D
O1758  S1777   1.494   .     D
O1759  S1777   1.667   .     S
O1760  S1778   1.498   .     D
O1761  S1778   1.500   .     D
O1762  S1778   1.664   .     S
O1763  S1779   1.491   .     D
O1764  Zn1789  2.042   .     S
O1765  S1779   1.490   .     D
O1766  S1779   1.667   .     S
O1767  S1780   1.501   .     D
O1768  S1780   1.504   .     D
O1769  S1780   1.657   .     S
O1770  Zn1790  2.058   .     S
O1771  Zn1565  2.058   1_655 S
O1772  Zn1343  2.078   1_565 S
C1793  O1966   1.293   .     A
C1793  C1822   1.486   .     S
C1793  O1933   1.338   .     A
C1794  C1831   1.519   .     S
C1794  N1929   1.382   .     A
C1794  C227    1.429   1_456 S
C1795  C1834   1.512   .     S
C1795  N2154   1.384   .     S
C1796  C1838   1.535   .     S
C1796  C288    1.437   1_556 S
C1796  N2153   1.389   .     S
C1797  C1841   1.541   .     S
C1797  N1932   1.379   .     A
C1798  C1844   1.519   .     S
C1798  C7      1.436   1_556 S
C1798  N2379   1.381   .     S
C1799  C1847   1.543   .     S
C1799  N2380   1.393   .     S
C1800  N1931   1.410   .     A
C1800  C1851   1.549   .     S
C1800  C5      1.447   1_556 S
C1801  C1812   1.394   .     A
C1801  S1997   1.767   .     S
C1801  C1820   1.402   .     A
C1802  C1819   1.427   .     A
C1802  C1813   1.401   .     A
C1802  S2005   1.800   .     S
C1803  C1810   1.385   .     A
C1803  C1819   1.388   .     A
C1803  S2006   1.747   .     S
C1804  C1821   1.478   .     S
C1804  O1944   1.302   .     A
C1804  O1955   1.327   .     A
C1805  C1820   1.423   .     A
C1805  C1811   1.406   .     A
C1805  S2007   1.803   .     S
C1806  C1822   1.396   .     A
C1806  S2008   1.771   .     S
C1806  C1817   1.403   .     A
C1807  S2009   1.810   .     S
C1807  C1821   1.415   .     A
C1807  C1818   1.411   .     A
C1808  S2010   1.775   .     S
C1808  C1821   1.397   .     A
C1808  C1814   1.395   .     A
C1809  S2011   1.797   .     S
C1809  C1822   1.422   .     A
C1809  C1816   1.394   .     A
C1810  S2012   1.772   .     S
C1810  C1824   1.416   .     A
C1811  C1823   1.410   .     A
C1811  S1998   1.775   .     S
C1812  S1999   1.773   .     S
C1812  C1823   1.412   .     A
C1813  C1824   1.418   .     A
C1813  S2000   1.772   .     S
C1814  C1827   1.424   .     A
C1814  S2001   1.781   .     S
C1815  O1977   1.335   .     A
C1815  C1820   1.491   .     S
C1815  O1995   1.301   .     A
C1816  S2002   1.767   .     S
C1816  C1825   1.409   .     A
C1817  S2003   1.803   .     S
C1817  C1825   1.434   .     A
C1818  S2004   1.784   .     S
C1818  C1827   1.437   .     A
C1819  C1826   1.483   .     S
C1823  C1855   1.497   .     S
C1824  C1854   1.489   .     S
C1825  C1848   1.493   .     S
C1826  O1994   1.341   .     A
C1826  O1988   1.289   .     A
C1827  C1837   1.507   .     S
C1828  C1829   1.545   .     S
C1828  H1923   1.108   .     S
C1828  H1912   1.105   .     S
C1828  C1856   1.525   .     S
C1829  H1901   1.107   .     S
C1829  C1830   1.534   .     S
C1829  H2114   1.094   1_455 S
C1830  H1857   1.109   .     S
C1830  H2092   1.099   1_455 S
C1830  H2103   1.108   1_455 S
C1831  C1832   1.536   .     S
C1831  H1861   1.087   .     S
C1831  H1862   1.109   .     S
C1832  C1833   1.506   .     S
C1832  H2083   1.103   1_455 S
C1832  H2084   1.093   1_455 S
C1833  H1927   1.105   .     S
C1833  H1858   1.107   .     S
C1833  H1928   1.110   .     S
C1834  H1870   1.100   .     S
C1834  H1869   1.081   .     S
C1834  C2059   1.537   .     S
C1835  H1867   1.098   .     S
C1835  H1866   1.112   .     S
C1835  C2058   1.537   1_455 S
C1835  C2060   1.530   1_455 S
C1836  H1864   1.102   .     S
C1836  C2059   1.530   .     S
C1836  H2087   1.104   .     S
C1836  H2089   1.111   .     S
C1837  O1936   1.316   .     A
C1837  O1996   1.328   .     A
C1838  H1877   1.094   .     S
C1838  H1876   1.092   .     S
C1838  C2063   1.543   .     S
C1839  H1874   1.099   .     S
C1839  H1875   1.092   .     S
C1839  C2062   1.543   1_455 S
C1839  C2064   1.529   1_455 S
C1840  H1871   1.108   .     S
C1840  H1872   1.106   .     S
C1840  C2063   1.529   .     S
C1840  H2097   1.109   .     S
C1841  H1885   1.096   .     S
C1841  C1842   1.535   .     S
C1841  H1884   1.079   .     S
C1842  H1882   1.097   .     S
C1842  H1883   1.106   .     S
C1842  C1843   1.529   .     S
C1843  H1878   1.106   .     S
C1843  H1881   1.110   .     S
C1844  H1893   1.105   .     S
C1844  H1892   1.059   .     S
C1844  C1845   1.537   .     S
C1845  C1846   1.537   .     S
C1845  H1889   1.103   .     S
C1845  H1891   1.105   .     S
C1846  H1887   1.110   .     S
C1846  H1886   1.105   .     S
C1846  H1888   1.107   .     S
C1847  H1899   1.068   .     S
C1847  C1849   1.534   .     S
C1847  H1900   1.100   .     S
C1848  O1935   1.297   .     A
C1848  O1934   1.339   .     A
C1849  H1897   1.101   .     S
C1849  H1898   1.107   .     S
C1849  C1850   1.525   .     S
C1850  H1894   1.097   .     S
C1850  H1896   1.111   .     S
C1850  H1895   1.099   .     S
C1851  H1908   1.086   .     S
C1851  C1852   1.542   .     S
C1851  H1907   1.097   .     S
C1852  H1906   1.103   .     S
C1852  H1905   1.071   .     S
C1852  C1853   1.518   .     S
C1853  H1902   1.105   .     S
C1853  H1904   1.110   .     S
C1853  H1903   1.104   .     S
C1854  O1940   1.323   .     A
C1854  O1937   1.313   .     A
C1855  O1938   1.326   .     A
C1855  O1939   1.313   .     A
C1856  N1930   1.389   .     A
C1856  C1124   1.437   1_455 S
H1859  C2056   1.103   .     S
H1860  C2056   1.093   .     S
H1863  C2060   1.104   1_455 S
H1865  C2060   1.111   1_455 S
H1868  C2054   1.099   .     S
H1873  C2064   1.109   1_455 S
H1879  C2054   1.108   .     S
H1880  C51     1.103   1_556 S
H1890  C2053   1.094   .     S
H1909  O1943   0.991   .     S
H1910  O1947   0.990   .     S
H1911  O1950   0.990   .     S
H1913  O1953   0.991   .     S
H1914  O1957   0.990   .     S
H1915  O1960   0.991   .     S
H1916  O1963   0.990   .     S
H1917  O1967   0.990   .     S
H1918  O1970   0.991   .     S
H1919  O2421   0.985   .     S
H1920  O1976   0.991   .     S
H1921  O2428   0.988   1_545 S
H1922  O1983   0.991   .     S
H1924  O1986   0.986   .     S
H1925  O1990   0.991   .     S
H1926  O1993   0.989   .     S
N1929  C2020   1.389   1_455 S
N1929  Zn2013  2.055   .     S
N1930  Zn2014  2.055   .     S
N1930  C2019   1.384   1_455 S
N1931  Zn2015  2.055   .     S
N1931  C2246   1.381   1_545 S
N1932  Zn2016  2.055   .     S
N1932  C2247   1.393   1_545 S
O1933  Zn2013  2.078   .     S
O1934  Zn2016  2.078   .     S
O1935  Zn2015  2.042   .     S
O1936  Zn2464  2.042   .     S
O1937  Zn2464  2.042   .     S
O1938  Zn2015  2.042   .     S
O1939  Zn2016  2.058   .     S
O1940  Zn2463  2.058   .     S
O1941  S1997   1.500   .     D
O1942  S1997   1.500   .     D
O1943  S1997   1.678   .     S
O1944  Zn2238  2.078   .     S
O1945  S2005   1.498   .     D
O1946  S2005   1.499   .     D
O1947  S2005   1.672   .     S
O1948  S2006   1.491   .     D
O1949  S2006   1.502   .     D
O1950  S2006   1.682   .     S
O1951  S2007   1.498   .     D
O1952  S2007   1.490   .     D
O1953  S2007   1.671   .     S
O1954  S2008   1.496   .     D
O1955  Zn2237  2.042   .     S
O1956  S2008   1.500   .     D
O1957  S2008   1.673   .     S
O1958  S2009   1.494   .     D
O1959  S2009   1.496   .     D
O1960  S2009   1.670   .     S
O1961  S2010   1.497   .     D
O1962  S2010   1.502   .     D
O1963  S2010   1.678   .     S
O1964  S2011   1.491   .     D
O1965  S2011   1.500   .     D
O1966  Zn2014  2.042   .     S
O1967  S2011   1.681   .     S
O1968  S2012   1.497   .     D
O1969  S2012   1.499   .     D
O1970  S2012   1.677   .     S
O1971  S1998   1.499   .     D
O1972  S1998   1.498   .     D
O1973  S1998   1.681   .     S
O1973  H2367   0.985   1_545 S
O1974  S1999   1.490   .     D
O1975  S1999   1.491   .     D
O1976  S1999   1.682   .     S
O1977  Zn2238  2.042   .     S
O1978  S2000   1.499   .     D
O1979  S2000   1.502   .     D
O1980  S2000   1.670   .     S
O1980  H2369   0.988   .     S
O1981  S2001   1.494   .     D
O1982  S2001   1.494   .     D
O1983  S2001   1.667   .     S
O1984  S2002   1.498   .     D
O1985  S2002   1.500   .     D
O1986  S2002   1.664   .     S
O1987  S2003   1.491   .     D
O1988  Zn2013  2.042   .     S
O1989  S2003   1.490   .     D
O1990  S2003   1.667   .     S
O1991  S2004   1.501   .     D
O1992  S2004   1.504   .     D
O1993  S2004   1.657   .     S
O1994  Zn2014  2.058   .     S
O1995  Zn2237  2.058   .     S
O1996  Zn2463  2.078   .     S
Zn2013 O2219   2.058   1_455 S
Zn2013 O2179   2.042   1_455 S
Zn2014 O2201   2.042   1_455 S
Zn2014 O2168   2.078   1_455 S
Zn2015 O2388   2.058   1_545 S
Zn2015 O2444   2.078   1_545 S
Zn2016 O2385   2.042   1_545 S
Zn2016 O2384   2.042   1_545 S
C2017  O2190   1.293   .     A
C2017  C2046   1.486   .     S
C2017  O2157   1.338   .     A
C2018  C2055   1.519   .     S
C2018  N2153   1.382   .     A
C2018  C3      1.429   1_556 S
C2019  C2058   1.512   .     S
C2019  C898    1.429   1_655 S
C2019  N1930   1.384   1_655 S
C2020  C2062   1.535   .     S
C2020  C64     1.437   1_656 S
C2020  N1929   1.389   1_655 S
C2021  C2065   1.541   .     S
C2021  N2156   1.379   .     A
C2022  C2068   1.519   .     S
C2022  C231    1.436   1_556 S
C2022  N2603   1.381   .     S
C2023  C2071   1.543   .     S
C2023  N2604   1.393   .     S
C2024  N2155   1.410   .     A
C2024  C2075   1.549   .     S
C2024  C229    1.447   1_556 S
C2025  C2036   1.394   .     A
C2025  S2221   1.767   .     S
C2025  C2044   1.402   .     A
C2026  C2043   1.427   .     A
C2026  C2037   1.401   .     A
C2026  S2229   1.800   .     S
C2027  C2034   1.385   .     A
C2027  C2043   1.388   .     A
C2027  S2230   1.747   .     S
C2028  C2045   1.478   .     S
C2028  O2168   1.302   .     A
C2028  O2179   1.327   .     A
C2029  C2044   1.423   .     A
C2029  C2035   1.406   .     A
C2029  S2231   1.803   .     S
C2030  C2046   1.396   .     A
C2030  S2232   1.771   .     S
C2030  C2041   1.403   .     A
C2031  S2233   1.810   .     S
C2031  C2045   1.415   .     A
C2031  C2042   1.411   .     A
C2032  S2234   1.775   .     S
C2032  C2045   1.397   .     A
C2032  C2038   1.395   .     A
C2033  S2235   1.797   .     S
C2033  C2046   1.422   .     A
C2033  C2040   1.394   .     A
C2034  S2236   1.772   .     S
C2034  C2048   1.416   .     A
C2035  C2047   1.410   .     A
C2035  S2222   1.775   .     S
C2036  S2223   1.773   .     S
C2036  C2047   1.412   .     A
C2037  C2048   1.418   .     A
C2037  S2224   1.772   .     S
C2038  C2051   1.424   .     A
C2038  S2225   1.781   .     S
C2039  O2201   1.335   .     A
C2039  C2044   1.491   .     S
C2039  O2219   1.301   .     A
C2040  S2226   1.767   .     S
C2040  C2049   1.409   .     A
C2041  S2227   1.803   .     S
C2041  C2049   1.434   .     A
C2042  S2228   1.784   .     S
C2042  C2051   1.437   .     A
C2043  C2050   1.483   .     S
C2047  C2079   1.497   .     S
C2048  C2078   1.489   .     S
C2049  C2072   1.493   .     S
C2050  O2218   1.341   .     A
C2050  O2212   1.289   .     A
C2051  C2061   1.507   .     S
C2052  C2053   1.545   .     S
C2052  H2147   1.108   .     S
C2052  H2136   1.105   .     S
C2052  C2080   1.525   .     S
C2053  H2125   1.107   .     S
C2053  C2054   1.534   .     S
C2054  H2081   1.109   .     S
C2055  C2056   1.536   .     S
C2055  H2085   1.087   .     S
C2055  H2086   1.109   .     S
C2056  C2057   1.506   .     S
C2057  H2151   1.105   .     S
C2057  H2082   1.107   .     S
C2057  H2152   1.110   .     S
C2058  H2094   1.100   .     S
C2058  H2093   1.081   .     S
C2058  C1835   1.537   1_655 S
C2059  H2091   1.098   .     S
C2059  H2090   1.112   .     S
C2060  H2088   1.102   .     S
C2060  C1835   1.530   1_655 S
C2060  H1863   1.104   1_655 S
C2060  H1865   1.111   1_655 S
C2061  O2160   1.316   .     A
C2061  O2220   1.328   .     A
C2062  H2101   1.094   .     S
C2062  H2100   1.092   .     S
C2062  C1839   1.543   1_655 S
C2063  H2098   1.099   .     S
C2063  H2099   1.092   .     S
C2064  H2095   1.108   .     S
C2064  H2096   1.106   .     S
C2064  C1839   1.529   1_655 S
C2064  H1873   1.109   1_655 S
C2065  H2109   1.096   .     S
C2065  C2066   1.535   .     S
C2065  H2108   1.079   .     S
C2066  H2106   1.097   .     S
C2066  H2107   1.106   .     S
C2066  C2067   1.529   .     S
C2067  H2102   1.106   .     S
C2067  H2105   1.110   .     S
C2068  H2117   1.105   .     S
C2068  H2116   1.059   .     S
C2068  C2069   1.537   .     S
C2069  C2070   1.537   .     S
C2069  H2113   1.103   .     S
C2069  H2115   1.105   .     S
C2070  H2111   1.110   .     S
C2070  H2110   1.105   .     S
C2070  H2112   1.107   .     S
C2071  H2123   1.068   .     S
C2071  C2073   1.534   .     S
C2071  H2124   1.100   .     S
C2072  O2159   1.297   .     A
C2072  O2158   1.339   .     A
C2073  H2121   1.101   .     S
C2073  H2122   1.107   .     S
C2073  C2074   1.525   .     S
C2074  H2118   1.097   .     S
C2074  H2120   1.111   .     S
C2074  H2119   1.099   .     S
C2075  H2132   1.086   .     S
C2075  C2076   1.542   .     S
C2075  H2131   1.097   .     S
C2076  H2130   1.103   .     S
C2076  H2129   1.071   .     S
C2076  C2077   1.518   .     S
C2077  H2126   1.105   .     S
C2077  H2128   1.110   .     S
C2077  H2127   1.104   .     S
C2078  O2164   1.323   .     A
C2078  O2161   1.313   .     A
C2079  O2162   1.326   .     A
C2079  O2163   1.313   .     A
C2080  N2154   1.389   .     A
H2083  C1832   1.103   1_655 S
H2084  C1832   1.093   1_655 S
H2092  C1830   1.099   1_655 S
H2103  C1830   1.108   1_655 S
H2104  C275    1.103   1_556 S
H2114  C1829   1.094   1_655 S
H2133  O2167   0.991   .     S
H2134  O2171   0.990   .     S
H2135  O2174   0.990   .     S
H2137  O2177   0.991   .     S
H2138  O2181   0.990   .     S
H2139  O2184   0.991   .     S
H2140  O2187   0.990   .     S
H2141  O2191   0.990   .     S
H2142  O2194   0.991   .     S
H2143  O2645   0.985   .     S
H2144  O2200   0.991   .     S
H2145  O2652   0.988   1_545 S
H2146  O2207   0.991   .     S
H2148  O2210   0.986   .     S
H2149  O2214   0.991   .     S
H2150  O2217   0.989   .     S
N2153  Zn2237  2.055   .     S
N2154  Zn2238  2.055   .     S
N2155  Zn2239  2.055   .     S
N2155  C2470   1.381   1_545 S
N2156  Zn2240  2.055   .     S
N2156  C2471   1.393   1_545 S
O2157  Zn2237  2.078   .     S
O2158  Zn2240  2.078   .     S
O2159  Zn2239  2.042   .     S
O2160  Zn2688  2.042   .     S
O2161  Zn2688  2.042   .     S
O2162  Zn2239  2.042   .     S
O2163  Zn2240  2.058   .     S
O2164  Zn2687  2.058   .     S
O2165  S2221   1.500   .     D
O2166  S2221   1.500   .     D
O2167  S2221   1.678   .     S
O2168  Zn2014  2.078   1_655 S
O2169  S2229   1.498   .     D
O2170  S2229   1.499   .     D
O2171  S2229   1.672   .     S
O2172  S2230   1.491   .     D
O2173  S2230   1.502   .     D
O2174  S2230   1.682   .     S
O2175  S2231   1.498   .     D
O2176  S2231   1.490   .     D
O2177  S2231   1.671   .     S
O2178  S2232   1.496   .     D
O2179  Zn2013  2.042   1_655 S
O2180  S2232   1.500   .     D
O2181  S2232   1.673   .     S
O2182  S2233   1.494   .     D
O2183  S2233   1.496   .     D
O2184  S2233   1.670   .     S
O2185  S2234   1.497   .     D
O2186  S2234   1.502   .     D
O2187  S2234   1.678   .     S
O2188  S2235   1.491   .     D
O2189  S2235   1.500   .     D
O2190  Zn2238  2.042   .     S
O2191  S2235   1.681   .     S
O2192  S2236   1.497   .     D
O2193  S2236   1.499   .     D
O2194  S2236   1.677   .     S
O2195  S2222   1.499   .     D
O2196  S2222   1.498   .     D
O2197  S2222   1.681   .     S
O2197  H2591   0.985   1_545 S
O2198  S2223   1.490   .     D
O2199  S2223   1.491   .     D
O2200  S2223   1.682   .     S
O2201  Zn2014  2.042   1_655 S
O2202  S2224   1.499   .     D
O2203  S2224   1.502   .     D
O2204  S2224   1.670   .     S
O2204  H2593   0.988   .     S
O2205  S2225   1.494   .     D
O2206  S2225   1.494   .     D
O2207  S2225   1.667   .     S
O2208  S2226   1.498   .     D
O2209  S2226   1.500   .     D
O2210  S2226   1.664   .     S
O2211  S2227   1.491   .     D
O2212  Zn2237  2.042   .     S
O2213  S2227   1.490   .     D
O2214  S2227   1.667   .     S
O2215  S2228   1.501   .     D
O2216  S2228   1.504   .     D
O2217  S2228   1.657   .     S
O2218  Zn2238  2.058   .     S
O2219  Zn2013  2.058   1_655 S
O2220  Zn2687  2.078   .     S
Zn2239 O2612   2.058   1_545 S
Zn2239 O2668   2.078   1_545 S
Zn2240 O2609   2.042   1_545 S
Zn2240 O2608   2.042   1_545 S
C2241  O2414   1.293   .     A
C2241  C2270   1.486   .     S
C2241  O2381   1.338   .     A
C2242  C2279   1.519   .     S
C2242  N2377   1.382   .     A
C2242  C675    1.429   1_456 S
C2243  C2282   1.512   .     S
C2243  N2602   1.384   .     S
C2244  C2286   1.535   .     S
C2244  C736    1.437   1_556 S
C2244  N2601   1.389   .     S
C2245  C2289   1.541   .     S
C2245  N2380   1.379   .     A
C2246  C2292   1.519   .     S
C2246  C455    1.436   1_556 S
C2246  N1931   1.381   1_565 S
C2247  C2295   1.543   .     S
C2247  N1932   1.393   1_565 S
C2248  N2379   1.410   .     A
C2248  C2299   1.549   .     S
C2248  C453    1.447   1_556 S
C2249  C2260   1.394   .     A
C2249  S2445   1.767   .     S
C2249  C2268   1.402   .     A
C2250  C2267   1.427   .     A
C2250  C2261   1.401   .     A
C2250  S2453   1.800   .     S
C2251  C2258   1.385   .     A
C2251  C2267   1.388   .     A
C2251  S2454   1.747   .     S
C2252  C2269   1.478   .     S
C2252  O2392   1.302   .     A
C2252  O2403   1.327   .     A
C2253  C2268   1.423   .     A
C2253  C2259   1.406   .     A
C2253  S2455   1.803   .     S
C2254  C2270   1.396   .     A
C2254  S2456   1.771   .     S
C2254  C2265   1.403   .     A
C2255  S2457   1.810   .     S
C2255  C2269   1.415   .     A
C2255  C2266   1.411   .     A
C2256  S2458   1.775   .     S
C2256  C2269   1.397   .     A
C2256  C2262   1.395   .     A
C2257  S2459   1.797   .     S
C2257  C2270   1.422   .     A
C2257  C2264   1.394   .     A
C2258  S2460   1.772   .     S
C2258  C2272   1.416   .     A
C2259  C2271   1.410   .     A
C2259  S2446   1.775   .     S
C2260  S2447   1.773   .     S
C2260  C2271   1.412   .     A
C2261  C2272   1.418   .     A
C2261  S2448   1.772   .     S
C2262  C2275   1.424   .     A
C2262  S2449   1.781   .     S
C2263  O2425   1.335   .     A
C2263  C2268   1.491   .     S
C2263  O2443   1.301   .     A
C2264  S2450   1.767   .     S
C2264  C2273   1.409   .     A
C2265  S2451   1.803   .     S
C2265  C2273   1.434   .     A
C2266  S2452   1.784   .     S
C2266  C2275   1.437   .     A
C2267  C2274   1.483   .     S
C2271  C2303   1.497   .     S
C2272  C2302   1.489   .     S
C2273  C2296   1.493   .     S
C2274  O2442   1.341   .     A
C2274  O2436   1.289   .     A
C2275  C2285   1.507   .     S
C2276  C2277   1.545   .     S
C2276  H2371   1.108   .     S
C2276  H2360   1.105   .     S
C2276  C2304   1.525   .     S
C2277  H2349   1.107   .     S
C2277  C2278   1.534   .     S
C2277  H2562   1.094   1_455 S
C2278  H2305   1.109   .     S
C2278  H2540   1.099   1_455 S
C2278  H2551   1.108   1_455 S
C2279  C2280   1.536   .     S
C2279  H2309   1.087   .     S
C2279  H2310   1.109   .     S
C2280  C2281   1.506   .     S
C2280  H2531   1.103   1_455 S
C2280  H2532   1.093   1_455 S
C2281  H2375   1.105   .     S
C2281  H2306   1.107   .     S
C2281  H2376   1.110   .     S
C2282  H2318   1.100   .     S
C2282  H2317   1.081   .     S
C2282  C2507   1.537   .     S
C2283  H2315   1.098   .     S
C2283  H2314   1.112   .     S
C2283  C2506   1.537   1_455 S
C2283  C2508   1.530   1_455 S
C2284  H2312   1.102   .     S
C2284  C2507   1.530   .     S
C2284  H2535   1.104   .     S
C2284  H2537   1.111   .     S
C2285  O2384   1.316   .     A
C2285  O2444   1.328   .     A
C2286  H2325   1.094   .     S
C2286  H2324   1.092   .     S
C2286  C2511   1.543   .     S
C2287  H2322   1.099   .     S
C2287  H2323   1.092   .     S
C2287  C2510   1.543   1_455 S
C2287  C2512   1.529   1_455 S
C2288  H2319   1.108   .     S
C2288  H2320   1.106   .     S
C2288  C2511   1.529   .     S
C2288  H2545   1.109   .     S
C2289  H2333   1.096   .     S
C2289  C2290   1.535   .     S
C2289  H2332   1.079   .     S
C2290  H2330   1.097   .     S
C2290  H2331   1.106   .     S
C2290  C2291   1.529   .     S
C2291  H2326   1.106   .     S
C2291  H2329   1.110   .     S
C2292  H2341   1.105   .     S
C2292  H2340   1.059   .     S
C2292  C2293   1.537   .     S
C2293  C2294   1.537   .     S
C2293  H2337   1.103   .     S
C2293  H2339   1.105   .     S
C2294  H2335   1.110   .     S
C2294  H2334   1.105   .     S
C2294  H2336   1.107   .     S
C2295  H2347   1.068   .     S
C2295  C2297   1.534   .     S
C2295  H2348   1.100   .     S
C2296  O2383   1.297   .     A
C2296  O2382   1.339   .     A
C2297  H2345   1.101   .     S
C2297  H2346   1.107   .     S
C2297  C2298   1.525   .     S
C2298  H2342   1.097   .     S
C2298  H2344   1.111   .     S
C2298  H2343   1.099   .     S
C2299  H2356   1.086   .     S
C2299  C2300   1.542   .     S
C2299  H2355   1.097   .     S
C2300  H2354   1.103   .     S
C2300  H2353   1.071   .     S
C2300  C2301   1.518   .     S
C2301  H2350   1.105   .     S
C2301  H2352   1.110   .     S
C2301  H2351   1.104   .     S
C2302  O2388   1.323   .     A
C2302  O2385   1.313   .     A
C2303  O2386   1.326   .     A
C2303  O2387   1.313   .     A
C2304  N2378   1.389   .     A
C2304  C1572   1.437   1_455 S
H2307  C2504   1.103   .     S
H2308  C2504   1.093   .     S
H2311  C2508   1.104   1_455 S
H2313  C2508   1.111   1_455 S
H2316  C2502   1.099   .     S
H2321  C2512   1.109   1_455 S
H2327  C2502   1.108   .     S
H2328  C499    1.103   1_556 S
H2338  C2501   1.094   .     S
H2357  O2391   0.991   .     S
H2358  O2395   0.990   .     S
H2359  O2398   0.990   .     S
H2361  O2401   0.991   .     S
H2362  O2405   0.990   .     S
H2363  O2408   0.991   .     S
H2364  O2411   0.990   .     S
H2365  O2415   0.990   .     S
H2366  O2418   0.991   .     S
H2367  O1973   0.985   1_565 S
H2368  O2424   0.991   .     S
H2370  O2431   0.991   .     S
H2372  O2434   0.986   .     S
H2373  O2438   0.991   .     S
H2374  O2441   0.989   .     S
N2377  C2468   1.389   1_455 S
N2377  Zn2461  2.055   .     S
N2378  Zn2462  2.055   .     S
N2378  C2467   1.384   1_455 S
N2379  Zn2463  2.055   .     S
N2380  Zn2464  2.055   .     S
O2381  Zn2461  2.078   .     S
O2382  Zn2464  2.078   .     S
O2383  Zn2463  2.042   .     S
O2384  Zn2016  2.042   1_565 S
O2385  Zn2016  2.042   1_565 S
O2386  Zn2463  2.042   .     S
O2387  Zn2464  2.058   .     S
O2388  Zn2015  2.058   1_565 S
O2389  S2445   1.500   .     D
O2390  S2445   1.500   .     D
O2391  S2445   1.678   .     S
O2392  Zn2686  2.078   .     S
O2393  S2453   1.498   .     D
O2394  S2453   1.499   .     D
O2395  S2453   1.672   .     S
O2396  S2454   1.491   .     D
O2397  S2454   1.502   .     D
O2398  S2454   1.682   .     S
O2399  S2455   1.498   .     D
O2400  S2455   1.490   .     D
O2401  S2455   1.671   .     S
O2402  S2456   1.496   .     D
O2403  Zn2685  2.042   .     S
O2404  S2456   1.500   .     D
O2405  S2456   1.673   .     S
O2406  S2457   1.494   .     D
O2407  S2457   1.496   .     D
O2408  S2457   1.670   .     S
O2409  S2458   1.497   .     D
O2410  S2458   1.502   .     D
O2411  S2458   1.678   .     S
O2412  S2459   1.491   .     D
O2413  S2459   1.500   .     D
O2414  Zn2462  2.042   .     S
O2415  S2459   1.681   .     S
O2416  S2460   1.497   .     D
O2417  S2460   1.499   .     D
O2418  S2460   1.677   .     S
O2419  S2446   1.499   .     D
O2420  S2446   1.498   .     D
O2421  S2446   1.681   .     S
O2422  S2447   1.490   .     D
O2423  S2447   1.491   .     D
O2424  S2447   1.682   .     S
O2425  Zn2686  2.042   .     S
O2426  S2448   1.499   .     D
O2427  S2448   1.502   .     D
O2428  S2448   1.670   .     S
O2428  H1921   0.988   1_565 S
O2429  S2449   1.494   .     D
O2430  S2449   1.494   .     D
O2431  S2449   1.667   .     S
O2432  S2450   1.498   .     D
O2433  S2450   1.500   .     D
O2434  S2450   1.664   .     S
O2435  S2451   1.491   .     D
O2436  Zn2461  2.042   .     S
O2437  S2451   1.490   .     D
O2438  S2451   1.667   .     S
O2439  S2452   1.501   .     D
O2440  S2452   1.504   .     D
O2441  S2452   1.657   .     S
O2442  Zn2462  2.058   .     S
O2443  Zn2685  2.058   .     S
O2444  Zn2015  2.078   1_565 S
Zn2461 O2667   2.058   1_455 S
Zn2461 O2627   2.042   1_455 S
Zn2462 O2649   2.042   1_455 S
Zn2462 O2616   2.078   1_455 S
C2465  O2638   1.293   .     A
C2465  C2494   1.486   .     S
C2465  O2605   1.338   .     A
C2466  C2503   1.519   .     S
C2466  N2601   1.382   .     A
C2466  C451    1.429   1_556 S
C2467  C2506   1.512   .     S
C2467  C1346   1.429   1_655 S
C2467  N2378   1.384   1_655 S
C2468  C2510   1.535   .     S
C2468  C512    1.437   1_656 S
C2468  N2377   1.389   1_655 S
C2469  C2513   1.541   .     S
C2469  N2604   1.379   .     A
C2470  C2516   1.519   .     S
C2470  C679    1.436   1_556 S
C2470  N2155   1.381   1_565 S
C2471  C2519   1.543   .     S
C2471  N2156   1.393   1_565 S
C2472  N2603   1.410   .     A
C2472  C2523   1.549   .     S
C2472  C677    1.447   1_556 S
C2473  C2484   1.394   .     A
C2473  S2669   1.767   .     S
C2473  C2492   1.402   .     A
C2474  C2491   1.427   .     A
C2474  C2485   1.401   .     A
C2474  S2677   1.800   .     S
C2475  C2482   1.385   .     A
C2475  C2491   1.388   .     A
C2475  S2678   1.747   .     S
C2476  C2493   1.478   .     S
C2476  O2616   1.302   .     A
C2476  O2627   1.327   .     A
C2477  C2492   1.423   .     A
C2477  C2483   1.406   .     A
C2477  S2679   1.803   .     S
C2478  C2494   1.396   .     A
C2478  S2680   1.771   .     S
C2478  C2489   1.403   .     A
C2479  S2681   1.810   .     S
C2479  C2493   1.415   .     A
C2479  C2490   1.411   .     A
C2480  S2682   1.775   .     S
C2480  C2493   1.397   .     A
C2480  C2486   1.395   .     A
C2481  S2683   1.797   .     S
C2481  C2494   1.422   .     A
C2481  C2488   1.394   .     A
C2482  S2684   1.772   .     S
C2482  C2496   1.416   .     A
C2483  C2495   1.410   .     A
C2483  S2670   1.775   .     S
C2484  S2671   1.773   .     S
C2484  C2495   1.412   .     A
C2485  C2496   1.418   .     A
C2485  S2672   1.772   .     S
C2486  C2499   1.424   .     A
C2486  S2673   1.781   .     S
C2487  O2649   1.335   .     A
C2487  C2492   1.491   .     S
C2487  O2667   1.301   .     A
C2488  S2674   1.767   .     S
C2488  C2497   1.409   .     A
C2489  S2675   1.803   .     S
C2489  C2497   1.434   .     A
C2490  S2676   1.784   .     S
C2490  C2499   1.437   .     A
C2491  C2498   1.483   .     S
C2495  C2527   1.497   .     S
C2496  C2526   1.489   .     S
C2497  C2520   1.493   .     S
C2498  O2666   1.341   .     A
C2498  O2660   1.289   .     A
C2499  C2509   1.507   .     S
C2500  C2501   1.545   .     S
C2500  H2595   1.108   .     S
C2500  H2584   1.105   .     S
C2500  C2528   1.525   .     S
C2501  H2573   1.107   .     S
C2501  C2502   1.534   .     S
C2502  H2529   1.109   .     S
C2503  C2504   1.536   .     S
C2503  H2533   1.087   .     S
C2503  H2534   1.109   .     S
C2504  C2505   1.506   .     S
C2505  H2599   1.105   .     S
C2505  H2530   1.107   .     S
C2505  H2600   1.110   .     S
C2506  H2542   1.100   .     S
C2506  H2541   1.081   .     S
C2506  C2283   1.537   1_655 S
C2507  H2539   1.098   .     S
C2507  H2538   1.112   .     S
C2508  H2536   1.102   .     S
C2508  C2283   1.530   1_655 S
C2508  H2311   1.104   1_655 S
C2508  H2313   1.111   1_655 S
C2509  O2608   1.316   .     A
C2509  O2668   1.328   .     A
C2510  H2549   1.094   .     S
C2510  H2548   1.092   .     S
C2510  C2287   1.543   1_655 S
C2511  H2546   1.099   .     S
C2511  H2547   1.092   .     S
C2512  H2543   1.108   .     S
C2512  H2544   1.106   .     S
C2512  C2287   1.529   1_655 S
C2512  H2321   1.109   1_655 S
C2513  H2557   1.096   .     S
C2513  C2514   1.535   .     S
C2513  H2556   1.079   .     S
C2514  H2554   1.097   .     S
C2514  H2555   1.106   .     S
C2514  C2515   1.529   .     S
C2515  H2550   1.106   .     S
C2515  H2553   1.110   .     S
C2516  H2565   1.105   .     S
C2516  H2564   1.059   .     S
C2516  C2517   1.537   .     S
C2517  C2518   1.537   .     S
C2517  H2561   1.103   .     S
C2517  H2563   1.105   .     S
C2518  H2559   1.110   .     S
C2518  H2558   1.105   .     S
C2518  H2560   1.107   .     S
C2519  H2571   1.068   .     S
C2519  C2521   1.534   .     S
C2519  H2572   1.100   .     S
C2520  O2607   1.297   .     A
C2520  O2606   1.339   .     A
C2521  H2569   1.101   .     S
C2521  H2570   1.107   .     S
C2521  C2522   1.525   .     S
C2522  H2566   1.097   .     S
C2522  H2568   1.111   .     S
C2522  H2567   1.099   .     S
C2523  H2580   1.086   .     S
C2523  C2524   1.542   .     S
C2523  H2579   1.097   .     S
C2524  H2578   1.103   .     S
C2524  H2577   1.071   .     S
C2524  C2525   1.518   .     S
C2525  H2574   1.105   .     S
C2525  H2576   1.110   .     S
C2525  H2575   1.104   .     S
C2526  O2612   1.323   .     A
C2526  O2609   1.313   .     A
C2527  O2610   1.326   .     A
C2527  O2611   1.313   .     A
C2528  N2602   1.389   .     A
H2531  C2280   1.103   1_655 S
H2532  C2280   1.093   1_655 S
H2540  C2278   1.099   1_655 S
H2551  C2278   1.108   1_655 S
H2552  C723    1.103   1_556 S
H2562  C2277   1.094   1_655 S
H2581  O2615   0.991   .     S
H2582  O2619   0.990   .     S
H2583  O2622   0.990   .     S
H2585  O2625   0.991   .     S
H2586  O2629   0.990   .     S
H2587  O2632   0.991   .     S
H2588  O2635   0.990   .     S
H2589  O2639   0.990   .     S
H2590  O2642   0.991   .     S
H2591  O2197   0.985   1_565 S
H2592  O2648   0.991   .     S
H2594  O2655   0.991   .     S
H2596  O2658   0.986   .     S
H2597  O2662   0.991   .     S
H2598  O2665   0.989   .     S
N2601  Zn2685  2.055   .     S
N2602  Zn2686  2.055   .     S
N2603  Zn2687  2.055   .     S
N2604  Zn2688  2.055   .     S
O2605  Zn2685  2.078   .     S
O2606  Zn2688  2.078   .     S
O2607  Zn2687  2.042   .     S
O2608  Zn2240  2.042   1_565 S
O2609  Zn2240  2.042   1_565 S
O2610  Zn2687  2.042   .     S
O2611  Zn2688  2.058   .     S
O2612  Zn2239  2.058   1_565 S
O2613  S2669   1.500   .     D
O2614  S2669   1.500   .     D
O2615  S2669   1.678   .     S
O2616  Zn2462  2.078   1_655 S
O2617  S2677   1.498   .     D
O2618  S2677   1.499   .     D
O2619  S2677   1.672   .     S
O2620  S2678   1.491   .     D
O2621  S2678   1.502   .     D
O2622  S2678   1.682   .     S
O2623  S2679   1.498   .     D
O2624  S2679   1.490   .     D
O2625  S2679   1.671   .     S
O2626  S2680   1.496   .     D
O2627  Zn2461  2.042   1_655 S
O2628  S2680   1.500   .     D
O2629  S2680   1.673   .     S
O2630  S2681   1.494   .     D
O2631  S2681   1.496   .     D
O2632  S2681   1.670   .     S
O2633  S2682   1.497   .     D
O2634  S2682   1.502   .     D
O2635  S2682   1.678   .     S
O2636  S2683   1.491   .     D
O2637  S2683   1.500   .     D
O2638  Zn2686  2.042   .     S
O2639  S2683   1.681   .     S
O2640  S2684   1.497   .     D
O2641  S2684   1.499   .     D
O2642  S2684   1.677   .     S
O2643  S2670   1.499   .     D
O2644  S2670   1.498   .     D
O2645  S2670   1.681   .     S
O2646  S2671   1.490   .     D
O2647  S2671   1.491   .     D
O2648  S2671   1.682   .     S
O2649  Zn2462  2.042   1_655 S
O2650  S2672   1.499   .     D
O2651  S2672   1.502   .     D
O2652  S2672   1.670   .     S
O2652  H2145   0.988   1_565 S
O2653  S2673   1.494   .     D
O2654  S2673   1.494   .     D
O2655  S2673   1.667   .     S
O2656  S2674   1.498   .     D
O2657  S2674   1.500   .     D
O2658  S2674   1.664   .     S
O2659  S2675   1.491   .     D
O2660  Zn2685  2.042   .     S
O2661  S2675   1.490   .     D
O2662  S2675   1.667   .     S
O2663  S2676   1.501   .     D
O2664  S2676   1.504   .     D
O2665  S2676   1.657   .     S
O2666  Zn2686  2.058   .     S
O2667  Zn2461  2.058   1_655 S
O2668  Zn2239  2.078   1_565 S
