data_str_m3_o1_o10_pcu_sym.203
_audit_creation_date              2020-01-03
_audit_creation_method            'Materials Studio'
_symmetry_space_group_name_H-M    'P1'
_symmetry_Int_Tables_number       1
_symmetry_cell_setting            triclinic
loop_
_symmetry_equiv_pos_as_xyz
  x,y,z
_cell_length_a                    25.9463
_cell_length_b                    32.1848
_cell_length_c                    29.5357
_cell_angle_alpha                 90.0000
_cell_angle_beta                  98.5186
_cell_angle_gamma                 90.2312
loop_
_atom_site_label
_atom_site_type_symbol
_atom_site_fract_x
_atom_site_fract_y
_atom_site_fract_z
_atom_site_U_iso_or_equiv
_atom_site_adp_type
_atom_site_occupancy
C1     C     0.16662   0.08662   0.16664   0.00000  Uiso   1.00
C2     C     0.16672   0.24671   0.16669   0.00000  Uiso   1.00
C3     C     0.06719   0.16663   0.15482   0.00000  Uiso   1.00
C4     C     0.26614   0.16670   0.17851   0.00000  Uiso   1.00
C5     C     0.01252   0.16617   0.14835   0.00000  Uiso   1.00
C6     C     0.32081   0.16717   0.18499   0.00000  Uiso   1.00
C7     C     0.16765   0.02128   0.12550   0.00000  Uiso   1.00
C8     C     0.16568   0.31206   0.20783   0.00000  Uiso   1.00
C9     C     0.16773   0.31206   0.12552   0.00000  Uiso   1.00
C10    C     0.16560   0.02128   0.20781   0.00000  Uiso   1.00
C11    C     0.16673   0.29087   0.16669   0.00000  Uiso   1.00
C12    C     0.16661   0.04247   0.16665   0.00000  Uiso   1.00
C13    C     0.19833   0.19317   0.02808   0.00000  Uiso   1.00
C14    C     0.13501   0.14016   0.30525   0.00000  Uiso   1.00
C15    C     0.19833   0.19314   0.31345   0.00000  Uiso   1.00
C16    C     0.13500   0.14019   0.01988   0.00000  Uiso   1.00
N17    N     0.16665   0.16666   0.28573   0.00000  Uiso   1.00
N18    N     0.16668   0.16668   0.04760   0.00000  Uiso   1.00
O19    O     0.16666   0.10558   0.20487   0.00000  Uiso   1.00
O20    O     0.16667   0.22775   0.12846   0.00000  Uiso   1.00
O21    O     0.16666   0.10559   0.12843   0.00000  Uiso   1.00
O22    O     0.16667   0.22774   0.20490   0.00000  Uiso   1.00
O23    O     0.09058   0.16666   0.19595   0.00000  Uiso   1.00
O24    O     0.24275   0.16667   0.13739   0.00000  Uiso   1.00
O25    O     0.09058   0.16667   0.11950   0.00000  Uiso   1.00
O26    O     0.24275   0.16666   0.21383   0.00000  Uiso   1.00
Zn27   Zn    0.16667   0.16666   0.21771   0.00000  Uiso   1.00
Zn28   Zn    0.16667   0.16667   0.11563   0.00000  Uiso   1.00
F29    F     0.32130   0.16433   0.10420   0.00000  Uiso   1.00
F30    F     0.01203   0.16901   0.22913   0.00000  Uiso   1.00
H31    H     0.16845   0.03741   0.09341   0.00000  Uiso   1.00
H32    H     0.16488   0.29593   0.23992   0.00000  Uiso   1.00
H33    H     0.16859   0.29592   0.09345   0.00000  Uiso   1.00
H34    H     0.16474   0.03741   0.23989   0.00000  Uiso   1.00
F35    F     0.23002   0.21977   0.05487   0.00000  Uiso   1.00
F36    F     0.10331   0.11356   0.27846   0.00000  Uiso   1.00
F37    F     0.23011   0.21964   0.29487   0.00000  Uiso   1.00
F38    F     0.10322   0.11369   0.03846   0.00000  Uiso   1.00
C39    C     0.49995   0.08662   0.16664   0.00000  Uiso   1.00
C40    C     0.50005   0.24671   0.16669   0.00000  Uiso   1.00
C41    C     0.40052   0.16663   0.15482   0.00000  Uiso   1.00
C42    C     0.59948   0.16670   0.17851   0.00000  Uiso   1.00
C43    C     0.34585   0.16617   0.14835   0.00000  Uiso   1.00
C44    C     0.65415   0.16717   0.18499   0.00000  Uiso   1.00
C45    C     0.50098   0.02128   0.12550   0.00000  Uiso   1.00
C46    C     0.49902   0.31206   0.20783   0.00000  Uiso   1.00
C47    C     0.50106   0.31206   0.12552   0.00000  Uiso   1.00
C48    C     0.49894   0.02128   0.20781   0.00000  Uiso   1.00
C49    C     0.50006   0.29087   0.16669   0.00000  Uiso   1.00
C50    C     0.49994   0.04247   0.16665   0.00000  Uiso   1.00
C51    C     0.53166   0.19317   0.02808   0.00000  Uiso   1.00
C52    C     0.46834   0.14016   0.30525   0.00000  Uiso   1.00
C53    C     0.53167   0.19314   0.31345   0.00000  Uiso   1.00
C54    C     0.46833   0.14019   0.01988   0.00000  Uiso   1.00
N55    N     0.49999   0.16666   0.28573   0.00000  Uiso   1.00
N56    N     0.50001   0.16668   0.04760   0.00000  Uiso   1.00
O57    O     0.50000   0.10558   0.20487   0.00000  Uiso   1.00
O58    O     0.50000   0.22775   0.12846   0.00000  Uiso   1.00
O59    O     0.50000   0.10559   0.12843   0.00000  Uiso   1.00
O60    O     0.50000   0.22774   0.20490   0.00000  Uiso   1.00
O61    O     0.42392   0.16666   0.19595   0.00000  Uiso   1.00
O62    O     0.57608   0.16667   0.13739   0.00000  Uiso   1.00
O63    O     0.42392   0.16667   0.11950   0.00000  Uiso   1.00
O64    O     0.57608   0.16666   0.21383   0.00000  Uiso   1.00
Zn65   Zn    0.50000   0.16666   0.21771   0.00000  Uiso   1.00
Zn66   Zn    0.50000   0.16667   0.11563   0.00000  Uiso   1.00
F67    F     0.65464   0.16433   0.10420   0.00000  Uiso   1.00
F68    F     0.34536   0.16901   0.22913   0.00000  Uiso   1.00
H69    H     0.50178   0.03741   0.09341   0.00000  Uiso   1.00
H70    H     0.49822   0.29593   0.23992   0.00000  Uiso   1.00
H71    H     0.50193   0.29592   0.09345   0.00000  Uiso   1.00
H72    H     0.49807   0.03741   0.23989   0.00000  Uiso   1.00
F73    F     0.56335   0.21977   0.05487   0.00000  Uiso   1.00
F74    F     0.43665   0.11356   0.27846   0.00000  Uiso   1.00
F75    F     0.56345   0.21964   0.29487   0.00000  Uiso   1.00
F76    F     0.43655   0.11369   0.03846   0.00000  Uiso   1.00
C77    C     0.83328   0.08662   0.16664   0.00000  Uiso   1.00
C78    C     0.83338   0.24671   0.16669   0.00000  Uiso   1.00
C79    C     0.73386   0.16663   0.15482   0.00000  Uiso   1.00
C80    C     0.93281   0.16670   0.17851   0.00000  Uiso   1.00
C81    C     0.67919   0.16617   0.14835   0.00000  Uiso   1.00
C82    C     0.98748   0.16717   0.18499   0.00000  Uiso   1.00
C83    C     0.83432   0.02128   0.12550   0.00000  Uiso   1.00
C84    C     0.83235   0.31206   0.20783   0.00000  Uiso   1.00
C85    C     0.83440   0.31206   0.12552   0.00000  Uiso   1.00
C86    C     0.83227   0.02128   0.20781   0.00000  Uiso   1.00
C87    C     0.83339   0.29087   0.16669   0.00000  Uiso   1.00
C88    C     0.83327   0.04247   0.16665   0.00000  Uiso   1.00
C89    C     0.86499   0.19317   0.02808   0.00000  Uiso   1.00
C90    C     0.80167   0.14016   0.30525   0.00000  Uiso   1.00
C91    C     0.86500   0.19314   0.31345   0.00000  Uiso   1.00
C92    C     0.80167   0.14019   0.01988   0.00000  Uiso   1.00
N93    N     0.83332   0.16666   0.28573   0.00000  Uiso   1.00
N94    N     0.83335   0.16668   0.04760   0.00000  Uiso   1.00
O95    O     0.83333   0.10558   0.20487   0.00000  Uiso   1.00
O96    O     0.83334   0.22775   0.12846   0.00000  Uiso   1.00
O97    O     0.83333   0.10559   0.12843   0.00000  Uiso   1.00
O98    O     0.83334   0.22774   0.20490   0.00000  Uiso   1.00
O99    O     0.75725   0.16666   0.19595   0.00000  Uiso   1.00
O100   O     0.90942   0.16667   0.13739   0.00000  Uiso   1.00
O101   O     0.75725   0.16667   0.11950   0.00000  Uiso   1.00
O102   O     0.90942   0.16666   0.21383   0.00000  Uiso   1.00
Zn103  Zn    0.83333   0.16666   0.21771   0.00000  Uiso   1.00
Zn104  Zn    0.83333   0.16667   0.11563   0.00000  Uiso   1.00
F105   F     0.98797   0.16433   0.10420   0.00000  Uiso   1.00
F106   F     0.67870   0.16901   0.22913   0.00000  Uiso   1.00
H107   H     0.83512   0.03741   0.09341   0.00000  Uiso   1.00
H108   H     0.83155   0.29593   0.23992   0.00000  Uiso   1.00
H109   H     0.83526   0.29592   0.09345   0.00000  Uiso   1.00
H110   H     0.83141   0.03741   0.23989   0.00000  Uiso   1.00
F111   F     0.89669   0.21977   0.05487   0.00000  Uiso   1.00
F112   F     0.76998   0.11356   0.27846   0.00000  Uiso   1.00
F113   F     0.89678   0.21964   0.29487   0.00000  Uiso   1.00
F114   F     0.76989   0.11369   0.03846   0.00000  Uiso   1.00
C115   C     0.16662   0.41996   0.16664   0.00000  Uiso   1.00
C116   C     0.16672   0.58005   0.16669   0.00000  Uiso   1.00
C117   C     0.06719   0.49997   0.15482   0.00000  Uiso   1.00
C118   C     0.26614   0.50003   0.17851   0.00000  Uiso   1.00
C119   C     0.01252   0.49950   0.14835   0.00000  Uiso   1.00
C120   C     0.32081   0.50050   0.18499   0.00000  Uiso   1.00
C121   C     0.16765   0.35461   0.12550   0.00000  Uiso   1.00
C122   C     0.16568   0.64539   0.20783   0.00000  Uiso   1.00
C123   C     0.16773   0.64539   0.12552   0.00000  Uiso   1.00
C124   C     0.16560   0.35461   0.20781   0.00000  Uiso   1.00
C125   C     0.16673   0.62420   0.16669   0.00000  Uiso   1.00
C126   C     0.16661   0.37580   0.16665   0.00000  Uiso   1.00
C127   C     0.19833   0.52651   0.02808   0.00000  Uiso   1.00
C128   C     0.13501   0.47349   0.30525   0.00000  Uiso   1.00
C129   C     0.19833   0.52648   0.31345   0.00000  Uiso   1.00
C130   C     0.13500   0.47352   0.01988   0.00000  Uiso   1.00
N131   N     0.16665   0.49999   0.28573   0.00000  Uiso   1.00
N132   N     0.16668   0.50001   0.04760   0.00000  Uiso   1.00
O133   O     0.16666   0.43892   0.20487   0.00000  Uiso   1.00
O134   O     0.16667   0.56108   0.12846   0.00000  Uiso   1.00
O135   O     0.16666   0.43893   0.12843   0.00000  Uiso   1.00
O136   O     0.16667   0.56107   0.20490   0.00000  Uiso   1.00
O137   O     0.09058   0.50000   0.19595   0.00000  Uiso   1.00
O138   O     0.24275   0.50000   0.13739   0.00000  Uiso   1.00
O139   O     0.09058   0.50000   0.11950   0.00000  Uiso   1.00
O140   O     0.24275   0.50000   0.21383   0.00000  Uiso   1.00
Zn141  Zn    0.16667   0.49999   0.21771   0.00000  Uiso   1.00
Zn142  Zn    0.16667   0.50001   0.11563   0.00000  Uiso   1.00
F143   F     0.32130   0.49766   0.10420   0.00000  Uiso   1.00
F144   F     0.01203   0.50234   0.22913   0.00000  Uiso   1.00
H145   H     0.16845   0.37074   0.09341   0.00000  Uiso   1.00
H146   H     0.16488   0.62926   0.23992   0.00000  Uiso   1.00
H147   H     0.16859   0.62925   0.09345   0.00000  Uiso   1.00
H148   H     0.16474   0.37075   0.23989   0.00000  Uiso   1.00
F149   F     0.23002   0.55310   0.05487   0.00000  Uiso   1.00
F150   F     0.10331   0.44690   0.27846   0.00000  Uiso   1.00
F151   F     0.23011   0.55297   0.29487   0.00000  Uiso   1.00
F152   F     0.10322   0.44703   0.03846   0.00000  Uiso   1.00
C153   C     0.49995   0.41996   0.16664   0.00000  Uiso   1.00
C154   C     0.50005   0.58005   0.16669   0.00000  Uiso   1.00
C155   C     0.40052   0.49997   0.15482   0.00000  Uiso   1.00
C156   C     0.59948   0.50003   0.17851   0.00000  Uiso   1.00
C157   C     0.34585   0.49950   0.14835   0.00000  Uiso   1.00
C158   C     0.65415   0.50050   0.18499   0.00000  Uiso   1.00
C159   C     0.50098   0.35461   0.12550   0.00000  Uiso   1.00
C160   C     0.49902   0.64539   0.20783   0.00000  Uiso   1.00
C161   C     0.50106   0.64539   0.12552   0.00000  Uiso   1.00
C162   C     0.49894   0.35461   0.20781   0.00000  Uiso   1.00
C163   C     0.50006   0.62420   0.16669   0.00000  Uiso   1.00
C164   C     0.49994   0.37580   0.16665   0.00000  Uiso   1.00
C165   C     0.53166   0.52651   0.02808   0.00000  Uiso   1.00
C166   C     0.46834   0.47349   0.30525   0.00000  Uiso   1.00
C167   C     0.53167   0.52648   0.31345   0.00000  Uiso   1.00
C168   C     0.46833   0.47352   0.01988   0.00000  Uiso   1.00
N169   N     0.49999   0.49999   0.28573   0.00000  Uiso   1.00
N170   N     0.50001   0.50001   0.04760   0.00000  Uiso   1.00
O171   O     0.50000   0.43892   0.20487   0.00000  Uiso   1.00
O172   O     0.50000   0.56108   0.12846   0.00000  Uiso   1.00
O173   O     0.50000   0.43893   0.12843   0.00000  Uiso   1.00
O174   O     0.50000   0.56107   0.20490   0.00000  Uiso   1.00
O175   O     0.42392   0.50000   0.19595   0.00000  Uiso   1.00
O176   O     0.57608   0.50000   0.13739   0.00000  Uiso   1.00
O177   O     0.42392   0.50000   0.11950   0.00000  Uiso   1.00
O178   O     0.57608   0.50000   0.21383   0.00000  Uiso   1.00
Zn179  Zn    0.50000   0.49999   0.21771   0.00000  Uiso   1.00
Zn180  Zn    0.50000   0.50001   0.11563   0.00000  Uiso   1.00
F181   F     0.65464   0.49766   0.10420   0.00000  Uiso   1.00
F182   F     0.34536   0.50234   0.22913   0.00000  Uiso   1.00
H183   H     0.50178   0.37074   0.09341   0.00000  Uiso   1.00
H184   H     0.49822   0.62926   0.23992   0.00000  Uiso   1.00
H185   H     0.50193   0.62925   0.09345   0.00000  Uiso   1.00
H186   H     0.49807   0.37075   0.23989   0.00000  Uiso   1.00
F187   F     0.56335   0.55310   0.05487   0.00000  Uiso   1.00
F188   F     0.43665   0.44690   0.27846   0.00000  Uiso   1.00
F189   F     0.56345   0.55297   0.29487   0.00000  Uiso   1.00
F190   F     0.43655   0.44703   0.03846   0.00000  Uiso   1.00
C191   C     0.83328   0.41996   0.16664   0.00000  Uiso   1.00
C192   C     0.83338   0.58005   0.16669   0.00000  Uiso   1.00
C193   C     0.73386   0.49997   0.15482   0.00000  Uiso   1.00
C194   C     0.93281   0.50003   0.17851   0.00000  Uiso   1.00
C195   C     0.67919   0.49950   0.14835   0.00000  Uiso   1.00
C196   C     0.98748   0.50050   0.18499   0.00000  Uiso   1.00
C197   C     0.83432   0.35461   0.12550   0.00000  Uiso   1.00
C198   C     0.83235   0.64539   0.20783   0.00000  Uiso   1.00
C199   C     0.83440   0.64539   0.12552   0.00000  Uiso   1.00
C200   C     0.83227   0.35461   0.20781   0.00000  Uiso   1.00
C201   C     0.83339   0.62420   0.16669   0.00000  Uiso   1.00
C202   C     0.83327   0.37580   0.16665   0.00000  Uiso   1.00
C203   C     0.86499   0.52651   0.02808   0.00000  Uiso   1.00
C204   C     0.80167   0.47349   0.30525   0.00000  Uiso   1.00
C205   C     0.86500   0.52648   0.31345   0.00000  Uiso   1.00
C206   C     0.80167   0.47352   0.01988   0.00000  Uiso   1.00
N207   N     0.83332   0.49999   0.28573   0.00000  Uiso   1.00
N208   N     0.83335   0.50001   0.04760   0.00000  Uiso   1.00
O209   O     0.83333   0.43892   0.20487   0.00000  Uiso   1.00
O210   O     0.83334   0.56108   0.12846   0.00000  Uiso   1.00
O211   O     0.83333   0.43893   0.12843   0.00000  Uiso   1.00
O212   O     0.83334   0.56107   0.20490   0.00000  Uiso   1.00
O213   O     0.75725   0.50000   0.19595   0.00000  Uiso   1.00
O214   O     0.90942   0.50000   0.13739   0.00000  Uiso   1.00
O215   O     0.75725   0.50000   0.11950   0.00000  Uiso   1.00
O216   O     0.90942   0.50000   0.21383   0.00000  Uiso   1.00
Zn217  Zn    0.83333   0.49999   0.21771   0.00000  Uiso   1.00
Zn218  Zn    0.83333   0.50001   0.11563   0.00000  Uiso   1.00
F219   F     0.98797   0.49766   0.10420   0.00000  Uiso   1.00
F220   F     0.67870   0.50234   0.22913   0.00000  Uiso   1.00
H221   H     0.83512   0.37074   0.09341   0.00000  Uiso   1.00
H222   H     0.83155   0.62926   0.23992   0.00000  Uiso   1.00
H223   H     0.83526   0.62925   0.09345   0.00000  Uiso   1.00
H224   H     0.83141   0.37075   0.23989   0.00000  Uiso   1.00
F225   F     0.89669   0.55310   0.05487   0.00000  Uiso   1.00
F226   F     0.76998   0.44690   0.27846   0.00000  Uiso   1.00
F227   F     0.89678   0.55297   0.29487   0.00000  Uiso   1.00
F228   F     0.76989   0.44703   0.03846   0.00000  Uiso   1.00
C229   C     0.16662   0.75329   0.16664   0.00000  Uiso   1.00
C230   C     0.16672   0.91338   0.16669   0.00000  Uiso   1.00
C231   C     0.06719   0.83330   0.15482   0.00000  Uiso   1.00
C232   C     0.26614   0.83337   0.17851   0.00000  Uiso   1.00
C233   C     0.01252   0.83283   0.14835   0.00000  Uiso   1.00
C234   C     0.32081   0.83383   0.18499   0.00000  Uiso   1.00
C235   C     0.16765   0.68794   0.12550   0.00000  Uiso   1.00
C236   C     0.16568   0.97873   0.20783   0.00000  Uiso   1.00
C237   C     0.16773   0.97872   0.12552   0.00000  Uiso   1.00
C238   C     0.16560   0.68795   0.20781   0.00000  Uiso   1.00
C239   C     0.16673   0.95753   0.16669   0.00000  Uiso   1.00
C240   C     0.16661   0.70913   0.16665   0.00000  Uiso   1.00
C241   C     0.19833   0.85984   0.02808   0.00000  Uiso   1.00
C242   C     0.13501   0.80683   0.30525   0.00000  Uiso   1.00
C243   C     0.19833   0.85981   0.31345   0.00000  Uiso   1.00
C244   C     0.13500   0.80686   0.01988   0.00000  Uiso   1.00
N245   N     0.16665   0.83332   0.28573   0.00000  Uiso   1.00
N246   N     0.16668   0.83334   0.04760   0.00000  Uiso   1.00
O247   O     0.16666   0.77225   0.20487   0.00000  Uiso   1.00
O248   O     0.16667   0.89442   0.12846   0.00000  Uiso   1.00
O249   O     0.16666   0.77226   0.12843   0.00000  Uiso   1.00
O250   O     0.16667   0.89441   0.20490   0.00000  Uiso   1.00
O251   O     0.09058   0.83333   0.19595   0.00000  Uiso   1.00
O252   O     0.24275   0.83334   0.13739   0.00000  Uiso   1.00
O253   O     0.09058   0.83334   0.11950   0.00000  Uiso   1.00
O254   O     0.24275   0.83333   0.21383   0.00000  Uiso   1.00
Zn255  Zn    0.16667   0.83333   0.21771   0.00000  Uiso   1.00
Zn256  Zn    0.16667   0.83334   0.11563   0.00000  Uiso   1.00
F257   F     0.32130   0.83099   0.10420   0.00000  Uiso   1.00
F258   F     0.01203   0.83567   0.22913   0.00000  Uiso   1.00
H259   H     0.16845   0.70407   0.09341   0.00000  Uiso   1.00
H260   H     0.16488   0.96259   0.23992   0.00000  Uiso   1.00
H261   H     0.16859   0.96259   0.09345   0.00000  Uiso   1.00
H262   H     0.16474   0.70408   0.23989   0.00000  Uiso   1.00
F263   F     0.23002   0.88644   0.05487   0.00000  Uiso   1.00
F264   F     0.10331   0.78023   0.27846   0.00000  Uiso   1.00
F265   F     0.23011   0.88631   0.29487   0.00000  Uiso   1.00
F266   F     0.10322   0.78036   0.03846   0.00000  Uiso   1.00
C267   C     0.49995   0.75329   0.16664   0.00000  Uiso   1.00
C268   C     0.50005   0.91338   0.16669   0.00000  Uiso   1.00
C269   C     0.40052   0.83330   0.15482   0.00000  Uiso   1.00
C270   C     0.59948   0.83337   0.17851   0.00000  Uiso   1.00
C271   C     0.34585   0.83283   0.14835   0.00000  Uiso   1.00
C272   C     0.65415   0.83383   0.18499   0.00000  Uiso   1.00
C273   C     0.50098   0.68794   0.12550   0.00000  Uiso   1.00
C274   C     0.49902   0.97873   0.20783   0.00000  Uiso   1.00
C275   C     0.50106   0.97872   0.12552   0.00000  Uiso   1.00
C276   C     0.49894   0.68795   0.20781   0.00000  Uiso   1.00
C277   C     0.50006   0.95753   0.16669   0.00000  Uiso   1.00
C278   C     0.49994   0.70913   0.16665   0.00000  Uiso   1.00
C279   C     0.53166   0.85984   0.02808   0.00000  Uiso   1.00
C280   C     0.46834   0.80683   0.30525   0.00000  Uiso   1.00
C281   C     0.53167   0.85981   0.31345   0.00000  Uiso   1.00
C282   C     0.46833   0.80686   0.01988   0.00000  Uiso   1.00
N283   N     0.49999   0.83332   0.28573   0.00000  Uiso   1.00
N284   N     0.50001   0.83334   0.04760   0.00000  Uiso   1.00
O285   O     0.50000   0.77225   0.20487   0.00000  Uiso   1.00
O286   O     0.50000   0.89442   0.12846   0.00000  Uiso   1.00
O287   O     0.50000   0.77226   0.12843   0.00000  Uiso   1.00
O288   O     0.50000   0.89441   0.20490   0.00000  Uiso   1.00
O289   O     0.42392   0.83333   0.19595   0.00000  Uiso   1.00
O290   O     0.57608   0.83334   0.13739   0.00000  Uiso   1.00
O291   O     0.42392   0.83334   0.11950   0.00000  Uiso   1.00
O292   O     0.57608   0.83333   0.21383   0.00000  Uiso   1.00
Zn293  Zn    0.50000   0.83333   0.21771   0.00000  Uiso   1.00
Zn294  Zn    0.50000   0.83334   0.11563   0.00000  Uiso   1.00
F295   F     0.65464   0.83099   0.10420   0.00000  Uiso   1.00
F296   F     0.34536   0.83567   0.22913   0.00000  Uiso   1.00
H297   H     0.50178   0.70407   0.09341   0.00000  Uiso   1.00
H298   H     0.49822   0.96259   0.23992   0.00000  Uiso   1.00
H299   H     0.50193   0.96259   0.09345   0.00000  Uiso   1.00
H300   H     0.49807   0.70408   0.23989   0.00000  Uiso   1.00
F301   F     0.56335   0.88644   0.05487   0.00000  Uiso   1.00
F302   F     0.43665   0.78023   0.27846   0.00000  Uiso   1.00
F303   F     0.56345   0.88631   0.29487   0.00000  Uiso   1.00
F304   F     0.43655   0.78036   0.03846   0.00000  Uiso   1.00
C305   C     0.83328   0.75329   0.16664   0.00000  Uiso   1.00
C306   C     0.83338   0.91338   0.16669   0.00000  Uiso   1.00
C307   C     0.73386   0.83330   0.15482   0.00000  Uiso   1.00
C308   C     0.93281   0.83337   0.17851   0.00000  Uiso   1.00
C309   C     0.67919   0.83283   0.14835   0.00000  Uiso   1.00
C310   C     0.98748   0.83383   0.18499   0.00000  Uiso   1.00
C311   C     0.83432   0.68794   0.12550   0.00000  Uiso   1.00
C312   C     0.83235   0.97873   0.20783   0.00000  Uiso   1.00
C313   C     0.83440   0.97872   0.12552   0.00000  Uiso   1.00
C314   C     0.83227   0.68795   0.20781   0.00000  Uiso   1.00
C315   C     0.83339   0.95753   0.16669   0.00000  Uiso   1.00
C316   C     0.83327   0.70913   0.16665   0.00000  Uiso   1.00
C317   C     0.86499   0.85984   0.02808   0.00000  Uiso   1.00
C318   C     0.80167   0.80683   0.30525   0.00000  Uiso   1.00
C319   C     0.86500   0.85981   0.31345   0.00000  Uiso   1.00
C320   C     0.80167   0.80686   0.01988   0.00000  Uiso   1.00
N321   N     0.83332   0.83332   0.28573   0.00000  Uiso   1.00
N322   N     0.83335   0.83334   0.04760   0.00000  Uiso   1.00
O323   O     0.83333   0.77225   0.20487   0.00000  Uiso   1.00
O324   O     0.83334   0.89442   0.12846   0.00000  Uiso   1.00
O325   O     0.83333   0.77226   0.12843   0.00000  Uiso   1.00
O326   O     0.83334   0.89441   0.20490   0.00000  Uiso   1.00
O327   O     0.75725   0.83333   0.19595   0.00000  Uiso   1.00
O328   O     0.90942   0.83334   0.13739   0.00000  Uiso   1.00
O329   O     0.75725   0.83334   0.11950   0.00000  Uiso   1.00
O330   O     0.90942   0.83333   0.21383   0.00000  Uiso   1.00
Zn331  Zn    0.83333   0.83333   0.21771   0.00000  Uiso   1.00
Zn332  Zn    0.83333   0.83334   0.11563   0.00000  Uiso   1.00
F333   F     0.98797   0.83099   0.10420   0.00000  Uiso   1.00
F334   F     0.67870   0.83567   0.22913   0.00000  Uiso   1.00
H335   H     0.83512   0.70407   0.09341   0.00000  Uiso   1.00
H336   H     0.83155   0.96259   0.23992   0.00000  Uiso   1.00
H337   H     0.83526   0.96259   0.09345   0.00000  Uiso   1.00
H338   H     0.83141   0.70408   0.23989   0.00000  Uiso   1.00
F339   F     0.89669   0.88644   0.05487   0.00000  Uiso   1.00
F340   F     0.76998   0.78023   0.27846   0.00000  Uiso   1.00
F341   F     0.89678   0.88631   0.29487   0.00000  Uiso   1.00
F342   F     0.76989   0.78036   0.03846   0.00000  Uiso   1.00
C343   C     0.16662   0.08662   0.49998   0.00000  Uiso   1.00
C344   C     0.16672   0.24671   0.50002   0.00000  Uiso   1.00
C345   C     0.06719   0.16663   0.48815   0.00000  Uiso   1.00
C346   C     0.26614   0.16670   0.51185   0.00000  Uiso   1.00
C347   C     0.01252   0.16617   0.48168   0.00000  Uiso   1.00
C348   C     0.32081   0.16717   0.51832   0.00000  Uiso   1.00
C349   C     0.16765   0.02128   0.45883   0.00000  Uiso   1.00
C350   C     0.16568   0.31206   0.54117   0.00000  Uiso   1.00
C351   C     0.16773   0.31206   0.45886   0.00000  Uiso   1.00
C352   C     0.16560   0.02128   0.54114   0.00000  Uiso   1.00
C353   C     0.16673   0.29087   0.50002   0.00000  Uiso   1.00
C354   C     0.16661   0.04247   0.49998   0.00000  Uiso   1.00
C355   C     0.19833   0.19317   0.36142   0.00000  Uiso   1.00
C356   C     0.13501   0.14016   0.63858   0.00000  Uiso   1.00
C357   C     0.19833   0.19314   0.64679   0.00000  Uiso   1.00
C358   C     0.13500   0.14019   0.35321   0.00000  Uiso   1.00
N359   N     0.16665   0.16666   0.61907   0.00000  Uiso   1.00
N360   N     0.16668   0.16668   0.38093   0.00000  Uiso   1.00
O361   O     0.16666   0.10558   0.53821   0.00000  Uiso   1.00
O362   O     0.16667   0.22775   0.46179   0.00000  Uiso   1.00
O363   O     0.16666   0.10559   0.46176   0.00000  Uiso   1.00
O364   O     0.16667   0.22774   0.53824   0.00000  Uiso   1.00
O365   O     0.09058   0.16666   0.52928   0.00000  Uiso   1.00
O366   O     0.24275   0.16667   0.47072   0.00000  Uiso   1.00
O367   O     0.09058   0.16667   0.45284   0.00000  Uiso   1.00
O368   O     0.24275   0.16666   0.54716   0.00000  Uiso   1.00
Zn369  Zn    0.16667   0.16666   0.55104   0.00000  Uiso   1.00
Zn370  Zn    0.16667   0.16667   0.44896   0.00000  Uiso   1.00
F371   F     0.32130   0.16433   0.43754   0.00000  Uiso   1.00
F372   F     0.01203   0.16901   0.56246   0.00000  Uiso   1.00
H373   H     0.16845   0.03741   0.42674   0.00000  Uiso   1.00
H374   H     0.16488   0.29593   0.57326   0.00000  Uiso   1.00
H375   H     0.16859   0.29592   0.42678   0.00000  Uiso   1.00
H376   H     0.16474   0.03741   0.57322   0.00000  Uiso   1.00
F377   F     0.23002   0.21977   0.38821   0.00000  Uiso   1.00
F378   F     0.10331   0.11356   0.61179   0.00000  Uiso   1.00
F379   F     0.23011   0.21964   0.62821   0.00000  Uiso   1.00
F380   F     0.10322   0.11369   0.37179   0.00000  Uiso   1.00
C381   C     0.49995   0.08662   0.49998   0.00000  Uiso   1.00
C382   C     0.50005   0.24671   0.50002   0.00000  Uiso   1.00
C383   C     0.40052   0.16663   0.48815   0.00000  Uiso   1.00
C384   C     0.59948   0.16670   0.51185   0.00000  Uiso   1.00
C385   C     0.34585   0.16617   0.48168   0.00000  Uiso   1.00
C386   C     0.65415   0.16717   0.51832   0.00000  Uiso   1.00
C387   C     0.50098   0.02128   0.45883   0.00000  Uiso   1.00
C388   C     0.49902   0.31206   0.54117   0.00000  Uiso   1.00
C389   C     0.50106   0.31206   0.45886   0.00000  Uiso   1.00
C390   C     0.49894   0.02128   0.54114   0.00000  Uiso   1.00
C391   C     0.50006   0.29087   0.50002   0.00000  Uiso   1.00
C392   C     0.49994   0.04247   0.49998   0.00000  Uiso   1.00
C393   C     0.53166   0.19317   0.36142   0.00000  Uiso   1.00
C394   C     0.46834   0.14016   0.63858   0.00000  Uiso   1.00
C395   C     0.53167   0.19314   0.64679   0.00000  Uiso   1.00
C396   C     0.46833   0.14019   0.35321   0.00000  Uiso   1.00
N397   N     0.49999   0.16666   0.61907   0.00000  Uiso   1.00
N398   N     0.50001   0.16668   0.38093   0.00000  Uiso   1.00
O399   O     0.50000   0.10558   0.53821   0.00000  Uiso   1.00
O400   O     0.50000   0.22775   0.46179   0.00000  Uiso   1.00
O401   O     0.50000   0.10559   0.46176   0.00000  Uiso   1.00
O402   O     0.50000   0.22774   0.53824   0.00000  Uiso   1.00
O403   O     0.42392   0.16666   0.52928   0.00000  Uiso   1.00
O404   O     0.57608   0.16667   0.47072   0.00000  Uiso   1.00
O405   O     0.42392   0.16667   0.45284   0.00000  Uiso   1.00
O406   O     0.57608   0.16666   0.54716   0.00000  Uiso   1.00
Zn407  Zn    0.50000   0.16666   0.55104   0.00000  Uiso   1.00
Zn408  Zn    0.50000   0.16667   0.44896   0.00000  Uiso   1.00
F409   F     0.65464   0.16433   0.43754   0.00000  Uiso   1.00
F410   F     0.34536   0.16901   0.56246   0.00000  Uiso   1.00
H411   H     0.50178   0.03741   0.42674   0.00000  Uiso   1.00
H412   H     0.49822   0.29593   0.57326   0.00000  Uiso   1.00
H413   H     0.50193   0.29592   0.42678   0.00000  Uiso   1.00
H414   H     0.49807   0.03741   0.57322   0.00000  Uiso   1.00
F415   F     0.56335   0.21977   0.38821   0.00000  Uiso   1.00
F416   F     0.43665   0.11356   0.61179   0.00000  Uiso   1.00
F417   F     0.56345   0.21964   0.62821   0.00000  Uiso   1.00
F418   F     0.43655   0.11369   0.37179   0.00000  Uiso   1.00
C419   C     0.83328   0.08662   0.49998   0.00000  Uiso   1.00
C420   C     0.83338   0.24671   0.50002   0.00000  Uiso   1.00
C421   C     0.73386   0.16663   0.48815   0.00000  Uiso   1.00
C422   C     0.93281   0.16670   0.51185   0.00000  Uiso   1.00
C423   C     0.67919   0.16617   0.48168   0.00000  Uiso   1.00
C424   C     0.98748   0.16717   0.51832   0.00000  Uiso   1.00
C425   C     0.83432   0.02128   0.45883   0.00000  Uiso   1.00
C426   C     0.83235   0.31206   0.54117   0.00000  Uiso   1.00
C427   C     0.83440   0.31206   0.45886   0.00000  Uiso   1.00
C428   C     0.83227   0.02128   0.54114   0.00000  Uiso   1.00
C429   C     0.83339   0.29087   0.50002   0.00000  Uiso   1.00
C430   C     0.83327   0.04247   0.49998   0.00000  Uiso   1.00
C431   C     0.86499   0.19317   0.36142   0.00000  Uiso   1.00
C432   C     0.80167   0.14016   0.63858   0.00000  Uiso   1.00
C433   C     0.86500   0.19314   0.64679   0.00000  Uiso   1.00
C434   C     0.80167   0.14019   0.35321   0.00000  Uiso   1.00
N435   N     0.83332   0.16666   0.61907   0.00000  Uiso   1.00
N436   N     0.83335   0.16668   0.38093   0.00000  Uiso   1.00
O437   O     0.83333   0.10558   0.53821   0.00000  Uiso   1.00
O438   O     0.83334   0.22775   0.46179   0.00000  Uiso   1.00
O439   O     0.83333   0.10559   0.46176   0.00000  Uiso   1.00
O440   O     0.83334   0.22774   0.53824   0.00000  Uiso   1.00
O441   O     0.75725   0.16666   0.52928   0.00000  Uiso   1.00
O442   O     0.90942   0.16667   0.47072   0.00000  Uiso   1.00
O443   O     0.75725   0.16667   0.45284   0.00000  Uiso   1.00
O444   O     0.90942   0.16666   0.54716   0.00000  Uiso   1.00
Zn445  Zn    0.83333   0.16666   0.55104   0.00000  Uiso   1.00
Zn446  Zn    0.83333   0.16667   0.44896   0.00000  Uiso   1.00
F447   F     0.98797   0.16433   0.43754   0.00000  Uiso   1.00
F448   F     0.67870   0.16901   0.56246   0.00000  Uiso   1.00
H449   H     0.83512   0.03741   0.42674   0.00000  Uiso   1.00
H450   H     0.83155   0.29593   0.57326   0.00000  Uiso   1.00
H451   H     0.83526   0.29592   0.42678   0.00000  Uiso   1.00
H452   H     0.83141   0.03741   0.57322   0.00000  Uiso   1.00
F453   F     0.89669   0.21977   0.38821   0.00000  Uiso   1.00
F454   F     0.76998   0.11356   0.61179   0.00000  Uiso   1.00
F455   F     0.89678   0.21964   0.62821   0.00000  Uiso   1.00
F456   F     0.76989   0.11369   0.37179   0.00000  Uiso   1.00
C457   C     0.16662   0.41996   0.49998   0.00000  Uiso   1.00
C458   C     0.16672   0.58005   0.50002   0.00000  Uiso   1.00
C459   C     0.06719   0.49997   0.48815   0.00000  Uiso   1.00
C460   C     0.26614   0.50003   0.51185   0.00000  Uiso   1.00
C461   C     0.01252   0.49950   0.48168   0.00000  Uiso   1.00
C462   C     0.32081   0.50050   0.51832   0.00000  Uiso   1.00
C463   C     0.16765   0.35461   0.45883   0.00000  Uiso   1.00
C464   C     0.16568   0.64539   0.54117   0.00000  Uiso   1.00
C465   C     0.16773   0.64539   0.45886   0.00000  Uiso   1.00
C466   C     0.16560   0.35461   0.54114   0.00000  Uiso   1.00
C467   C     0.16673   0.62420   0.50002   0.00000  Uiso   1.00
C468   C     0.16661   0.37580   0.49998   0.00000  Uiso   1.00
C469   C     0.19833   0.52651   0.36142   0.00000  Uiso   1.00
C470   C     0.13501   0.47349   0.63858   0.00000  Uiso   1.00
C471   C     0.19833   0.52648   0.64679   0.00000  Uiso   1.00
C472   C     0.13500   0.47352   0.35321   0.00000  Uiso   1.00
N473   N     0.16665   0.49999   0.61907   0.00000  Uiso   1.00
N474   N     0.16668   0.50001   0.38093   0.00000  Uiso   1.00
O475   O     0.16666   0.43892   0.53821   0.00000  Uiso   1.00
O476   O     0.16667   0.56108   0.46179   0.00000  Uiso   1.00
O477   O     0.16666   0.43893   0.46176   0.00000  Uiso   1.00
O478   O     0.16667   0.56107   0.53824   0.00000  Uiso   1.00
O479   O     0.09058   0.50000   0.52928   0.00000  Uiso   1.00
O480   O     0.24275   0.50000   0.47072   0.00000  Uiso   1.00
O481   O     0.09058   0.50000   0.45284   0.00000  Uiso   1.00
O482   O     0.24275   0.50000   0.54716   0.00000  Uiso   1.00
Zn483  Zn    0.16667   0.49999   0.55104   0.00000  Uiso   1.00
Zn484  Zn    0.16667   0.50001   0.44896   0.00000  Uiso   1.00
F485   F     0.32130   0.49766   0.43754   0.00000  Uiso   1.00
F486   F     0.01203   0.50234   0.56246   0.00000  Uiso   1.00
H487   H     0.16845   0.37074   0.42674   0.00000  Uiso   1.00
H488   H     0.16488   0.62926   0.57326   0.00000  Uiso   1.00
H489   H     0.16859   0.62925   0.42678   0.00000  Uiso   1.00
H490   H     0.16474   0.37075   0.57322   0.00000  Uiso   1.00
F491   F     0.23002   0.55310   0.38821   0.00000  Uiso   1.00
F492   F     0.10331   0.44690   0.61179   0.00000  Uiso   1.00
F493   F     0.23011   0.55297   0.62821   0.00000  Uiso   1.00
F494   F     0.10322   0.44703   0.37179   0.00000  Uiso   1.00
C495   C     0.49995   0.41996   0.49998   0.00000  Uiso   1.00
C496   C     0.50005   0.58005   0.50002   0.00000  Uiso   1.00
C497   C     0.40052   0.49997   0.48815   0.00000  Uiso   1.00
C498   C     0.59948   0.50003   0.51185   0.00000  Uiso   1.00
C499   C     0.34585   0.49950   0.48168   0.00000  Uiso   1.00
C500   C     0.65415   0.50050   0.51832   0.00000  Uiso   1.00
C501   C     0.50098   0.35461   0.45883   0.00000  Uiso   1.00
C502   C     0.49902   0.64539   0.54117   0.00000  Uiso   1.00
C503   C     0.50106   0.64539   0.45886   0.00000  Uiso   1.00
C504   C     0.49894   0.35461   0.54114   0.00000  Uiso   1.00
C505   C     0.50006   0.62420   0.50002   0.00000  Uiso   1.00
C506   C     0.49994   0.37580   0.49998   0.00000  Uiso   1.00
C507   C     0.53166   0.52651   0.36142   0.00000  Uiso   1.00
C508   C     0.46834   0.47349   0.63858   0.00000  Uiso   1.00
C509   C     0.53167   0.52648   0.64679   0.00000  Uiso   1.00
C510   C     0.46833   0.47352   0.35321   0.00000  Uiso   1.00
N511   N     0.49999   0.49999   0.61907   0.00000  Uiso   1.00
N512   N     0.50001   0.50001   0.38093   0.00000  Uiso   1.00
O513   O     0.50000   0.43892   0.53821   0.00000  Uiso   1.00
O514   O     0.50000   0.56108   0.46179   0.00000  Uiso   1.00
O515   O     0.50000   0.43893   0.46176   0.00000  Uiso   1.00
O516   O     0.50000   0.56107   0.53824   0.00000  Uiso   1.00
O517   O     0.42392   0.50000   0.52928   0.00000  Uiso   1.00
O518   O     0.57608   0.50000   0.47072   0.00000  Uiso   1.00
O519   O     0.42392   0.50000   0.45284   0.00000  Uiso   1.00
O520   O     0.57608   0.50000   0.54716   0.00000  Uiso   1.00
Zn521  Zn    0.50000   0.49999   0.55104   0.00000  Uiso   1.00
Zn522  Zn    0.50000   0.50001   0.44896   0.00000  Uiso   1.00
F523   F     0.65464   0.49766   0.43754   0.00000  Uiso   1.00
F524   F     0.34536   0.50234   0.56246   0.00000  Uiso   1.00
H525   H     0.50178   0.37074   0.42674   0.00000  Uiso   1.00
H526   H     0.49822   0.62926   0.57326   0.00000  Uiso   1.00
H527   H     0.50193   0.62925   0.42678   0.00000  Uiso   1.00
H528   H     0.49807   0.37075   0.57322   0.00000  Uiso   1.00
F529   F     0.56335   0.55310   0.38821   0.00000  Uiso   1.00
F530   F     0.43665   0.44690   0.61179   0.00000  Uiso   1.00
F531   F     0.56345   0.55297   0.62821   0.00000  Uiso   1.00
F532   F     0.43655   0.44703   0.37179   0.00000  Uiso   1.00
C533   C     0.83328   0.41996   0.49998   0.00000  Uiso   1.00
C534   C     0.83338   0.58005   0.50002   0.00000  Uiso   1.00
C535   C     0.73386   0.49997   0.48815   0.00000  Uiso   1.00
C536   C     0.93281   0.50003   0.51185   0.00000  Uiso   1.00
C537   C     0.67919   0.49950   0.48168   0.00000  Uiso   1.00
C538   C     0.98748   0.50050   0.51832   0.00000  Uiso   1.00
C539   C     0.83432   0.35461   0.45883   0.00000  Uiso   1.00
C540   C     0.83235   0.64539   0.54117   0.00000  Uiso   1.00
C541   C     0.83440   0.64539   0.45886   0.00000  Uiso   1.00
C542   C     0.83227   0.35461   0.54114   0.00000  Uiso   1.00
C543   C     0.83339   0.62420   0.50002   0.00000  Uiso   1.00
C544   C     0.83327   0.37580   0.49998   0.00000  Uiso   1.00
C545   C     0.86499   0.52651   0.36142   0.00000  Uiso   1.00
C546   C     0.80167   0.47349   0.63858   0.00000  Uiso   1.00
C547   C     0.86500   0.52648   0.64679   0.00000  Uiso   1.00
C548   C     0.80167   0.47352   0.35321   0.00000  Uiso   1.00
N549   N     0.83332   0.49999   0.61907   0.00000  Uiso   1.00
N550   N     0.83335   0.50001   0.38093   0.00000  Uiso   1.00
O551   O     0.83333   0.43892   0.53821   0.00000  Uiso   1.00
O552   O     0.83334   0.56108   0.46179   0.00000  Uiso   1.00
O553   O     0.83333   0.43893   0.46176   0.00000  Uiso   1.00
O554   O     0.83334   0.56107   0.53824   0.00000  Uiso   1.00
O555   O     0.75725   0.50000   0.52928   0.00000  Uiso   1.00
O556   O     0.90942   0.50000   0.47072   0.00000  Uiso   1.00
O557   O     0.75725   0.50000   0.45284   0.00000  Uiso   1.00
O558   O     0.90942   0.50000   0.54716   0.00000  Uiso   1.00
Zn559  Zn    0.83333   0.49999   0.55104   0.00000  Uiso   1.00
Zn560  Zn    0.83333   0.50001   0.44896   0.00000  Uiso   1.00
F561   F     0.98797   0.49766   0.43754   0.00000  Uiso   1.00
F562   F     0.67870   0.50234   0.56246   0.00000  Uiso   1.00
H563   H     0.83512   0.37074   0.42674   0.00000  Uiso   1.00
H564   H     0.83155   0.62926   0.57326   0.00000  Uiso   1.00
H565   H     0.83526   0.62925   0.42678   0.00000  Uiso   1.00
H566   H     0.83141   0.37075   0.57322   0.00000  Uiso   1.00
F567   F     0.89669   0.55310   0.38821   0.00000  Uiso   1.00
F568   F     0.76998   0.44690   0.61179   0.00000  Uiso   1.00
F569   F     0.89678   0.55297   0.62821   0.00000  Uiso   1.00
F570   F     0.76989   0.44703   0.37179   0.00000  Uiso   1.00
C571   C     0.16662   0.75329   0.49998   0.00000  Uiso   1.00
C572   C     0.16672   0.91338   0.50002   0.00000  Uiso   1.00
C573   C     0.06719   0.83330   0.48815   0.00000  Uiso   1.00
C574   C     0.26614   0.83337   0.51185   0.00000  Uiso   1.00
C575   C     0.01252   0.83283   0.48168   0.00000  Uiso   1.00
C576   C     0.32081   0.83383   0.51832   0.00000  Uiso   1.00
C577   C     0.16765   0.68794   0.45883   0.00000  Uiso   1.00
C578   C     0.16568   0.97873   0.54117   0.00000  Uiso   1.00
C579   C     0.16773   0.97872   0.45886   0.00000  Uiso   1.00
C580   C     0.16560   0.68795   0.54114   0.00000  Uiso   1.00
C581   C     0.16673   0.95753   0.50002   0.00000  Uiso   1.00
C582   C     0.16661   0.70913   0.49998   0.00000  Uiso   1.00
C583   C     0.19833   0.85984   0.36142   0.00000  Uiso   1.00
C584   C     0.13501   0.80683   0.63858   0.00000  Uiso   1.00
C585   C     0.19833   0.85981   0.64679   0.00000  Uiso   1.00
C586   C     0.13500   0.80686   0.35321   0.00000  Uiso   1.00
N587   N     0.16665   0.83332   0.61907   0.00000  Uiso   1.00
N588   N     0.16668   0.83334   0.38093   0.00000  Uiso   1.00
O589   O     0.16666   0.77225   0.53821   0.00000  Uiso   1.00
O590   O     0.16667   0.89442   0.46179   0.00000  Uiso   1.00
O591   O     0.16666   0.77226   0.46176   0.00000  Uiso   1.00
O592   O     0.16667   0.89441   0.53824   0.00000  Uiso   1.00
O593   O     0.09058   0.83333   0.52928   0.00000  Uiso   1.00
O594   O     0.24275   0.83334   0.47072   0.00000  Uiso   1.00
O595   O     0.09058   0.83334   0.45284   0.00000  Uiso   1.00
O596   O     0.24275   0.83333   0.54716   0.00000  Uiso   1.00
Zn597  Zn    0.16667   0.83333   0.55104   0.00000  Uiso   1.00
Zn598  Zn    0.16667   0.83334   0.44896   0.00000  Uiso   1.00
F599   F     0.32130   0.83099   0.43754   0.00000  Uiso   1.00
F600   F     0.01203   0.83567   0.56246   0.00000  Uiso   1.00
H601   H     0.16845   0.70407   0.42674   0.00000  Uiso   1.00
H602   H     0.16488   0.96259   0.57326   0.00000  Uiso   1.00
H603   H     0.16859   0.96259   0.42678   0.00000  Uiso   1.00
H604   H     0.16474   0.70408   0.57322   0.00000  Uiso   1.00
F605   F     0.23002   0.88644   0.38821   0.00000  Uiso   1.00
F606   F     0.10331   0.78023   0.61179   0.00000  Uiso   1.00
F607   F     0.23011   0.88631   0.62821   0.00000  Uiso   1.00
F608   F     0.10322   0.78036   0.37179   0.00000  Uiso   1.00
C609   C     0.49995   0.75329   0.49998   0.00000  Uiso   1.00
C610   C     0.50005   0.91338   0.50002   0.00000  Uiso   1.00
C611   C     0.40052   0.83330   0.48815   0.00000  Uiso   1.00
C612   C     0.59948   0.83337   0.51185   0.00000  Uiso   1.00
C613   C     0.34585   0.83283   0.48168   0.00000  Uiso   1.00
C614   C     0.65415   0.83383   0.51832   0.00000  Uiso   1.00
C615   C     0.50098   0.68794   0.45883   0.00000  Uiso   1.00
C616   C     0.49902   0.97873   0.54117   0.00000  Uiso   1.00
C617   C     0.50106   0.97872   0.45886   0.00000  Uiso   1.00
C618   C     0.49894   0.68795   0.54114   0.00000  Uiso   1.00
C619   C     0.50006   0.95753   0.50002   0.00000  Uiso   1.00
C620   C     0.49994   0.70913   0.49998   0.00000  Uiso   1.00
C621   C     0.53166   0.85984   0.36142   0.00000  Uiso   1.00
C622   C     0.46834   0.80683   0.63858   0.00000  Uiso   1.00
C623   C     0.53167   0.85981   0.64679   0.00000  Uiso   1.00
C624   C     0.46833   0.80686   0.35321   0.00000  Uiso   1.00
N625   N     0.49999   0.83332   0.61907   0.00000  Uiso   1.00
N626   N     0.50001   0.83334   0.38093   0.00000  Uiso   1.00
O627   O     0.50000   0.77225   0.53821   0.00000  Uiso   1.00
O628   O     0.50000   0.89442   0.46179   0.00000  Uiso   1.00
O629   O     0.50000   0.77226   0.46176   0.00000  Uiso   1.00
O630   O     0.50000   0.89441   0.53824   0.00000  Uiso   1.00
O631   O     0.42392   0.83333   0.52928   0.00000  Uiso   1.00
O632   O     0.57608   0.83334   0.47072   0.00000  Uiso   1.00
O633   O     0.42392   0.83334   0.45284   0.00000  Uiso   1.00
O634   O     0.57608   0.83333   0.54716   0.00000  Uiso   1.00
Zn635  Zn    0.50000   0.83333   0.55104   0.00000  Uiso   1.00
Zn636  Zn    0.50000   0.83334   0.44896   0.00000  Uiso   1.00
F637   F     0.65464   0.83099   0.43754   0.00000  Uiso   1.00
F638   F     0.34536   0.83567   0.56246   0.00000  Uiso   1.00
H639   H     0.50178   0.70407   0.42674   0.00000  Uiso   1.00
H640   H     0.49822   0.96259   0.57326   0.00000  Uiso   1.00
H641   H     0.50193   0.96259   0.42678   0.00000  Uiso   1.00
H642   H     0.49807   0.70408   0.57322   0.00000  Uiso   1.00
F643   F     0.56335   0.88644   0.38821   0.00000  Uiso   1.00
F644   F     0.43665   0.78023   0.61179   0.00000  Uiso   1.00
F645   F     0.56345   0.88631   0.62821   0.00000  Uiso   1.00
F646   F     0.43655   0.78036   0.37179   0.00000  Uiso   1.00
C647   C     0.83328   0.75329   0.49998   0.00000  Uiso   1.00
C648   C     0.83338   0.91338   0.50002   0.00000  Uiso   1.00
C649   C     0.73386   0.83330   0.48815   0.00000  Uiso   1.00
C650   C     0.93281   0.83337   0.51185   0.00000  Uiso   1.00
C651   C     0.67919   0.83283   0.48168   0.00000  Uiso   1.00
C652   C     0.98748   0.83383   0.51832   0.00000  Uiso   1.00
C653   C     0.83432   0.68794   0.45883   0.00000  Uiso   1.00
C654   C     0.83235   0.97873   0.54117   0.00000  Uiso   1.00
C655   C     0.83440   0.97872   0.45886   0.00000  Uiso   1.00
C656   C     0.83227   0.68795   0.54114   0.00000  Uiso   1.00
C657   C     0.83339   0.95753   0.50002   0.00000  Uiso   1.00
C658   C     0.83327   0.70913   0.49998   0.00000  Uiso   1.00
C659   C     0.86499   0.85984   0.36142   0.00000  Uiso   1.00
C660   C     0.80167   0.80683   0.63858   0.00000  Uiso   1.00
C661   C     0.86500   0.85981   0.64679   0.00000  Uiso   1.00
C662   C     0.80167   0.80686   0.35321   0.00000  Uiso   1.00
N663   N     0.83332   0.83332   0.61907   0.00000  Uiso   1.00
N664   N     0.83335   0.83334   0.38093   0.00000  Uiso   1.00
O665   O     0.83333   0.77225   0.53821   0.00000  Uiso   1.00
O666   O     0.83334   0.89442   0.46179   0.00000  Uiso   1.00
O667   O     0.83333   0.77226   0.46176   0.00000  Uiso   1.00
O668   O     0.83334   0.89441   0.53824   0.00000  Uiso   1.00
O669   O     0.75725   0.83333   0.52928   0.00000  Uiso   1.00
O670   O     0.90942   0.83334   0.47072   0.00000  Uiso   1.00
O671   O     0.75725   0.83334   0.45284   0.00000  Uiso   1.00
O672   O     0.90942   0.83333   0.54716   0.00000  Uiso   1.00
Zn673  Zn    0.83333   0.83333   0.55104   0.00000  Uiso   1.00
Zn674  Zn    0.83333   0.83334   0.44896   0.00000  Uiso   1.00
F675   F     0.98797   0.83099   0.43754   0.00000  Uiso   1.00
F676   F     0.67870   0.83567   0.56246   0.00000  Uiso   1.00
H677   H     0.83512   0.70407   0.42674   0.00000  Uiso   1.00
H678   H     0.83155   0.96259   0.57326   0.00000  Uiso   1.00
H679   H     0.83526   0.96259   0.42678   0.00000  Uiso   1.00
H680   H     0.83141   0.70408   0.57322   0.00000  Uiso   1.00
F681   F     0.89669   0.88644   0.38821   0.00000  Uiso   1.00
F682   F     0.76998   0.78023   0.61179   0.00000  Uiso   1.00
F683   F     0.89678   0.88631   0.62821   0.00000  Uiso   1.00
F684   F     0.76989   0.78036   0.37179   0.00000  Uiso   1.00
C685   C     0.16662   0.08662   0.83331   0.00000  Uiso   1.00
C686   C     0.16672   0.24671   0.83336   0.00000  Uiso   1.00
C687   C     0.06719   0.16663   0.82149   0.00000  Uiso   1.00
C688   C     0.26614   0.16670   0.84518   0.00000  Uiso   1.00
C689   C     0.01252   0.16617   0.81502   0.00000  Uiso   1.00
C690   C     0.32081   0.16717   0.85165   0.00000  Uiso   1.00
C691   C     0.16765   0.02128   0.79217   0.00000  Uiso   1.00
C692   C     0.16568   0.31206   0.87450   0.00000  Uiso   1.00
C693   C     0.16773   0.31206   0.79219   0.00000  Uiso   1.00
C694   C     0.16560   0.02128   0.87448   0.00000  Uiso   1.00
C695   C     0.16673   0.29087   0.83335   0.00000  Uiso   1.00
C696   C     0.16661   0.04247   0.83331   0.00000  Uiso   1.00
C697   C     0.19833   0.19317   0.69475   0.00000  Uiso   1.00
C698   C     0.13501   0.14016   0.97192   0.00000  Uiso   1.00
C699   C     0.19833   0.19314   0.98012   0.00000  Uiso   1.00
C700   C     0.13500   0.14019   0.68655   0.00000  Uiso   1.00
N701   N     0.16665   0.16666   0.95240   0.00000  Uiso   1.00
N702   N     0.16668   0.16668   0.71427   0.00000  Uiso   1.00
O703   O     0.16666   0.10558   0.87154   0.00000  Uiso   1.00
O704   O     0.16667   0.22775   0.79513   0.00000  Uiso   1.00
O705   O     0.16666   0.10559   0.79510   0.00000  Uiso   1.00
O706   O     0.16667   0.22774   0.87157   0.00000  Uiso   1.00
O707   O     0.09058   0.16666   0.86261   0.00000  Uiso   1.00
O708   O     0.24275   0.16667   0.80405   0.00000  Uiso   1.00
O709   O     0.09058   0.16667   0.78617   0.00000  Uiso   1.00
O710   O     0.24275   0.16666   0.88050   0.00000  Uiso   1.00
Zn711  Zn    0.16667   0.16666   0.88437   0.00000  Uiso   1.00
Zn712  Zn    0.16667   0.16667   0.78229   0.00000  Uiso   1.00
F713   F     0.32130   0.16433   0.77087   0.00000  Uiso   1.00
F714   F     0.01203   0.16901   0.89580   0.00000  Uiso   1.00
H715   H     0.16845   0.03741   0.76008   0.00000  Uiso   1.00
H716   H     0.16488   0.29593   0.90659   0.00000  Uiso   1.00
H717   H     0.16859   0.29592   0.76011   0.00000  Uiso   1.00
H718   H     0.16474   0.03741   0.90655   0.00000  Uiso   1.00
F719   F     0.23002   0.21977   0.72154   0.00000  Uiso   1.00
F720   F     0.10331   0.11356   0.94513   0.00000  Uiso   1.00
F721   F     0.23011   0.21964   0.96154   0.00000  Uiso   1.00
F722   F     0.10322   0.11369   0.70513   0.00000  Uiso   1.00
C723   C     0.49995   0.08662   0.83331   0.00000  Uiso   1.00
C724   C     0.50005   0.24671   0.83336   0.00000  Uiso   1.00
C725   C     0.40052   0.16663   0.82149   0.00000  Uiso   1.00
C726   C     0.59948   0.16670   0.84518   0.00000  Uiso   1.00
C727   C     0.34585   0.16617   0.81502   0.00000  Uiso   1.00
C728   C     0.65415   0.16717   0.85165   0.00000  Uiso   1.00
C729   C     0.50098   0.02128   0.79217   0.00000  Uiso   1.00
C730   C     0.49902   0.31206   0.87450   0.00000  Uiso   1.00
C731   C     0.50106   0.31206   0.79219   0.00000  Uiso   1.00
C732   C     0.49894   0.02128   0.87448   0.00000  Uiso   1.00
C733   C     0.50006   0.29087   0.83335   0.00000  Uiso   1.00
C734   C     0.49994   0.04247   0.83331   0.00000  Uiso   1.00
C735   C     0.53166   0.19317   0.69475   0.00000  Uiso   1.00
C736   C     0.46834   0.14016   0.97192   0.00000  Uiso   1.00
C737   C     0.53167   0.19314   0.98012   0.00000  Uiso   1.00
C738   C     0.46833   0.14019   0.68655   0.00000  Uiso   1.00
N739   N     0.49999   0.16666   0.95240   0.00000  Uiso   1.00
N740   N     0.50001   0.16668   0.71427   0.00000  Uiso   1.00
O741   O     0.50000   0.10558   0.87154   0.00000  Uiso   1.00
O742   O     0.50000   0.22775   0.79513   0.00000  Uiso   1.00
O743   O     0.50000   0.10559   0.79510   0.00000  Uiso   1.00
O744   O     0.50000   0.22774   0.87157   0.00000  Uiso   1.00
O745   O     0.42392   0.16666   0.86261   0.00000  Uiso   1.00
O746   O     0.57608   0.16667   0.80405   0.00000  Uiso   1.00
O747   O     0.42392   0.16667   0.78617   0.00000  Uiso   1.00
O748   O     0.57608   0.16666   0.88050   0.00000  Uiso   1.00
Zn749  Zn    0.50000   0.16666   0.88437   0.00000  Uiso   1.00
Zn750  Zn    0.50000   0.16667   0.78229   0.00000  Uiso   1.00
F751   F     0.65464   0.16433   0.77087   0.00000  Uiso   1.00
F752   F     0.34536   0.16901   0.89580   0.00000  Uiso   1.00
H753   H     0.50178   0.03741   0.76008   0.00000  Uiso   1.00
H754   H     0.49822   0.29593   0.90659   0.00000  Uiso   1.00
H755   H     0.50193   0.29592   0.76011   0.00000  Uiso   1.00
H756   H     0.49807   0.03741   0.90655   0.00000  Uiso   1.00
F757   F     0.56335   0.21977   0.72154   0.00000  Uiso   1.00
F758   F     0.43665   0.11356   0.94513   0.00000  Uiso   1.00
F759   F     0.56345   0.21964   0.96154   0.00000  Uiso   1.00
F760   F     0.43655   0.11369   0.70513   0.00000  Uiso   1.00
C761   C     0.83328   0.08662   0.83331   0.00000  Uiso   1.00
C762   C     0.83338   0.24671   0.83336   0.00000  Uiso   1.00
C763   C     0.73386   0.16663   0.82149   0.00000  Uiso   1.00
C764   C     0.93281   0.16670   0.84518   0.00000  Uiso   1.00
C765   C     0.67919   0.16617   0.81502   0.00000  Uiso   1.00
C766   C     0.98748   0.16717   0.85165   0.00000  Uiso   1.00
C767   C     0.83432   0.02128   0.79217   0.00000  Uiso   1.00
C768   C     0.83235   0.31206   0.87450   0.00000  Uiso   1.00
C769   C     0.83440   0.31206   0.79219   0.00000  Uiso   1.00
C770   C     0.83227   0.02128   0.87448   0.00000  Uiso   1.00
C771   C     0.83339   0.29087   0.83335   0.00000  Uiso   1.00
C772   C     0.83327   0.04247   0.83331   0.00000  Uiso   1.00
C773   C     0.86499   0.19317   0.69475   0.00000  Uiso   1.00
C774   C     0.80167   0.14016   0.97192   0.00000  Uiso   1.00
C775   C     0.86500   0.19314   0.98012   0.00000  Uiso   1.00
C776   C     0.80167   0.14019   0.68655   0.00000  Uiso   1.00
N777   N     0.83332   0.16666   0.95240   0.00000  Uiso   1.00
N778   N     0.83335   0.16668   0.71427   0.00000  Uiso   1.00
O779   O     0.83333   0.10558   0.87154   0.00000  Uiso   1.00
O780   O     0.83334   0.22775   0.79513   0.00000  Uiso   1.00
O781   O     0.83333   0.10559   0.79510   0.00000  Uiso   1.00
O782   O     0.83334   0.22774   0.87157   0.00000  Uiso   1.00
O783   O     0.75725   0.16666   0.86261   0.00000  Uiso   1.00
O784   O     0.90942   0.16667   0.80405   0.00000  Uiso   1.00
O785   O     0.75725   0.16667   0.78617   0.00000  Uiso   1.00
O786   O     0.90942   0.16666   0.88050   0.00000  Uiso   1.00
Zn787  Zn    0.83333   0.16666   0.88437   0.00000  Uiso   1.00
Zn788  Zn    0.83333   0.16667   0.78229   0.00000  Uiso   1.00
F789   F     0.98797   0.16433   0.77087   0.00000  Uiso   1.00
F790   F     0.67870   0.16901   0.89580   0.00000  Uiso   1.00
H791   H     0.83512   0.03741   0.76008   0.00000  Uiso   1.00
H792   H     0.83155   0.29593   0.90659   0.00000  Uiso   1.00
H793   H     0.83526   0.29592   0.76011   0.00000  Uiso   1.00
H794   H     0.83141   0.03741   0.90655   0.00000  Uiso   1.00
F795   F     0.89669   0.21977   0.72154   0.00000  Uiso   1.00
F796   F     0.76998   0.11356   0.94513   0.00000  Uiso   1.00
F797   F     0.89678   0.21964   0.96154   0.00000  Uiso   1.00
F798   F     0.76989   0.11369   0.70513   0.00000  Uiso   1.00
C799   C     0.16662   0.41996   0.83331   0.00000  Uiso   1.00
C800   C     0.16672   0.58005   0.83336   0.00000  Uiso   1.00
C801   C     0.06719   0.49997   0.82149   0.00000  Uiso   1.00
C802   C     0.26614   0.50003   0.84518   0.00000  Uiso   1.00
C803   C     0.01252   0.49950   0.81502   0.00000  Uiso   1.00
C804   C     0.32081   0.50050   0.85165   0.00000  Uiso   1.00
C805   C     0.16765   0.35461   0.79217   0.00000  Uiso   1.00
C806   C     0.16568   0.64539   0.87450   0.00000  Uiso   1.00
C807   C     0.16773   0.64539   0.79219   0.00000  Uiso   1.00
C808   C     0.16560   0.35461   0.87448   0.00000  Uiso   1.00
C809   C     0.16673   0.62420   0.83335   0.00000  Uiso   1.00
C810   C     0.16661   0.37580   0.83331   0.00000  Uiso   1.00
C811   C     0.19833   0.52651   0.69475   0.00000  Uiso   1.00
C812   C     0.13501   0.47349   0.97192   0.00000  Uiso   1.00
C813   C     0.19833   0.52648   0.98012   0.00000  Uiso   1.00
C814   C     0.13500   0.47352   0.68655   0.00000  Uiso   1.00
N815   N     0.16665   0.49999   0.95240   0.00000  Uiso   1.00
N816   N     0.16668   0.50001   0.71427   0.00000  Uiso   1.00
O817   O     0.16666   0.43892   0.87154   0.00000  Uiso   1.00
O818   O     0.16667   0.56108   0.79513   0.00000  Uiso   1.00
O819   O     0.16666   0.43893   0.79510   0.00000  Uiso   1.00
O820   O     0.16667   0.56107   0.87157   0.00000  Uiso   1.00
O821   O     0.09058   0.50000   0.86261   0.00000  Uiso   1.00
O822   O     0.24275   0.50000   0.80405   0.00000  Uiso   1.00
O823   O     0.09058   0.50000   0.78617   0.00000  Uiso   1.00
O824   O     0.24275   0.50000   0.88050   0.00000  Uiso   1.00
Zn825  Zn    0.16667   0.49999   0.88437   0.00000  Uiso   1.00
Zn826  Zn    0.16667   0.50001   0.78229   0.00000  Uiso   1.00
F827   F     0.32130   0.49766   0.77087   0.00000  Uiso   1.00
F828   F     0.01203   0.50234   0.89580   0.00000  Uiso   1.00
H829   H     0.16845   0.37074   0.76008   0.00000  Uiso   1.00
H830   H     0.16488   0.62926   0.90659   0.00000  Uiso   1.00
H831   H     0.16859   0.62925   0.76011   0.00000  Uiso   1.00
H832   H     0.16474   0.37075   0.90655   0.00000  Uiso   1.00
F833   F     0.23002   0.55310   0.72154   0.00000  Uiso   1.00
F834   F     0.10331   0.44690   0.94513   0.00000  Uiso   1.00
F835   F     0.23011   0.55297   0.96154   0.00000  Uiso   1.00
F836   F     0.10322   0.44703   0.70513   0.00000  Uiso   1.00
C837   C     0.49995   0.41996   0.83331   0.00000  Uiso   1.00
C838   C     0.50005   0.58005   0.83336   0.00000  Uiso   1.00
C839   C     0.40052   0.49997   0.82149   0.00000  Uiso   1.00
C840   C     0.59948   0.50003   0.84518   0.00000  Uiso   1.00
C841   C     0.34585   0.49950   0.81502   0.00000  Uiso   1.00
C842   C     0.65415   0.50050   0.85165   0.00000  Uiso   1.00
C843   C     0.50098   0.35461   0.79217   0.00000  Uiso   1.00
C844   C     0.49902   0.64539   0.87450   0.00000  Uiso   1.00
C845   C     0.50106   0.64539   0.79219   0.00000  Uiso   1.00
C846   C     0.49894   0.35461   0.87448   0.00000  Uiso   1.00
C847   C     0.50006   0.62420   0.83335   0.00000  Uiso   1.00
C848   C     0.49994   0.37580   0.83331   0.00000  Uiso   1.00
C849   C     0.53166   0.52651   0.69475   0.00000  Uiso   1.00
C850   C     0.46834   0.47349   0.97192   0.00000  Uiso   1.00
C851   C     0.53167   0.52648   0.98012   0.00000  Uiso   1.00
C852   C     0.46833   0.47352   0.68655   0.00000  Uiso   1.00
N853   N     0.49999   0.49999   0.95240   0.00000  Uiso   1.00
N854   N     0.50001   0.50001   0.71427   0.00000  Uiso   1.00
O855   O     0.50000   0.43892   0.87154   0.00000  Uiso   1.00
O856   O     0.50000   0.56108   0.79513   0.00000  Uiso   1.00
O857   O     0.50000   0.43893   0.79510   0.00000  Uiso   1.00
O858   O     0.50000   0.56107   0.87157   0.00000  Uiso   1.00
O859   O     0.42392   0.50000   0.86261   0.00000  Uiso   1.00
O860   O     0.57608   0.50000   0.80405   0.00000  Uiso   1.00
O861   O     0.42392   0.50000   0.78617   0.00000  Uiso   1.00
O862   O     0.57608   0.50000   0.88050   0.00000  Uiso   1.00
Zn863  Zn    0.50000   0.49999   0.88437   0.00000  Uiso   1.00
Zn864  Zn    0.50000   0.50001   0.78229   0.00000  Uiso   1.00
F865   F     0.65464   0.49766   0.77087   0.00000  Uiso   1.00
F866   F     0.34536   0.50234   0.89580   0.00000  Uiso   1.00
H867   H     0.50178   0.37074   0.76008   0.00000  Uiso   1.00
H868   H     0.49822   0.62926   0.90659   0.00000  Uiso   1.00
H869   H     0.50193   0.62925   0.76011   0.00000  Uiso   1.00
H870   H     0.49807   0.37075   0.90655   0.00000  Uiso   1.00
F871   F     0.56335   0.55310   0.72154   0.00000  Uiso   1.00
F872   F     0.43665   0.44690   0.94513   0.00000  Uiso   1.00
F873   F     0.56345   0.55297   0.96154   0.00000  Uiso   1.00
F874   F     0.43655   0.44703   0.70513   0.00000  Uiso   1.00
C875   C     0.83328   0.41996   0.83331   0.00000  Uiso   1.00
C876   C     0.83338   0.58005   0.83336   0.00000  Uiso   1.00
C877   C     0.73386   0.49997   0.82149   0.00000  Uiso   1.00
C878   C     0.93281   0.50003   0.84518   0.00000  Uiso   1.00
C879   C     0.67919   0.49950   0.81502   0.00000  Uiso   1.00
C880   C     0.98748   0.50050   0.85165   0.00000  Uiso   1.00
C881   C     0.83432   0.35461   0.79217   0.00000  Uiso   1.00
C882   C     0.83235   0.64539   0.87450   0.00000  Uiso   1.00
C883   C     0.83440   0.64539   0.79219   0.00000  Uiso   1.00
C884   C     0.83227   0.35461   0.87448   0.00000  Uiso   1.00
C885   C     0.83339   0.62420   0.83335   0.00000  Uiso   1.00
C886   C     0.83327   0.37580   0.83331   0.00000  Uiso   1.00
C887   C     0.86499   0.52651   0.69475   0.00000  Uiso   1.00
C888   C     0.80167   0.47349   0.97192   0.00000  Uiso   1.00
C889   C     0.86500   0.52648   0.98012   0.00000  Uiso   1.00
C890   C     0.80167   0.47352   0.68655   0.00000  Uiso   1.00
N891   N     0.83332   0.49999   0.95240   0.00000  Uiso   1.00
N892   N     0.83335   0.50001   0.71427   0.00000  Uiso   1.00
O893   O     0.83333   0.43892   0.87154   0.00000  Uiso   1.00
O894   O     0.83334   0.56108   0.79513   0.00000  Uiso   1.00
O895   O     0.83333   0.43893   0.79510   0.00000  Uiso   1.00
O896   O     0.83334   0.56107   0.87157   0.00000  Uiso   1.00
O897   O     0.75725   0.50000   0.86261   0.00000  Uiso   1.00
O898   O     0.90942   0.50000   0.80405   0.00000  Uiso   1.00
O899   O     0.75725   0.50000   0.78617   0.00000  Uiso   1.00
O900   O     0.90942   0.50000   0.88050   0.00000  Uiso   1.00
Zn901  Zn    0.83333   0.49999   0.88437   0.00000  Uiso   1.00
Zn902  Zn    0.83333   0.50001   0.78229   0.00000  Uiso   1.00
F903   F     0.98797   0.49766   0.77087   0.00000  Uiso   1.00
F904   F     0.67870   0.50234   0.89580   0.00000  Uiso   1.00
H905   H     0.83512   0.37074   0.76008   0.00000  Uiso   1.00
H906   H     0.83155   0.62926   0.90659   0.00000  Uiso   1.00
H907   H     0.83526   0.62925   0.76011   0.00000  Uiso   1.00
H908   H     0.83141   0.37075   0.90655   0.00000  Uiso   1.00
F909   F     0.89669   0.55310   0.72154   0.00000  Uiso   1.00
F910   F     0.76998   0.44690   0.94513   0.00000  Uiso   1.00
F911   F     0.89678   0.55297   0.96154   0.00000  Uiso   1.00
F912   F     0.76989   0.44703   0.70513   0.00000  Uiso   1.00
C913   C     0.16662   0.75329   0.83331   0.00000  Uiso   1.00
C914   C     0.16672   0.91338   0.83336   0.00000  Uiso   1.00
C915   C     0.06719   0.83330   0.82149   0.00000  Uiso   1.00
C916   C     0.26614   0.83337   0.84518   0.00000  Uiso   1.00
C917   C     0.01252   0.83283   0.81502   0.00000  Uiso   1.00
C918   C     0.32081   0.83383   0.85165   0.00000  Uiso   1.00
C919   C     0.16765   0.68794   0.79217   0.00000  Uiso   1.00
C920   C     0.16568   0.97873   0.87450   0.00000  Uiso   1.00
C921   C     0.16773   0.97872   0.79219   0.00000  Uiso   1.00
C922   C     0.16560   0.68795   0.87448   0.00000  Uiso   1.00
C923   C     0.16673   0.95753   0.83335   0.00000  Uiso   1.00
C924   C     0.16661   0.70913   0.83331   0.00000  Uiso   1.00
C925   C     0.19833   0.85984   0.69475   0.00000  Uiso   1.00
C926   C     0.13501   0.80683   0.97192   0.00000  Uiso   1.00
C927   C     0.19833   0.85981   0.98012   0.00000  Uiso   1.00
C928   C     0.13500   0.80686   0.68655   0.00000  Uiso   1.00
N929   N     0.16665   0.83332   0.95240   0.00000  Uiso   1.00
N930   N     0.16668   0.83334   0.71427   0.00000  Uiso   1.00
O931   O     0.16666   0.77225   0.87154   0.00000  Uiso   1.00
O932   O     0.16667   0.89442   0.79513   0.00000  Uiso   1.00
O933   O     0.16666   0.77226   0.79510   0.00000  Uiso   1.00
O934   O     0.16667   0.89441   0.87157   0.00000  Uiso   1.00
O935   O     0.09058   0.83333   0.86261   0.00000  Uiso   1.00
O936   O     0.24275   0.83334   0.80405   0.00000  Uiso   1.00
O937   O     0.09058   0.83334   0.78617   0.00000  Uiso   1.00
O938   O     0.24275   0.83333   0.88050   0.00000  Uiso   1.00
Zn939  Zn    0.16667   0.83333   0.88437   0.00000  Uiso   1.00
Zn940  Zn    0.16667   0.83334   0.78229   0.00000  Uiso   1.00
F941   F     0.32130   0.83099   0.77087   0.00000  Uiso   1.00
F942   F     0.01203   0.83567   0.89580   0.00000  Uiso   1.00
H943   H     0.16845   0.70407   0.76008   0.00000  Uiso   1.00
H944   H     0.16488   0.96259   0.90659   0.00000  Uiso   1.00
H945   H     0.16859   0.96259   0.76011   0.00000  Uiso   1.00
H946   H     0.16474   0.70408   0.90655   0.00000  Uiso   1.00
F947   F     0.23002   0.88644   0.72154   0.00000  Uiso   1.00
F948   F     0.10331   0.78023   0.94513   0.00000  Uiso   1.00
F949   F     0.23011   0.88631   0.96154   0.00000  Uiso   1.00
F950   F     0.10322   0.78036   0.70513   0.00000  Uiso   1.00
C951   C     0.49995   0.75329   0.83331   0.00000  Uiso   1.00
C952   C     0.50005   0.91338   0.83336   0.00000  Uiso   1.00
C953   C     0.40052   0.83330   0.82149   0.00000  Uiso   1.00
C954   C     0.59948   0.83337   0.84518   0.00000  Uiso   1.00
C955   C     0.34585   0.83283   0.81502   0.00000  Uiso   1.00
C956   C     0.65415   0.83383   0.85165   0.00000  Uiso   1.00
C957   C     0.50098   0.68794   0.79217   0.00000  Uiso   1.00
C958   C     0.49902   0.97873   0.87450   0.00000  Uiso   1.00
C959   C     0.50106   0.97872   0.79219   0.00000  Uiso   1.00
C960   C     0.49894   0.68795   0.87448   0.00000  Uiso   1.00
C961   C     0.50006   0.95753   0.83335   0.00000  Uiso   1.00
C962   C     0.49994   0.70913   0.83331   0.00000  Uiso   1.00
C963   C     0.53166   0.85984   0.69475   0.00000  Uiso   1.00
C964   C     0.46834   0.80683   0.97192   0.00000  Uiso   1.00
C965   C     0.53167   0.85981   0.98012   0.00000  Uiso   1.00
C966   C     0.46833   0.80686   0.68655   0.00000  Uiso   1.00
N967   N     0.49999   0.83332   0.95240   0.00000  Uiso   1.00
N968   N     0.50001   0.83334   0.71427   0.00000  Uiso   1.00
O969   O     0.50000   0.77225   0.87154   0.00000  Uiso   1.00
O970   O     0.50000   0.89442   0.79513   0.00000  Uiso   1.00
O971   O     0.50000   0.77226   0.79510   0.00000  Uiso   1.00
O972   O     0.50000   0.89441   0.87157   0.00000  Uiso   1.00
O973   O     0.42392   0.83333   0.86261   0.00000  Uiso   1.00
O974   O     0.57608   0.83334   0.80405   0.00000  Uiso   1.00
O975   O     0.42392   0.83334   0.78617   0.00000  Uiso   1.00
O976   O     0.57608   0.83333   0.88050   0.00000  Uiso   1.00
Zn977  Zn    0.50000   0.83333   0.88437   0.00000  Uiso   1.00
Zn978  Zn    0.50000   0.83334   0.78229   0.00000  Uiso   1.00
F979   F     0.65464   0.83099   0.77087   0.00000  Uiso   1.00
F980   F     0.34536   0.83567   0.89580   0.00000  Uiso   1.00
H981   H     0.50178   0.70407   0.76008   0.00000  Uiso   1.00
H982   H     0.49822   0.96259   0.90659   0.00000  Uiso   1.00
H983   H     0.50193   0.96259   0.76011   0.00000  Uiso   1.00
H984   H     0.49807   0.70408   0.90655   0.00000  Uiso   1.00
F985   F     0.56335   0.88644   0.72154   0.00000  Uiso   1.00
F986   F     0.43665   0.78023   0.94513   0.00000  Uiso   1.00
F987   F     0.56345   0.88631   0.96154   0.00000  Uiso   1.00
F988   F     0.43655   0.78036   0.70513   0.00000  Uiso   1.00
C989   C     0.83328   0.75329   0.83331   0.00000  Uiso   1.00
C990   C     0.83338   0.91338   0.83336   0.00000  Uiso   1.00
C991   C     0.73386   0.83330   0.82149   0.00000  Uiso   1.00
C992   C     0.93281   0.83337   0.84518   0.00000  Uiso   1.00
C993   C     0.67919   0.83283   0.81502   0.00000  Uiso   1.00
C994   C     0.98748   0.83383   0.85165   0.00000  Uiso   1.00
C995   C     0.83432   0.68794   0.79217   0.00000  Uiso   1.00
C996   C     0.83235   0.97873   0.87450   0.00000  Uiso   1.00
C997   C     0.83440   0.97872   0.79219   0.00000  Uiso   1.00
C998   C     0.83227   0.68795   0.87448   0.00000  Uiso   1.00
C999   C     0.83339   0.95753   0.83335   0.00000  Uiso   1.00
C1000  C     0.83327   0.70913   0.83331   0.00000  Uiso   1.00
C1001  C     0.86499   0.85984   0.69475   0.00000  Uiso   1.00
C1002  C     0.80167   0.80683   0.97192   0.00000  Uiso   1.00
C1003  C     0.86500   0.85981   0.98012   0.00000  Uiso   1.00
C1004  C     0.80167   0.80686   0.68655   0.00000  Uiso   1.00
N1005  N     0.83332   0.83332   0.95240   0.00000  Uiso   1.00
N1006  N     0.83335   0.83334   0.71427   0.00000  Uiso   1.00
O1007  O     0.83333   0.77225   0.87154   0.00000  Uiso   1.00
O1008  O     0.83334   0.89442   0.79513   0.00000  Uiso   1.00
O1009  O     0.83333   0.77226   0.79510   0.00000  Uiso   1.00
O1010  O     0.83334   0.89441   0.87157   0.00000  Uiso   1.00
O1011  O     0.75725   0.83333   0.86261   0.00000  Uiso   1.00
O1012  O     0.90942   0.83334   0.80405   0.00000  Uiso   1.00
O1013  O     0.75725   0.83334   0.78617   0.00000  Uiso   1.00
O1014  O     0.90942   0.83333   0.88050   0.00000  Uiso   1.00
Zn1015 Zn    0.83333   0.83333   0.88437   0.00000  Uiso   1.00
Zn1016 Zn    0.83333   0.83334   0.78229   0.00000  Uiso   1.00
F1017  F     0.98797   0.83099   0.77087   0.00000  Uiso   1.00
F1018  F     0.67870   0.83567   0.89580   0.00000  Uiso   1.00
H1019  H     0.83512   0.70407   0.76008   0.00000  Uiso   1.00
H1020  H     0.83155   0.96259   0.90659   0.00000  Uiso   1.00
H1021  H     0.83526   0.96259   0.76011   0.00000  Uiso   1.00
H1022  H     0.83141   0.70408   0.90655   0.00000  Uiso   1.00
F1023  F     0.89669   0.88644   0.72154   0.00000  Uiso   1.00
F1024  F     0.76998   0.78023   0.94513   0.00000  Uiso   1.00
F1025  F     0.89678   0.88631   0.96154   0.00000  Uiso   1.00
F1026  F     0.76989   0.78036   0.70513   0.00000  Uiso   1.00
loop_
_geom_bond_atom_site_label_1
_geom_bond_atom_site_label_2
_geom_bond_distance
_geom_bond_site_symmetry_2
_ccdc_geom_bond_type
C1     O21     1.283   .     A
C1     C12     1.421   .     S
C1     O19     1.283   .     A
C2     O22     1.283   .     A
C2     C11     1.421   .     S
C2     O20     1.283   .     A
C3     O23     1.275   .     A
C3     O25     1.282   .     A
C3     C5      1.403   .     S
C4     O26     1.282   .     A
C4     O24     1.275   .     A
C4     C6      1.403   .     S
C5     C82     1.343   1_455 S
C5     F105    1.365   1_455 S
C6     C43     1.343   .     S
C6     F68     1.365   .     S
C7     C12     1.397   .     A
C7     H31     1.084   .     S
C7     C237    1.370   1_545 S
C8     C11     1.397   .     A
C8     H32     1.084   .     S
C8     C124    1.370   .     S
C9     H33     1.084   .     S
C9     C11     1.398   .     A
C9     C121    1.370   .     S
C10    H34     1.084   .     S
C10    C12     1.397   .     A
C10    C236    1.370   1_545 S
C13    N18     1.367   .     A
C13    F35     1.355   .     S
C13    C699    1.417   1_554 S
C14    N17     1.367   .     A
C14    F36     1.355   .     S
C14    C358    1.417   .     S
C15    F37     1.355   .     S
C15    N17     1.367   .     A
C15    C355    1.417   .     S
C16    N18     1.367   .     A
C16    F38     1.355   .     S
C16    C698    1.417   1_554 S
N17    Zn27    2.009   .     S
N18    Zn28    2.009   .     S
O19    Zn27    2.002   .     S
O20    Zn28    2.002   .     S
O21    Zn28    2.002   .     S
O22    Zn27    2.002   .     S
O23    Zn27    1.983   .     S
O24    Zn28    1.983   .     S
O25    Zn28    1.994   .     S
O26    Zn27    1.994   .     S
F29    C43     1.365   .     S
F30    C82     1.365   1_455 S
C39    O59     1.283   .     A
C39    C50     1.421   .     S
C39    O57     1.283   .     A
C40    O60     1.283   .     A
C40    C49     1.421   .     S
C40    O58     1.283   .     A
C41    O61     1.275   .     A
C41    O63     1.282   .     A
C41    C43     1.403   .     S
C42    O64     1.282   .     A
C42    O62     1.275   .     A
C42    C44     1.403   .     S
C44    C81     1.343   .     S
C44    F106    1.365   .     S
C45    C50     1.397   .     A
C45    H69     1.084   .     S
C45    C275    1.370   1_545 S
C46    C49     1.397   .     A
C46    H70     1.084   .     S
C46    C162    1.370   .     S
C47    H71     1.084   .     S
C47    C49     1.398   .     A
C47    C159    1.370   .     S
C48    H72     1.084   .     S
C48    C50     1.397   .     A
C48    C274    1.370   1_545 S
C51    N56     1.367   .     A
C51    F73     1.355   .     S
C51    C737    1.417   1_554 S
C52    N55     1.367   .     A
C52    F74     1.355   .     S
C52    C396    1.417   .     S
C53    F75     1.355   .     S
C53    N55     1.367   .     A
C53    C393    1.417   .     S
C54    N56     1.367   .     A
C54    F76     1.355   .     S
C54    C736    1.417   1_554 S
N55    Zn65    2.009   .     S
N56    Zn66    2.009   .     S
O57    Zn65    2.002   .     S
O58    Zn66    2.002   .     S
O59    Zn66    2.002   .     S
O60    Zn65    2.002   .     S
O61    Zn65    1.983   .     S
O62    Zn66    1.983   .     S
O63    Zn66    1.994   .     S
O64    Zn65    1.994   .     S
F67    C81     1.365   .     S
C77    O97     1.283   .     A
C77    C88     1.421   .     S
C77    O95     1.283   .     A
C78    O98     1.283   .     A
C78    C87     1.421   .     S
C78    O96     1.283   .     A
C79    O99     1.275   .     A
C79    O101    1.282   .     A
C79    C81     1.403   .     S
C80    O102    1.282   .     A
C80    O100    1.275   .     A
C80    C82     1.403   .     S
C82    C5      1.343   1_655 S
C82    F30     1.365   1_655 S
C83    C88     1.397   .     A
C83    H107    1.084   .     S
C83    C313    1.370   1_545 S
C84    C87     1.397   .     A
C84    H108    1.084   .     S
C84    C200    1.370   .     S
C85    H109    1.084   .     S
C85    C87     1.398   .     A
C85    C197    1.370   .     S
C86    H110    1.084   .     S
C86    C88     1.397   .     A
C86    C312    1.370   1_545 S
C89    N94     1.367   .     A
C89    F111    1.355   .     S
C89    C775    1.417   1_554 S
C90    N93     1.367   .     A
C90    F112    1.355   .     S
C90    C434    1.417   .     S
C91    F113    1.355   .     S
C91    N93     1.367   .     A
C91    C431    1.417   .     S
C92    N94     1.367   .     A
C92    F114    1.355   .     S
C92    C774    1.417   1_554 S
N93    Zn103   2.009   .     S
N94    Zn104   2.009   .     S
O95    Zn103   2.002   .     S
O96    Zn104   2.002   .     S
O97    Zn104   2.002   .     S
O98    Zn103   2.002   .     S
O99    Zn103   1.983   .     S
O100   Zn104   1.983   .     S
O101   Zn104   1.994   .     S
O102   Zn103   1.994   .     S
F105   C5      1.365   1_655 S
C115   O135    1.283   .     A
C115   C126    1.421   .     S
C115   O133    1.283   .     A
C116   O136    1.283   .     A
C116   C125    1.421   .     S
C116   O134    1.283   .     A
C117   O137    1.275   .     A
C117   O139    1.282   .     A
C117   C119    1.403   .     S
C118   O140    1.282   .     A
C118   O138    1.275   .     A
C118   C120    1.403   .     S
C119   C196    1.343   1_455 S
C119   F219    1.365   1_455 S
C120   C157    1.343   .     S
C120   F182    1.365   .     S
C121   C126    1.397   .     A
C121   H145    1.084   .     S
C122   C125    1.397   .     A
C122   H146    1.084   .     S
C122   C238    1.370   .     S
C123   H147    1.084   .     S
C123   C125    1.398   .     A
C123   C235    1.370   .     S
C124   H148    1.084   .     S
C124   C126    1.397   .     A
C127   N132    1.367   .     A
C127   F149    1.355   .     S
C127   C813    1.417   1_554 S
C128   N131    1.367   .     A
C128   F150    1.355   .     S
C128   C472    1.417   .     S
C129   F151    1.355   .     S
C129   N131    1.367   .     A
C129   C469    1.417   .     S
C130   N132    1.367   .     A
C130   F152    1.355   .     S
C130   C812    1.417   1_554 S
N131   Zn141   2.009   .     S
N132   Zn142   2.009   .     S
O133   Zn141   2.002   .     S
O134   Zn142   2.002   .     S
O135   Zn142   2.002   .     S
O136   Zn141   2.002   .     S
O137   Zn141   1.983   .     S
O138   Zn142   1.983   .     S
O139   Zn142   1.994   .     S
O140   Zn141   1.994   .     S
F143   C157    1.365   .     S
F144   C196    1.365   1_455 S
C153   O173    1.283   .     A
C153   C164    1.421   .     S
C153   O171    1.283   .     A
C154   O174    1.283   .     A
C154   C163    1.421   .     S
C154   O172    1.283   .     A
C155   O175    1.275   .     A
C155   O177    1.282   .     A
C155   C157    1.403   .     S
C156   O178    1.282   .     A
C156   O176    1.275   .     A
C156   C158    1.403   .     S
C158   C195    1.343   .     S
C158   F220    1.365   .     S
C159   C164    1.397   .     A
C159   H183    1.084   .     S
C160   C163    1.397   .     A
C160   H184    1.084   .     S
C160   C276    1.370   .     S
C161   H185    1.084   .     S
C161   C163    1.398   .     A
C161   C273    1.370   .     S
C162   H186    1.084   .     S
C162   C164    1.397   .     A
C165   N170    1.367   .     A
C165   F187    1.355   .     S
C165   C851    1.417   1_554 S
C166   N169    1.367   .     A
C166   F188    1.355   .     S
C166   C510    1.417   .     S
C167   F189    1.355   .     S
C167   N169    1.367   .     A
C167   C507    1.417   .     S
C168   N170    1.367   .     A
C168   F190    1.355   .     S
C168   C850    1.417   1_554 S
N169   Zn179   2.009   .     S
N170   Zn180   2.009   .     S
O171   Zn179   2.002   .     S
O172   Zn180   2.002   .     S
O173   Zn180   2.002   .     S
O174   Zn179   2.002   .     S
O175   Zn179   1.983   .     S
O176   Zn180   1.983   .     S
O177   Zn180   1.994   .     S
O178   Zn179   1.994   .     S
F181   C195    1.365   .     S
C191   O211    1.283   .     A
C191   C202    1.421   .     S
C191   O209    1.283   .     A
C192   O212    1.283   .     A
C192   C201    1.421   .     S
C192   O210    1.283   .     A
C193   O213    1.275   .     A
C193   O215    1.282   .     A
C193   C195    1.403   .     S
C194   O216    1.282   .     A
C194   O214    1.275   .     A
C194   C196    1.403   .     S
C196   C119    1.343   1_655 S
C196   F144    1.365   1_655 S
C197   C202    1.397   .     A
C197   H221    1.084   .     S
C198   C201    1.397   .     A
C198   H222    1.084   .     S
C198   C314    1.370   .     S
C199   H223    1.084   .     S
C199   C201    1.398   .     A
C199   C311    1.370   .     S
C200   H224    1.084   .     S
C200   C202    1.397   .     A
C203   N208    1.367   .     A
C203   F225    1.355   .     S
C203   C889    1.417   1_554 S
C204   N207    1.367   .     A
C204   F226    1.355   .     S
C204   C548    1.417   .     S
C205   F227    1.355   .     S
C205   N207    1.367   .     A
C205   C545    1.417   .     S
C206   N208    1.367   .     A
C206   F228    1.355   .     S
C206   C888    1.417   1_554 S
N207   Zn217   2.009   .     S
N208   Zn218   2.009   .     S
O209   Zn217   2.002   .     S
O210   Zn218   2.002   .     S
O211   Zn218   2.002   .     S
O212   Zn217   2.002   .     S
O213   Zn217   1.983   .     S
O214   Zn218   1.983   .     S
O215   Zn218   1.994   .     S
O216   Zn217   1.994   .     S
F219   C119    1.365   1_655 S
C229   O249    1.283   .     A
C229   C240    1.421   .     S
C229   O247    1.283   .     A
C230   O250    1.283   .     A
C230   C239    1.421   .     S
C230   O248    1.283   .     A
C231   O251    1.275   .     A
C231   O253    1.282   .     A
C231   C233    1.403   .     S
C232   O254    1.282   .     A
C232   O252    1.275   .     A
C232   C234    1.403   .     S
C233   C310    1.343   1_455 S
C233   F333    1.365   1_455 S
C234   C271    1.343   .     S
C234   F296    1.365   .     S
C235   C240    1.397   .     A
C235   H259    1.084   .     S
C236   C239    1.397   .     A
C236   H260    1.084   .     S
C236   C10     1.370   1_565 S
C237   H261    1.084   .     S
C237   C239    1.398   .     A
C237   C7      1.370   1_565 S
C238   H262    1.084   .     S
C238   C240    1.397   .     A
C241   N246    1.367   .     A
C241   F263    1.355   .     S
C241   C927    1.417   1_554 S
C242   N245    1.367   .     A
C242   F264    1.355   .     S
C242   C586    1.417   .     S
C243   F265    1.355   .     S
C243   N245    1.367   .     A
C243   C583    1.417   .     S
C244   N246    1.367   .     A
C244   F266    1.355   .     S
C244   C926    1.417   1_554 S
N245   Zn255   2.009   .     S
N246   Zn256   2.009   .     S
O247   Zn255   2.002   .     S
O248   Zn256   2.002   .     S
O249   Zn256   2.002   .     S
O250   Zn255   2.002   .     S
O251   Zn255   1.983   .     S
O252   Zn256   1.983   .     S
O253   Zn256   1.994   .     S
O254   Zn255   1.994   .     S
F257   C271    1.365   .     S
F258   C310    1.365   1_455 S
C267   O287    1.283   .     A
C267   C278    1.421   .     S
C267   O285    1.283   .     A
C268   O288    1.283   .     A
C268   C277    1.421   .     S
C268   O286    1.283   .     A
C269   O289    1.275   .     A
C269   O291    1.282   .     A
C269   C271    1.403   .     S
C270   O292    1.282   .     A
C270   O290    1.275   .     A
C270   C272    1.403   .     S
C272   C309    1.343   .     S
C272   F334    1.365   .     S
C273   C278    1.397   .     A
C273   H297    1.084   .     S
C274   C277    1.397   .     A
C274   H298    1.084   .     S
C274   C48     1.370   1_565 S
C275   H299    1.084   .     S
C275   C277    1.398   .     A
C275   C45     1.370   1_565 S
C276   H300    1.084   .     S
C276   C278    1.397   .     A
C279   N284    1.367   .     A
C279   F301    1.355   .     S
C279   C965    1.417   1_554 S
C280   N283    1.367   .     A
C280   F302    1.355   .     S
C280   C624    1.417   .     S
C281   F303    1.355   .     S
C281   N283    1.367   .     A
C281   C621    1.417   .     S
C282   N284    1.367   .     A
C282   F304    1.355   .     S
C282   C964    1.417   1_554 S
N283   Zn293   2.009   .     S
N284   Zn294   2.009   .     S
O285   Zn293   2.002   .     S
O286   Zn294   2.002   .     S
O287   Zn294   2.002   .     S
O288   Zn293   2.002   .     S
O289   Zn293   1.983   .     S
O290   Zn294   1.983   .     S
O291   Zn294   1.994   .     S
O292   Zn293   1.994   .     S
F295   C309    1.365   .     S
C305   O325    1.283   .     A
C305   C316    1.421   .     S
C305   O323    1.283   .     A
C306   O326    1.283   .     A
C306   C315    1.421   .     S
C306   O324    1.283   .     A
C307   O327    1.275   .     A
C307   O329    1.282   .     A
C307   C309    1.403   .     S
C308   O330    1.282   .     A
C308   O328    1.275   .     A
C308   C310    1.403   .     S
C310   C233    1.343   1_655 S
C310   F258    1.365   1_655 S
C311   C316    1.397   .     A
C311   H335    1.084   .     S
C312   C315    1.397   .     A
C312   H336    1.084   .     S
C312   C86     1.370   1_565 S
C313   H337    1.084   .     S
C313   C315    1.398   .     A
C313   C83     1.370   1_565 S
C314   H338    1.084   .     S
C314   C316    1.397   .     A
C317   N322    1.367   .     A
C317   F339    1.355   .     S
C317   C1003   1.417   1_554 S
C318   N321    1.367   .     A
C318   F340    1.355   .     S
C318   C662    1.417   .     S
C319   F341    1.355   .     S
C319   N321    1.367   .     A
C319   C659    1.417   .     S
C320   N322    1.367   .     A
C320   F342    1.355   .     S
C320   C1002   1.417   1_554 S
N321   Zn331   2.009   .     S
N322   Zn332   2.009   .     S
O323   Zn331   2.002   .     S
O324   Zn332   2.002   .     S
O325   Zn332   2.002   .     S
O326   Zn331   2.002   .     S
O327   Zn331   1.983   .     S
O328   Zn332   1.983   .     S
O329   Zn332   1.994   .     S
O330   Zn331   1.994   .     S
F333   C233    1.365   1_655 S
C343   O363    1.283   .     A
C343   C354    1.421   .     S
C343   O361    1.283   .     A
C344   O364    1.283   .     A
C344   C353    1.421   .     S
C344   O362    1.283   .     A
C345   O365    1.275   .     A
C345   O367    1.282   .     A
C345   C347    1.403   .     S
C346   O368    1.282   .     A
C346   O366    1.275   .     A
C346   C348    1.403   .     S
C347   C424    1.343   1_455 S
C347   F447    1.365   1_455 S
C348   C385    1.343   .     S
C348   F410    1.365   .     S
C349   C354    1.397   .     A
C349   H373    1.084   .     S
C349   C579    1.370   1_545 S
C350   C353    1.397   .     A
C350   H374    1.084   .     S
C350   C466    1.370   .     S
C351   H375    1.084   .     S
C351   C353    1.398   .     A
C351   C463    1.370   .     S
C352   H376    1.084   .     S
C352   C354    1.397   .     A
C352   C578    1.370   1_545 S
C355   N360    1.367   .     A
C355   F377    1.355   .     S
C356   N359    1.367   .     A
C356   F378    1.355   .     S
C356   C700    1.417   .     S
C357   F379    1.355   .     S
C357   N359    1.367   .     A
C357   C697    1.417   .     S
C358   N360    1.367   .     A
C358   F380    1.355   .     S
N359   Zn369   2.009   .     S
N360   Zn370   2.009   .     S
O361   Zn369   2.002   .     S
O362   Zn370   2.002   .     S
O363   Zn370   2.002   .     S
O364   Zn369   2.002   .     S
O365   Zn369   1.983   .     S
O366   Zn370   1.983   .     S
O367   Zn370   1.994   .     S
O368   Zn369   1.994   .     S
F371   C385    1.365   .     S
F372   C424    1.365   1_455 S
C381   O401    1.283   .     A
C381   C392    1.421   .     S
C381   O399    1.283   .     A
C382   O402    1.283   .     A
C382   C391    1.421   .     S
C382   O400    1.283   .     A
C383   O403    1.275   .     A
C383   O405    1.282   .     A
C383   C385    1.403   .     S
C384   O406    1.282   .     A
C384   O404    1.275   .     A
C384   C386    1.403   .     S
C386   C423    1.343   .     S
C386   F448    1.365   .     S
C387   C392    1.397   .     A
C387   H411    1.084   .     S
C387   C617    1.370   1_545 S
C388   C391    1.397   .     A
C388   H412    1.084   .     S
C388   C504    1.370   .     S
C389   H413    1.084   .     S
C389   C391    1.398   .     A
C389   C501    1.370   .     S
C390   H414    1.084   .     S
C390   C392    1.397   .     A
C390   C616    1.370   1_545 S
C393   N398    1.367   .     A
C393   F415    1.355   .     S
C394   N397    1.367   .     A
C394   F416    1.355   .     S
C394   C738    1.417   .     S
C395   F417    1.355   .     S
C395   N397    1.367   .     A
C395   C735    1.417   .     S
C396   N398    1.367   .     A
C396   F418    1.355   .     S
N397   Zn407   2.009   .     S
N398   Zn408   2.009   .     S
O399   Zn407   2.002   .     S
O400   Zn408   2.002   .     S
O401   Zn408   2.002   .     S
O402   Zn407   2.002   .     S
O403   Zn407   1.983   .     S
O404   Zn408   1.983   .     S
O405   Zn408   1.994   .     S
O406   Zn407   1.994   .     S
F409   C423    1.365   .     S
C419   O439    1.283   .     A
C419   C430    1.421   .     S
C419   O437    1.283   .     A
C420   O440    1.283   .     A
C420   C429    1.421   .     S
C420   O438    1.283   .     A
C421   O441    1.275   .     A
C421   O443    1.282   .     A
C421   C423    1.403   .     S
C422   O444    1.282   .     A
C422   O442    1.275   .     A
C422   C424    1.403   .     S
C424   C347    1.343   1_655 S
C424   F372    1.365   1_655 S
C425   C430    1.397   .     A
C425   H449    1.084   .     S
C425   C655    1.370   1_545 S
C426   C429    1.397   .     A
C426   H450    1.084   .     S
C426   C542    1.370   .     S
C427   H451    1.084   .     S
C427   C429    1.398   .     A
C427   C539    1.370   .     S
C428   H452    1.084   .     S
C428   C430    1.397   .     A
C428   C654    1.370   1_545 S
C431   N436    1.367   .     A
C431   F453    1.355   .     S
C432   N435    1.367   .     A
C432   F454    1.355   .     S
C432   C776    1.417   .     S
C433   F455    1.355   .     S
C433   N435    1.367   .     A
C433   C773    1.417   .     S
C434   N436    1.367   .     A
C434   F456    1.355   .     S
N435   Zn445   2.009   .     S
N436   Zn446   2.009   .     S
O437   Zn445   2.002   .     S
O438   Zn446   2.002   .     S
O439   Zn446   2.002   .     S
O440   Zn445   2.002   .     S
O441   Zn445   1.983   .     S
O442   Zn446   1.983   .     S
O443   Zn446   1.994   .     S
O444   Zn445   1.994   .     S
F447   C347    1.365   1_655 S
C457   O477    1.283   .     A
C457   C468    1.421   .     S
C457   O475    1.283   .     A
C458   O478    1.283   .     A
C458   C467    1.421   .     S
C458   O476    1.283   .     A
C459   O479    1.275   .     A
C459   O481    1.282   .     A
C459   C461    1.403   .     S
C460   O482    1.282   .     A
C460   O480    1.275   .     A
C460   C462    1.403   .     S
C461   C538    1.343   1_455 S
C461   F561    1.365   1_455 S
C462   C499    1.343   .     S
C462   F524    1.365   .     S
C463   C468    1.397   .     A
C463   H487    1.084   .     S
C464   C467    1.397   .     A
C464   H488    1.084   .     S
C464   C580    1.370   .     S
C465   H489    1.084   .     S
C465   C467    1.398   .     A
C465   C577    1.370   .     S
C466   H490    1.084   .     S
C466   C468    1.397   .     A
C469   N474    1.367   .     A
C469   F491    1.355   .     S
C470   N473    1.367   .     A
C470   F492    1.355   .     S
C470   C814    1.417   .     S
C471   F493    1.355   .     S
C471   N473    1.367   .     A
C471   C811    1.417   .     S
C472   N474    1.367   .     A
C472   F494    1.355   .     S
N473   Zn483   2.009   .     S
N474   Zn484   2.009   .     S
O475   Zn483   2.002   .     S
O476   Zn484   2.002   .     S
O477   Zn484   2.002   .     S
O478   Zn483   2.002   .     S
O479   Zn483   1.983   .     S
O480   Zn484   1.983   .     S
O481   Zn484   1.994   .     S
O482   Zn483   1.994   .     S
F485   C499    1.365   .     S
F486   C538    1.365   1_455 S
C495   O515    1.283   .     A
C495   C506    1.421   .     S
C495   O513    1.283   .     A
C496   O516    1.283   .     A
C496   C505    1.421   .     S
C496   O514    1.283   .     A
C497   O517    1.275   .     A
C497   O519    1.282   .     A
C497   C499    1.403   .     S
C498   O520    1.282   .     A
C498   O518    1.275   .     A
C498   C500    1.403   .     S
C500   C537    1.343   .     S
C500   F562    1.365   .     S
C501   C506    1.397   .     A
C501   H525    1.084   .     S
C502   C505    1.397   .     A
C502   H526    1.084   .     S
C502   C618    1.370   .     S
C503   H527    1.084   .     S
C503   C505    1.398   .     A
C503   C615    1.370   .     S
C504   H528    1.084   .     S
C504   C506    1.397   .     A
C507   N512    1.367   .     A
C507   F529    1.355   .     S
C508   N511    1.367   .     A
C508   F530    1.355   .     S
C508   C852    1.417   .     S
C509   F531    1.355   .     S
C509   N511    1.367   .     A
C509   C849    1.417   .     S
C510   N512    1.367   .     A
C510   F532    1.355   .     S
N511   Zn521   2.009   .     S
N512   Zn522   2.009   .     S
O513   Zn521   2.002   .     S
O514   Zn522   2.002   .     S
O515   Zn522   2.002   .     S
O516   Zn521   2.002   .     S
O517   Zn521   1.983   .     S
O518   Zn522   1.983   .     S
O519   Zn522   1.994   .     S
O520   Zn521   1.994   .     S
F523   C537    1.365   .     S
C533   O553    1.283   .     A
C533   C544    1.421   .     S
C533   O551    1.283   .     A
C534   O554    1.283   .     A
C534   C543    1.421   .     S
C534   O552    1.283   .     A
C535   O555    1.275   .     A
C535   O557    1.282   .     A
C535   C537    1.403   .     S
C536   O558    1.282   .     A
C536   O556    1.275   .     A
C536   C538    1.403   .     S
C538   C461    1.343   1_655 S
C538   F486    1.365   1_655 S
C539   C544    1.397   .     A
C539   H563    1.084   .     S
C540   C543    1.397   .     A
C540   H564    1.084   .     S
C540   C656    1.370   .     S
C541   H565    1.084   .     S
C541   C543    1.398   .     A
C541   C653    1.370   .     S
C542   H566    1.084   .     S
C542   C544    1.397   .     A
C545   N550    1.367   .     A
C545   F567    1.355   .     S
C546   N549    1.367   .     A
C546   F568    1.355   .     S
C546   C890    1.417   .     S
C547   F569    1.355   .     S
C547   N549    1.367   .     A
C547   C887    1.417   .     S
C548   N550    1.367   .     A
C548   F570    1.355   .     S
N549   Zn559   2.009   .     S
N550   Zn560   2.009   .     S
O551   Zn559   2.002   .     S
O552   Zn560   2.002   .     S
O553   Zn560   2.002   .     S
O554   Zn559   2.002   .     S
O555   Zn559   1.983   .     S
O556   Zn560   1.983   .     S
O557   Zn560   1.994   .     S
O558   Zn559   1.994   .     S
F561   C461    1.365   1_655 S
C571   O591    1.283   .     A
C571   C582    1.421   .     S
C571   O589    1.283   .     A
C572   O592    1.283   .     A
C572   C581    1.421   .     S
C572   O590    1.283   .     A
C573   O593    1.275   .     A
C573   O595    1.282   .     A
C573   C575    1.403   .     S
C574   O596    1.282   .     A
C574   O594    1.275   .     A
C574   C576    1.403   .     S
C575   C652    1.343   1_455 S
C575   F675    1.365   1_455 S
C576   C613    1.343   .     S
C576   F638    1.365   .     S
C577   C582    1.397   .     A
C577   H601    1.084   .     S
C578   C581    1.397   .     A
C578   H602    1.084   .     S
C578   C352    1.370   1_565 S
C579   H603    1.084   .     S
C579   C581    1.398   .     A
C579   C349    1.370   1_565 S
C580   H604    1.084   .     S
C580   C582    1.397   .     A
C583   N588    1.367   .     A
C583   F605    1.355   .     S
C584   N587    1.367   .     A
C584   F606    1.355   .     S
C584   C928    1.417   .     S
C585   F607    1.355   .     S
C585   N587    1.367   .     A
C585   C925    1.417   .     S
C586   N588    1.367   .     A
C586   F608    1.355   .     S
N587   Zn597   2.009   .     S
N588   Zn598   2.009   .     S
O589   Zn597   2.002   .     S
O590   Zn598   2.002   .     S
O591   Zn598   2.002   .     S
O592   Zn597   2.002   .     S
O593   Zn597   1.983   .     S
O594   Zn598   1.983   .     S
O595   Zn598   1.994   .     S
O596   Zn597   1.994   .     S
F599   C613    1.365   .     S
F600   C652    1.365   1_455 S
C609   O629    1.283   .     A
C609   C620    1.421   .     S
C609   O627    1.283   .     A
C610   O630    1.283   .     A
C610   C619    1.421   .     S
C610   O628    1.283   .     A
C611   O631    1.275   .     A
C611   O633    1.282   .     A
C611   C613    1.403   .     S
C612   O634    1.282   .     A
C612   O632    1.275   .     A
C612   C614    1.403   .     S
C614   C651    1.343   .     S
C614   F676    1.365   .     S
C615   C620    1.397   .     A
C615   H639    1.084   .     S
C616   C619    1.397   .     A
C616   H640    1.084   .     S
C616   C390    1.370   1_565 S
C617   H641    1.084   .     S
C617   C619    1.398   .     A
C617   C387    1.370   1_565 S
C618   H642    1.084   .     S
C618   C620    1.397   .     A
C621   N626    1.367   .     A
C621   F643    1.355   .     S
C622   N625    1.367   .     A
C622   F644    1.355   .     S
C622   C966    1.417   .     S
C623   F645    1.355   .     S
C623   N625    1.367   .     A
C623   C963    1.417   .     S
C624   N626    1.367   .     A
C624   F646    1.355   .     S
N625   Zn635   2.009   .     S
N626   Zn636   2.009   .     S
O627   Zn635   2.002   .     S
O628   Zn636   2.002   .     S
O629   Zn636   2.002   .     S
O630   Zn635   2.002   .     S
O631   Zn635   1.983   .     S
O632   Zn636   1.983   .     S
O633   Zn636   1.994   .     S
O634   Zn635   1.994   .     S
F637   C651    1.365   .     S
C647   O667    1.283   .     A
C647   C658    1.421   .     S
C647   O665    1.283   .     A
C648   O668    1.283   .     A
C648   C657    1.421   .     S
C648   O666    1.283   .     A
C649   O669    1.275   .     A
C649   O671    1.282   .     A
C649   C651    1.403   .     S
C650   O672    1.282   .     A
C650   O670    1.275   .     A
C650   C652    1.403   .     S
C652   C575    1.343   1_655 S
C652   F600    1.365   1_655 S
C653   C658    1.397   .     A
C653   H677    1.084   .     S
C654   C657    1.397   .     A
C654   H678    1.084   .     S
C654   C428    1.370   1_565 S
C655   H679    1.084   .     S
C655   C657    1.398   .     A
C655   C425    1.370   1_565 S
C656   H680    1.084   .     S
C656   C658    1.397   .     A
C659   N664    1.367   .     A
C659   F681    1.355   .     S
C660   N663    1.367   .     A
C660   F682    1.355   .     S
C660   C1004   1.417   .     S
C661   F683    1.355   .     S
C661   N663    1.367   .     A
C661   C1001   1.417   .     S
C662   N664    1.367   .     A
C662   F684    1.355   .     S
N663   Zn673   2.009   .     S
N664   Zn674   2.009   .     S
O665   Zn673   2.002   .     S
O666   Zn674   2.002   .     S
O667   Zn674   2.002   .     S
O668   Zn673   2.002   .     S
O669   Zn673   1.983   .     S
O670   Zn674   1.983   .     S
O671   Zn674   1.994   .     S
O672   Zn673   1.994   .     S
F675   C575    1.365   1_655 S
C685   O705    1.283   .     A
C685   C696    1.421   .     S
C685   O703    1.283   .     A
C686   O706    1.283   .     A
C686   C695    1.421   .     S
C686   O704    1.283   .     A
C687   O707    1.275   .     A
C687   O709    1.282   .     A
C687   C689    1.403   .     S
C688   O710    1.282   .     A
C688   O708    1.275   .     A
C688   C690    1.403   .     S
C689   C766    1.343   1_455 S
C689   F789    1.365   1_455 S
C690   C727    1.343   .     S
C690   F752    1.365   .     S
C691   C696    1.397   .     A
C691   H715    1.084   .     S
C691   C921    1.370   1_545 S
C692   C695    1.397   .     A
C692   H716    1.084   .     S
C692   C808    1.370   .     S
C693   H717    1.084   .     S
C693   C695    1.398   .     A
C693   C805    1.370   .     S
C694   H718    1.084   .     S
C694   C696    1.397   .     A
C694   C920    1.370   1_545 S
C697   N702    1.367   .     A
C697   F719    1.355   .     S
C698   N701    1.367   .     A
C698   F720    1.355   .     S
C698   C16     1.417   1_556 S
C699   F721    1.355   .     S
C699   N701    1.367   .     A
C699   C13     1.417   1_556 S
C700   N702    1.367   .     A
C700   F722    1.355   .     S
N701   Zn711   2.009   .     S
N702   Zn712   2.009   .     S
O703   Zn711   2.002   .     S
O704   Zn712   2.002   .     S
O705   Zn712   2.002   .     S
O706   Zn711   2.002   .     S
O707   Zn711   1.983   .     S
O708   Zn712   1.983   .     S
O709   Zn712   1.994   .     S
O710   Zn711   1.994   .     S
F713   C727    1.365   .     S
F714   C766    1.365   1_455 S
C723   O743    1.283   .     A
C723   C734    1.421   .     S
C723   O741    1.283   .     A
C724   O744    1.283   .     A
C724   C733    1.421   .     S
C724   O742    1.283   .     A
C725   O745    1.275   .     A
C725   O747    1.282   .     A
C725   C727    1.403   .     S
C726   O748    1.282   .     A
C726   O746    1.275   .     A
C726   C728    1.403   .     S
C728   C765    1.343   .     S
C728   F790    1.365   .     S
C729   C734    1.397   .     A
C729   H753    1.084   .     S
C729   C959    1.370   1_545 S
C730   C733    1.397   .     A
C730   H754    1.084   .     S
C730   C846    1.370   .     S
C731   H755    1.084   .     S
C731   C733    1.398   .     A
C731   C843    1.370   .     S
C732   H756    1.084   .     S
C732   C734    1.397   .     A
C732   C958    1.370   1_545 S
C735   N740    1.367   .     A
C735   F757    1.355   .     S
C736   N739    1.367   .     A
C736   F758    1.355   .     S
C736   C54     1.417   1_556 S
C737   F759    1.355   .     S
C737   N739    1.367   .     A
C737   C51     1.417   1_556 S
C738   N740    1.367   .     A
C738   F760    1.355   .     S
N739   Zn749   2.009   .     S
N740   Zn750   2.009   .     S
O741   Zn749   2.002   .     S
O742   Zn750   2.002   .     S
O743   Zn750   2.002   .     S
O744   Zn749   2.002   .     S
O745   Zn749   1.983   .     S
O746   Zn750   1.983   .     S
O747   Zn750   1.994   .     S
O748   Zn749   1.994   .     S
F751   C765    1.365   .     S
C761   O781    1.283   .     A
C761   C772    1.421   .     S
C761   O779    1.283   .     A
C762   O782    1.283   .     A
C762   C771    1.421   .     S
C762   O780    1.283   .     A
C763   O783    1.275   .     A
C763   O785    1.282   .     A
C763   C765    1.403   .     S
C764   O786    1.282   .     A
C764   O784    1.275   .     A
C764   C766    1.403   .     S
C766   C689    1.343   1_655 S
C766   F714    1.365   1_655 S
C767   C772    1.397   .     A
C767   H791    1.084   .     S
C767   C997    1.370   1_545 S
C768   C771    1.397   .     A
C768   H792    1.084   .     S
C768   C884    1.370   .     S
C769   H793    1.084   .     S
C769   C771    1.398   .     A
C769   C881    1.370   .     S
C770   H794    1.084   .     S
C770   C772    1.397   .     A
C770   C996    1.370   1_545 S
C773   N778    1.367   .     A
C773   F795    1.355   .     S
C774   N777    1.367   .     A
C774   F796    1.355   .     S
C774   C92     1.417   1_556 S
C775   F797    1.355   .     S
C775   N777    1.367   .     A
C775   C89     1.417   1_556 S
C776   N778    1.367   .     A
C776   F798    1.355   .     S
N777   Zn787   2.009   .     S
N778   Zn788   2.009   .     S
O779   Zn787   2.002   .     S
O780   Zn788   2.002   .     S
O781   Zn788   2.002   .     S
O782   Zn787   2.002   .     S
O783   Zn787   1.983   .     S
O784   Zn788   1.983   .     S
O785   Zn788   1.994   .     S
O786   Zn787   1.994   .     S
F789   C689    1.365   1_655 S
C799   O819    1.283   .     A
C799   C810    1.421   .     S
C799   O817    1.283   .     A
C800   O820    1.283   .     A
C800   C809    1.421   .     S
C800   O818    1.283   .     A
C801   O821    1.275   .     A
C801   O823    1.282   .     A
C801   C803    1.403   .     S
C802   O824    1.282   .     A
C802   O822    1.275   .     A
C802   C804    1.403   .     S
C803   C880    1.343   1_455 S
C803   F903    1.365   1_455 S
C804   C841    1.343   .     S
C804   F866    1.365   .     S
C805   C810    1.397   .     A
C805   H829    1.084   .     S
C806   C809    1.397   .     A
C806   H830    1.084   .     S
C806   C922    1.370   .     S
C807   H831    1.084   .     S
C807   C809    1.398   .     A
C807   C919    1.370   .     S
C808   H832    1.084   .     S
C808   C810    1.397   .     A
C811   N816    1.367   .     A
C811   F833    1.355   .     S
C812   N815    1.367   .     A
C812   F834    1.355   .     S
C812   C130    1.417   1_556 S
C813   F835    1.355   .     S
C813   N815    1.367   .     A
C813   C127    1.417   1_556 S
C814   N816    1.367   .     A
C814   F836    1.355   .     S
N815   Zn825   2.009   .     S
N816   Zn826   2.009   .     S
O817   Zn825   2.002   .     S
O818   Zn826   2.002   .     S
O819   Zn826   2.002   .     S
O820   Zn825   2.002   .     S
O821   Zn825   1.983   .     S
O822   Zn826   1.983   .     S
O823   Zn826   1.994   .     S
O824   Zn825   1.994   .     S
F827   C841    1.365   .     S
F828   C880    1.365   1_455 S
C837   O857    1.283   .     A
C837   C848    1.421   .     S
C837   O855    1.283   .     A
C838   O858    1.283   .     A
C838   C847    1.421   .     S
C838   O856    1.283   .     A
C839   O859    1.275   .     A
C839   O861    1.282   .     A
C839   C841    1.403   .     S
C840   O862    1.282   .     A
C840   O860    1.275   .     A
C840   C842    1.403   .     S
C842   C879    1.343   .     S
C842   F904    1.365   .     S
C843   C848    1.397   .     A
C843   H867    1.084   .     S
C844   C847    1.397   .     A
C844   H868    1.084   .     S
C844   C960    1.370   .     S
C845   H869    1.084   .     S
C845   C847    1.398   .     A
C845   C957    1.370   .     S
C846   H870    1.084   .     S
C846   C848    1.397   .     A
C849   N854    1.367   .     A
C849   F871    1.355   .     S
C850   N853    1.367   .     A
C850   F872    1.355   .     S
C850   C168    1.417   1_556 S
C851   F873    1.355   .     S
C851   N853    1.367   .     A
C851   C165    1.417   1_556 S
C852   N854    1.367   .     A
C852   F874    1.355   .     S
N853   Zn863   2.009   .     S
N854   Zn864   2.009   .     S
O855   Zn863   2.002   .     S
O856   Zn864   2.002   .     S
O857   Zn864   2.002   .     S
O858   Zn863   2.002   .     S
O859   Zn863   1.983   .     S
O860   Zn864   1.983   .     S
O861   Zn864   1.994   .     S
O862   Zn863   1.994   .     S
F865   C879    1.365   .     S
C875   O895    1.283   .     A
C875   C886    1.421   .     S
C875   O893    1.283   .     A
C876   O896    1.283   .     A
C876   C885    1.421   .     S
C876   O894    1.283   .     A
C877   O897    1.275   .     A
C877   O899    1.282   .     A
C877   C879    1.403   .     S
C878   O900    1.282   .     A
C878   O898    1.275   .     A
C878   C880    1.403   .     S
C880   C803    1.343   1_655 S
C880   F828    1.365   1_655 S
C881   C886    1.397   .     A
C881   H905    1.084   .     S
C882   C885    1.397   .     A
C882   H906    1.084   .     S
C882   C998    1.370   .     S
C883   H907    1.084   .     S
C883   C885    1.398   .     A
C883   C995    1.370   .     S
C884   H908    1.084   .     S
C884   C886    1.397   .     A
C887   N892    1.367   .     A
C887   F909    1.355   .     S
C888   N891    1.367   .     A
C888   F910    1.355   .     S
C888   C206    1.417   1_556 S
C889   F911    1.355   .     S
C889   N891    1.367   .     A
C889   C203    1.417   1_556 S
C890   N892    1.367   .     A
C890   F912    1.355   .     S
N891   Zn901   2.009   .     S
N892   Zn902   2.009   .     S
O893   Zn901   2.002   .     S
O894   Zn902   2.002   .     S
O895   Zn902   2.002   .     S
O896   Zn901   2.002   .     S
O897   Zn901   1.983   .     S
O898   Zn902   1.983   .     S
O899   Zn902   1.994   .     S
O900   Zn901   1.994   .     S
F903   C803    1.365   1_655 S
C913   O933    1.283   .     A
C913   C924    1.421   .     S
C913   O931    1.283   .     A
C914   O934    1.283   .     A
C914   C923    1.421   .     S
C914   O932    1.283   .     A
C915   O935    1.275   .     A
C915   O937    1.282   .     A
C915   C917    1.403   .     S
C916   O938    1.282   .     A
C916   O936    1.275   .     A
C916   C918    1.403   .     S
C917   C994    1.343   1_455 S
C917   F1017   1.365   1_455 S
C918   C955    1.343   .     S
C918   F980    1.365   .     S
C919   C924    1.397   .     A
C919   H943    1.084   .     S
C920   C923    1.397   .     A
C920   H944    1.084   .     S
C920   C694    1.370   1_565 S
C921   H945    1.084   .     S
C921   C923    1.398   .     A
C921   C691    1.370   1_565 S
C922   H946    1.084   .     S
C922   C924    1.397   .     A
C925   N930    1.367   .     A
C925   F947    1.355   .     S
C926   N929    1.367   .     A
C926   F948    1.355   .     S
C926   C244    1.417   1_556 S
C927   F949    1.355   .     S
C927   N929    1.367   .     A
C927   C241    1.417   1_556 S
C928   N930    1.367   .     A
C928   F950    1.355   .     S
N929   Zn939   2.009   .     S
N930   Zn940   2.009   .     S
O931   Zn939   2.002   .     S
O932   Zn940   2.002   .     S
O933   Zn940   2.002   .     S
O934   Zn939   2.002   .     S
O935   Zn939   1.983   .     S
O936   Zn940   1.983   .     S
O937   Zn940   1.994   .     S
O938   Zn939   1.994   .     S
F941   C955    1.365   .     S
F942   C994    1.365   1_455 S
C951   O971    1.283   .     A
C951   C962    1.421   .     S
C951   O969    1.283   .     A
C952   O972    1.283   .     A
C952   C961    1.421   .     S
C952   O970    1.283   .     A
C953   O973    1.275   .     A
C953   O975    1.282   .     A
C953   C955    1.403   .     S
C954   O976    1.282   .     A
C954   O974    1.275   .     A
C954   C956    1.403   .     S
C956   C993    1.343   .     S
C956   F1018   1.365   .     S
C957   C962    1.397   .     A
C957   H981    1.084   .     S
C958   C961    1.397   .     A
C958   H982    1.084   .     S
C958   C732    1.370   1_565 S
C959   H983    1.084   .     S
C959   C961    1.398   .     A
C959   C729    1.370   1_565 S
C960   H984    1.084   .     S
C960   C962    1.397   .     A
C963   N968    1.367   .     A
C963   F985    1.355   .     S
C964   N967    1.367   .     A
C964   F986    1.355   .     S
C964   C282    1.417   1_556 S
C965   F987    1.355   .     S
C965   N967    1.367   .     A
C965   C279    1.417   1_556 S
C966   N968    1.367   .     A
C966   F988    1.355   .     S
N967   Zn977   2.009   .     S
N968   Zn978   2.009   .     S
O969   Zn977   2.002   .     S
O970   Zn978   2.002   .     S
O971   Zn978   2.002   .     S
O972   Zn977   2.002   .     S
O973   Zn977   1.983   .     S
O974   Zn978   1.983   .     S
O975   Zn978   1.994   .     S
O976   Zn977   1.994   .     S
F979   C993    1.365   .     S
C989   O1009   1.283   .     A
C989   C1000   1.421   .     S
C989   O1007   1.283   .     A
C990   O1010   1.283   .     A
C990   C999    1.421   .     S
C990   O1008   1.283   .     A
C991   O1011   1.275   .     A
C991   O1013   1.282   .     A
C991   C993    1.403   .     S
C992   O1014   1.282   .     A
C992   O1012   1.275   .     A
C992   C994    1.403   .     S
C994   C917    1.343   1_655 S
C994   F942    1.365   1_655 S
C995   C1000   1.397   .     A
C995   H1019   1.084   .     S
C996   C999    1.397   .     A
C996   H1020   1.084   .     S
C996   C770    1.370   1_565 S
C997   H1021   1.084   .     S
C997   C999    1.398   .     A
C997   C767    1.370   1_565 S
C998   H1022   1.084   .     S
C998   C1000   1.397   .     A
C1001  N1006   1.367   .     A
C1001  F1023   1.355   .     S
C1002  N1005   1.367   .     A
C1002  F1024   1.355   .     S
C1002  C320    1.417   1_556 S
C1003  F1025   1.355   .     S
C1003  N1005   1.367   .     A
C1003  C317    1.417   1_556 S
C1004  N1006   1.367   .     A
C1004  F1026   1.355   .     S
N1005  Zn1015  2.009   .     S
N1006  Zn1016  2.009   .     S
O1007  Zn1015  2.002   .     S
O1008  Zn1016  2.002   .     S
O1009  Zn1016  2.002   .     S
O1010  Zn1015  2.002   .     S
O1011  Zn1015  1.983   .     S
O1012  Zn1016  1.983   .     S
O1013  Zn1016  1.994   .     S
O1014  Zn1015  1.994   .     S
F1017  C917    1.365   1_655 S
