data_str_m3_o2_o10_pcu_sym.14
_audit_creation_date              2020-01-03
_audit_creation_method            'Materials Studio'
_symmetry_space_group_name_H-M    'P1'
_symmetry_Int_Tables_number       1
_symmetry_cell_setting            triclinic
loop_
_symmetry_equiv_pos_as_xyz
  x,y,z
_cell_length_a                    25.8607
_cell_length_b                    30.1968
_cell_length_c                    28.5230
_cell_angle_alpha                 89.9195
_cell_angle_beta                  99.2445
_cell_angle_gamma                 92.1517
loop_
_atom_site_label
_atom_site_type_symbol
_atom_site_fract_x
_atom_site_fract_y
_atom_site_fract_z
_atom_site_U_iso_or_equiv
_atom_site_adp_type
_atom_site_occupancy
C1     C     0.16862   0.16392   0.25034   0.00000  Uiso   1.00
C2     C     0.14661   0.21229   0.44356   0.00000  Uiso   1.00
C3     C     0.16689   0.24850   0.02671   0.00000  Uiso   1.00
C4     C     0.16697   0.24886   0.47315   0.00000  Uiso   1.00
C5     C     0.06704   0.25028   0.23752   0.00000  Uiso   1.00
C6     C     0.26635   0.25100   0.26256   0.00000  Uiso   1.00
C7     C     0.01191   0.25010   0.23117   0.00000  Uiso   1.00
C8     C     0.32159   0.25368   0.26919   0.00000  Uiso   1.00
C9     C     0.13528   0.04888   0.28298   0.00000  Uiso   1.00
C10    C     0.13253   0.45180   0.20721   0.00000  Uiso   1.00
C11    C     0.15194   0.09280   0.28888   0.00000  Uiso   1.00
C12    C     0.16301   0.33590   0.24957   0.00000  Uiso   1.00
C13    C     0.13626   0.40561   0.20657   0.00000  Uiso   1.00
C14    C     0.16846   0.11573   0.25065   0.00000  Uiso   1.00
C15    C     0.15498   0.38353   0.24926   0.00000  Uiso   1.00
C16    C     0.18288   0.09176   0.21274   0.00000  Uiso   1.00
C17    C     0.16474   0.40738   0.29240   0.00000  Uiso   1.00
C18    C     0.18202   0.04552   0.21534   0.00000  Uiso   1.00
C19    C     0.16840   0.45319   0.29185   0.00000  Uiso   1.00
C20    C     0.15462   0.02397   0.24825   0.00000  Uiso   1.00
C21    C     0.15187   0.47561   0.24920   0.00000  Uiso   1.00
C22    C     0.05878   0.01483   0.29616   0.00000  Uiso   1.00
C23    C     0.12202   0.23396   0.04610   0.00000  Uiso   1.00
C24    C     0.03182   0.49269   0.33383   0.00000  Uiso   1.00
C25    C     0.06042   0.47909   0.16146   0.00000  Uiso   1.00
C26    C     0.03992   0.49708   0.11248   0.00000  Uiso   1.00
C27    C     0.20913   0.10476   0.35650   0.00000  Uiso   1.00
C28    C     0.21571   0.11836   0.40842   0.00000  Uiso   1.00
C29    C     0.14472   0.38455   0.13119   0.00000  Uiso   1.00
C30    C     0.11597   0.36148   0.08668   0.00000  Uiso   1.00
C31    C     0.17130   0.10855   0.13406   0.00000  Uiso   1.00
C32    C     0.19757   0.12918   0.09493   0.00000  Uiso   1.00
C33    C     0.12219   0.38167   0.35205   0.00000  Uiso   1.00
C34    C     0.18786   0.28587   0.45046   0.00000  Uiso   1.00
C35    C     0.12662   0.40131   0.40169   0.00000  Uiso   1.00
C36    C     0.25942   0.01331   0.20959   0.00000  Uiso   1.00
C37    C     0.27171   0.46538   0.20127   0.00000  Uiso   1.00
C38    C     0.23739   0.47490   0.34872   0.00000  Uiso   1.00
C39    C     0.25017   0.48052   0.40239   0.00000  Uiso   1.00
C40    C     0.03596   0.22642   0.10567   0.00000  Uiso   1.00
C41    C     0.32915   0.19159   0.11710   0.00000  Uiso   1.00
C42    C     0.27331   0.30597   0.38575   0.00000  Uiso   1.00
C43    C     0.30674   0.33198   0.42616   0.00000  Uiso   1.00
C44    C     0.27316   0.32445   0.12459   0.00000  Uiso   1.00
C45    C     0.12364   0.23292   0.09625   0.00000  Uiso   1.00
C46    C     0.29597   0.35259   0.16771   0.00000  Uiso   1.00
C47    C     0.06139   0.17864   0.36897   0.00000  Uiso   1.00
C48    C     0.04593   0.12965   0.37158   0.00000  Uiso   1.00
C49    C     0.19259   0.28309   0.40192   0.00000  Uiso   1.00
C50    C     0.20915   0.26739   0.10823   0.00000  Uiso   1.00
C51    C     0.14056   0.21652   0.39350   0.00000  Uiso   1.00
C52    C     0.21217   0.26207   0.05914   0.00000  Uiso   1.00
H53    H     0.32407   0.24607   0.19543   0.00000  Uiso   1.00
H54    H     0.04731   0.47345   0.08471   0.00000  Uiso   1.00
H55    H     0.33041   0.00173   0.10898   0.00000  Uiso   1.00
H56    H     0.05988   0.02952   0.10726   0.00000  Uiso   1.00
H57    H     0.23772   0.12485   0.33918   0.00000  Uiso   1.00
H58    H     0.21897   0.06929   0.35545   0.00000  Uiso   1.00
H59    H     0.25368   0.10685   0.42746   0.00000  Uiso   1.00
H60    H     0.21617   0.15491   0.41143   0.00000  Uiso   1.00
H61    H     0.18344   0.10332   0.42526   0.00000  Uiso   1.00
H62    H     0.18186   0.36782   0.14295   0.00000  Uiso   1.00
H63    H     0.15413   0.41931   0.12176   0.00000  Uiso   1.00
H64    H     0.00927   0.25881   0.30504   0.00000  Uiso   1.00
H65    H     0.07930   0.37869   0.07338   0.00000  Uiso   1.00
H66    H     0.14120   0.36214   0.05869   0.00000  Uiso   1.00
H67    H     0.10586   0.32654   0.09466   0.00000  Uiso   1.00
H68    H     0.13423   0.12576   0.13546   0.00000  Uiso   1.00
H69    H     0.16162   0.07315   0.12441   0.00000  Uiso   1.00
H70    H     0.23542   0.11339   0.09363   0.00000  Uiso   1.00
H71    H     0.17169   0.12399   0.06029   0.00000  Uiso   1.00
H72    H     0.20487   0.16522   0.10149   0.00000  Uiso   1.00
H73    H     0.11174   0.34577   0.35392   0.00000  Uiso   1.00
H74    H     0.08877   0.39716   0.32880   0.00000  Uiso   1.00
H75    H     0.06016   0.48953   0.26836   0.00000  Uiso   1.00
H76    H     0.08962   0.39441   0.41592   0.00000  Uiso   1.00
H77    H     0.15945   0.38666   0.42567   0.00000  Uiso   1.00
H78    H     0.13403   0.43768   0.40073   0.00000  Uiso   1.00
H79    H     0.26550   0.01908   0.24882   0.00000  Uiso   1.00
H80    H     0.28794   0.03538   0.19460   0.00000  Uiso   1.00
H81    H     0.26914   0.45889   0.16264   0.00000  Uiso   1.00
H82    H     0.31167   0.45853   0.21970   0.00000  Uiso   1.00
H83    H     0.24367   0.44261   0.21577   0.00000  Uiso   1.00
H84    H     0.25581   0.00307   0.33167   0.00000  Uiso   1.00
H85    H     0.25454   0.44333   0.33948   0.00000  Uiso   1.00
H86    H     0.03509   0.04287   0.28053   0.00000  Uiso   1.00
H87    H     0.23424   0.45147   0.42010   0.00000  Uiso   1.00
H88    H     0.29332   0.48294   0.41364   0.00000  Uiso   1.00
H89    H     0.23284   0.01100   0.41377   0.00000  Uiso   1.00
H90    H     0.07166   0.23623   0.48837   0.00000  Uiso   1.00
H91    H     0.18602   0.32790   0.00148   0.00000  Uiso   1.00
H92    H     0.02387   0.23652   0.06845   0.00000  Uiso   1.00
H93    H     0.03424   0.25659   0.12729   0.00000  Uiso   1.00
H94    H     0.00718   0.17908   0.15380   0.00000  Uiso   1.00
H95    H     0.29002   0.20595   0.11401   0.00000  Uiso   1.00
H96    H     0.32687   0.16333   0.09189   0.00000  Uiso   1.00
H97    H     0.01883   0.01810   0.35706   0.00000  Uiso   1.00
H98    H     0.28683   0.31645   0.35226   0.00000  Uiso   1.00
H99    H     0.28084   0.26987   0.39002   0.00000  Uiso   1.00
H100   H     0.30007   0.31855   0.46099   0.00000  Uiso   1.00
H101   H     0.01555   0.32898   0.42364   0.00000  Uiso   1.00
H102   H     0.29719   0.36757   0.42392   0.00000  Uiso   1.00
H103   H     0.24390   0.34404   0.10108   0.00000  Uiso   1.00
H104   H     0.30603   0.31750   0.10535   0.00000  Uiso   1.00
H105   H     0.32913   0.33574   0.18916   0.00000  Uiso   1.00
H106   H     0.31076   0.38492   0.15577   0.00000  Uiso   1.00
H107   H     0.26565   0.35837   0.19027   0.00000  Uiso   1.00
H108   H     0.33126   0.47226   0.31604   0.00000  Uiso   1.00
H109   H     0.03768   0.19227   0.33680   0.00000  Uiso   1.00
H110   H     0.05042   0.19599   0.40026   0.00000  Uiso   1.00
H111   H     0.07046   0.11400   0.40221   0.00000  Uiso   1.00
H112   H     0.00411   0.12579   0.37596   0.00000  Uiso   1.00
H113   H     0.05127   0.11252   0.33838   0.00000  Uiso   1.00
H114   H     0.26099   0.25102   0.01548   0.00000  Uiso   1.00
H115   H     0.15318   0.16894   0.49401   0.00000  Uiso   1.00
H116   H     0.05882   0.47044   0.35585   0.00000  Uiso   1.00
H117   H     0.05194   0.00333   0.18822   0.00000  Uiso   1.00
H118   H     0.03938   0.44685   0.16561   0.00000  Uiso   1.00
N119   N     0.16667   0.24999   0.12623   0.00000  Uiso   1.00
N120   N     0.16667   0.25001   0.37377   0.00000  Uiso   1.00
O121   O     0.16667   0.18454   0.28974   0.00000  Uiso   1.00
O122   O     0.11482   0.47393   0.16549   0.00000  Uiso   1.00
O123   O     0.15712   0.11134   0.33373   0.00000  Uiso   1.00
O124   O     0.11283   0.38167   0.16691   0.00000  Uiso   1.00
O125   O     0.20558   0.11320   0.17779   0.00000  Uiso   1.00
O126   O     0.17132   0.38652   0.33601   0.00000  Uiso   1.00
O127   O     0.20826   0.02151   0.18585   0.00000  Uiso   1.00
O128   O     0.18269   0.47567   0.33449   0.00000  Uiso   1.00
O129   O     0.07757   0.21757   0.01719   0.00000  Uiso   1.00
O130   O     0.20485   0.32483   0.47419   0.00000  Uiso   1.00
O131   O     0.08620   0.20816   0.11563   0.00000  Uiso   1.00
O132   O     0.16666   0.31547   0.21026   0.00000  Uiso   1.00
O133   O     0.21983   0.31636   0.38194   0.00000  Uiso   1.00
O134   O     0.25162   0.28425   0.14005   0.00000  Uiso   1.00
O135   O     0.11505   0.18333   0.36425   0.00000  Uiso   1.00
O136   O     0.26031   0.26862   0.04461   0.00000  Uiso   1.00
O137   O     0.13316   0.17184   0.46165   0.00000  Uiso   1.00
O138   O     0.16667   0.18453   0.21026   0.00000  Uiso   1.00
O139   O     0.16666   0.31547   0.28974   0.00000  Uiso   1.00
O140   O     0.09058   0.25000   0.28044   0.00000  Uiso   1.00
O141   O     0.24275   0.25000   0.21956   0.00000  Uiso   1.00
O142   O     0.09058   0.24999   0.20096   0.00000  Uiso   1.00
O143   O     0.24275   0.25001   0.29904   0.00000  Uiso   1.00
O144   O     0.10938   0.02987   0.31724   0.00000  Uiso   1.00
Zn145  Zn    0.16667   0.25001   0.30307   0.00000  Uiso   1.00
Zn146  Zn    0.16667   0.25000   0.19693   0.00000  Uiso   1.00
C147   C     0.50195   0.16392   0.25034   0.00000  Uiso   1.00
C148   C     0.47994   0.21229   0.44356   0.00000  Uiso   1.00
C149   C     0.50022   0.24850   0.02671   0.00000  Uiso   1.00
C150   C     0.50031   0.24886   0.47315   0.00000  Uiso   1.00
C151   C     0.40037   0.25028   0.23752   0.00000  Uiso   1.00
C152   C     0.59968   0.25100   0.26256   0.00000  Uiso   1.00
C153   C     0.34524   0.25010   0.23117   0.00000  Uiso   1.00
C154   C     0.65492   0.25368   0.26919   0.00000  Uiso   1.00
C155   C     0.46861   0.04888   0.28298   0.00000  Uiso   1.00
C156   C     0.46586   0.45180   0.20721   0.00000  Uiso   1.00
C157   C     0.48527   0.09280   0.28888   0.00000  Uiso   1.00
C158   C     0.49635   0.33590   0.24957   0.00000  Uiso   1.00
C159   C     0.46959   0.40561   0.20657   0.00000  Uiso   1.00
C160   C     0.50179   0.11573   0.25065   0.00000  Uiso   1.00
C161   C     0.48831   0.38353   0.24926   0.00000  Uiso   1.00
C162   C     0.51621   0.09176   0.21274   0.00000  Uiso   1.00
C163   C     0.49807   0.40738   0.29240   0.00000  Uiso   1.00
C164   C     0.51536   0.04552   0.21534   0.00000  Uiso   1.00
C165   C     0.50174   0.45319   0.29185   0.00000  Uiso   1.00
C166   C     0.48795   0.02397   0.24825   0.00000  Uiso   1.00
C167   C     0.48520   0.47561   0.24920   0.00000  Uiso   1.00
C168   C     0.39211   0.01483   0.29616   0.00000  Uiso   1.00
C169   C     0.45535   0.23396   0.04610   0.00000  Uiso   1.00
C170   C     0.36516   0.49269   0.33383   0.00000  Uiso   1.00
C171   C     0.39375   0.47909   0.16146   0.00000  Uiso   1.00
C172   C     0.37325   0.49708   0.11248   0.00000  Uiso   1.00
C173   C     0.54247   0.10476   0.35650   0.00000  Uiso   1.00
C174   C     0.54904   0.11836   0.40842   0.00000  Uiso   1.00
C175   C     0.47805   0.38455   0.13119   0.00000  Uiso   1.00
C176   C     0.44930   0.36148   0.08668   0.00000  Uiso   1.00
C177   C     0.50463   0.10855   0.13406   0.00000  Uiso   1.00
C178   C     0.53090   0.12918   0.09493   0.00000  Uiso   1.00
C179   C     0.45553   0.38167   0.35205   0.00000  Uiso   1.00
C180   C     0.52120   0.28587   0.45046   0.00000  Uiso   1.00
C181   C     0.45995   0.40131   0.40169   0.00000  Uiso   1.00
C182   C     0.59275   0.01331   0.20959   0.00000  Uiso   1.00
C183   C     0.60504   0.46538   0.20127   0.00000  Uiso   1.00
C184   C     0.57072   0.47490   0.34872   0.00000  Uiso   1.00
C185   C     0.58350   0.48052   0.40239   0.00000  Uiso   1.00
C186   C     0.36929   0.22642   0.10567   0.00000  Uiso   1.00
C187   C     0.66248   0.19159   0.11710   0.00000  Uiso   1.00
C188   C     0.60664   0.30597   0.38575   0.00000  Uiso   1.00
C189   C     0.64008   0.33198   0.42616   0.00000  Uiso   1.00
C190   C     0.60649   0.32445   0.12459   0.00000  Uiso   1.00
C191   C     0.45697   0.23292   0.09625   0.00000  Uiso   1.00
C192   C     0.62930   0.35259   0.16771   0.00000  Uiso   1.00
C193   C     0.39472   0.17864   0.36897   0.00000  Uiso   1.00
C194   C     0.37927   0.12965   0.37158   0.00000  Uiso   1.00
C195   C     0.52593   0.28309   0.40192   0.00000  Uiso   1.00
C196   C     0.54249   0.26739   0.10823   0.00000  Uiso   1.00
C197   C     0.47389   0.21652   0.39350   0.00000  Uiso   1.00
C198   C     0.54551   0.26207   0.05914   0.00000  Uiso   1.00
H199   H     0.65741   0.24607   0.19543   0.00000  Uiso   1.00
H200   H     0.38064   0.47345   0.08471   0.00000  Uiso   1.00
H201   H     0.66374   0.00173   0.10898   0.00000  Uiso   1.00
H202   H     0.39321   0.02952   0.10726   0.00000  Uiso   1.00
H203   H     0.57105   0.12485   0.33918   0.00000  Uiso   1.00
H204   H     0.55231   0.06929   0.35545   0.00000  Uiso   1.00
H205   H     0.58701   0.10685   0.42746   0.00000  Uiso   1.00
H206   H     0.54950   0.15491   0.41143   0.00000  Uiso   1.00
H207   H     0.51677   0.10332   0.42526   0.00000  Uiso   1.00
H208   H     0.51520   0.36782   0.14295   0.00000  Uiso   1.00
H209   H     0.48746   0.41931   0.12176   0.00000  Uiso   1.00
H210   H     0.34260   0.25881   0.30504   0.00000  Uiso   1.00
H211   H     0.41264   0.37869   0.07338   0.00000  Uiso   1.00
H212   H     0.47454   0.36214   0.05869   0.00000  Uiso   1.00
H213   H     0.43920   0.32654   0.09466   0.00000  Uiso   1.00
H214   H     0.46757   0.12576   0.13546   0.00000  Uiso   1.00
H215   H     0.49495   0.07315   0.12441   0.00000  Uiso   1.00
H216   H     0.56875   0.11339   0.09363   0.00000  Uiso   1.00
H217   H     0.50503   0.12399   0.06029   0.00000  Uiso   1.00
H218   H     0.53820   0.16522   0.10149   0.00000  Uiso   1.00
H219   H     0.44507   0.34577   0.35392   0.00000  Uiso   1.00
H220   H     0.42210   0.39716   0.32880   0.00000  Uiso   1.00
H221   H     0.39350   0.48953   0.26836   0.00000  Uiso   1.00
H222   H     0.42296   0.39441   0.41592   0.00000  Uiso   1.00
H223   H     0.49278   0.38666   0.42567   0.00000  Uiso   1.00
H224   H     0.46736   0.43768   0.40073   0.00000  Uiso   1.00
H225   H     0.59883   0.01908   0.24882   0.00000  Uiso   1.00
H226   H     0.62127   0.03538   0.19460   0.00000  Uiso   1.00
H227   H     0.60248   0.45889   0.16264   0.00000  Uiso   1.00
H228   H     0.64500   0.45853   0.21970   0.00000  Uiso   1.00
H229   H     0.57701   0.44261   0.21577   0.00000  Uiso   1.00
H230   H     0.58914   0.00307   0.33167   0.00000  Uiso   1.00
H231   H     0.58788   0.44333   0.33948   0.00000  Uiso   1.00
H232   H     0.36842   0.04287   0.28053   0.00000  Uiso   1.00
H233   H     0.56757   0.45147   0.42010   0.00000  Uiso   1.00
H234   H     0.62665   0.48294   0.41364   0.00000  Uiso   1.00
H235   H     0.56618   0.01100   0.41377   0.00000  Uiso   1.00
H236   H     0.40499   0.23623   0.48837   0.00000  Uiso   1.00
H237   H     0.51936   0.32790   0.00148   0.00000  Uiso   1.00
H238   H     0.35720   0.23652   0.06845   0.00000  Uiso   1.00
H239   H     0.36757   0.25659   0.12729   0.00000  Uiso   1.00
H240   H     0.34051   0.17908   0.15380   0.00000  Uiso   1.00
H241   H     0.62336   0.20595   0.11401   0.00000  Uiso   1.00
H242   H     0.66020   0.16333   0.09189   0.00000  Uiso   1.00
H243   H     0.35216   0.01810   0.35706   0.00000  Uiso   1.00
H244   H     0.62017   0.31645   0.35226   0.00000  Uiso   1.00
H245   H     0.61417   0.26987   0.39002   0.00000  Uiso   1.00
H246   H     0.63340   0.31855   0.46099   0.00000  Uiso   1.00
H247   H     0.34889   0.32898   0.42364   0.00000  Uiso   1.00
H248   H     0.63052   0.36757   0.42392   0.00000  Uiso   1.00
H249   H     0.57723   0.34404   0.10108   0.00000  Uiso   1.00
H250   H     0.63937   0.31750   0.10535   0.00000  Uiso   1.00
H251   H     0.66246   0.33574   0.18916   0.00000  Uiso   1.00
H252   H     0.64410   0.38492   0.15577   0.00000  Uiso   1.00
H253   H     0.59899   0.35837   0.19027   0.00000  Uiso   1.00
H254   H     0.66460   0.47226   0.31604   0.00000  Uiso   1.00
H255   H     0.37102   0.19227   0.33680   0.00000  Uiso   1.00
H256   H     0.38375   0.19599   0.40026   0.00000  Uiso   1.00
H257   H     0.40379   0.11400   0.40221   0.00000  Uiso   1.00
H258   H     0.33745   0.12579   0.37596   0.00000  Uiso   1.00
H259   H     0.38460   0.11252   0.33838   0.00000  Uiso   1.00
H260   H     0.59433   0.25102   0.01548   0.00000  Uiso   1.00
H261   H     0.48651   0.16894   0.49401   0.00000  Uiso   1.00
H262   H     0.39215   0.47044   0.35585   0.00000  Uiso   1.00
H263   H     0.38528   0.00333   0.18822   0.00000  Uiso   1.00
H264   H     0.37271   0.44685   0.16561   0.00000  Uiso   1.00
N265   N     0.50000   0.24999   0.12623   0.00000  Uiso   1.00
N266   N     0.50000   0.25001   0.37377   0.00000  Uiso   1.00
O267   O     0.50000   0.18454   0.28974   0.00000  Uiso   1.00
O268   O     0.44816   0.47393   0.16549   0.00000  Uiso   1.00
O269   O     0.49045   0.11134   0.33373   0.00000  Uiso   1.00
O270   O     0.44616   0.38167   0.16691   0.00000  Uiso   1.00
O271   O     0.53891   0.11320   0.17779   0.00000  Uiso   1.00
O272   O     0.50465   0.38652   0.33601   0.00000  Uiso   1.00
O273   O     0.54160   0.02151   0.18585   0.00000  Uiso   1.00
O274   O     0.51603   0.47567   0.33449   0.00000  Uiso   1.00
O275   O     0.41090   0.21757   0.01719   0.00000  Uiso   1.00
O276   O     0.53819   0.32483   0.47419   0.00000  Uiso   1.00
O277   O     0.41953   0.20816   0.11563   0.00000  Uiso   1.00
O278   O     0.50000   0.31547   0.21026   0.00000  Uiso   1.00
O279   O     0.55316   0.31636   0.38194   0.00000  Uiso   1.00
O280   O     0.58495   0.28425   0.14005   0.00000  Uiso   1.00
O281   O     0.44839   0.18333   0.36425   0.00000  Uiso   1.00
O282   O     0.59364   0.26862   0.04461   0.00000  Uiso   1.00
O283   O     0.46649   0.17184   0.46165   0.00000  Uiso   1.00
O284   O     0.50000   0.18453   0.21026   0.00000  Uiso   1.00
O285   O     0.50000   0.31547   0.28974   0.00000  Uiso   1.00
O286   O     0.42392   0.25000   0.28044   0.00000  Uiso   1.00
O287   O     0.57608   0.25000   0.21956   0.00000  Uiso   1.00
O288   O     0.42392   0.24999   0.20096   0.00000  Uiso   1.00
O289   O     0.57608   0.25001   0.29904   0.00000  Uiso   1.00
O290   O     0.44271   0.02987   0.31724   0.00000  Uiso   1.00
Zn291  Zn    0.50000   0.25001   0.30307   0.00000  Uiso   1.00
Zn292  Zn    0.50000   0.25000   0.19693   0.00000  Uiso   1.00
C293   C     0.83528   0.16392   0.25034   0.00000  Uiso   1.00
C294   C     0.81327   0.21229   0.44356   0.00000  Uiso   1.00
C295   C     0.83356   0.24850   0.02671   0.00000  Uiso   1.00
C296   C     0.83364   0.24886   0.47315   0.00000  Uiso   1.00
C297   C     0.73371   0.25028   0.23752   0.00000  Uiso   1.00
C298   C     0.93302   0.25100   0.26256   0.00000  Uiso   1.00
C299   C     0.67858   0.25010   0.23117   0.00000  Uiso   1.00
C300   C     0.98825   0.25368   0.26919   0.00000  Uiso   1.00
C301   C     0.80195   0.04888   0.28298   0.00000  Uiso   1.00
C302   C     0.79919   0.45180   0.20721   0.00000  Uiso   1.00
C303   C     0.81861   0.09280   0.28888   0.00000  Uiso   1.00
C304   C     0.82968   0.33590   0.24957   0.00000  Uiso   1.00
C305   C     0.80292   0.40561   0.20657   0.00000  Uiso   1.00
C306   C     0.83512   0.11573   0.25065   0.00000  Uiso   1.00
C307   C     0.82165   0.38353   0.24926   0.00000  Uiso   1.00
C308   C     0.84955   0.09176   0.21274   0.00000  Uiso   1.00
C309   C     0.83140   0.40738   0.29240   0.00000  Uiso   1.00
C310   C     0.84869   0.04552   0.21534   0.00000  Uiso   1.00
C311   C     0.83507   0.45319   0.29185   0.00000  Uiso   1.00
C312   C     0.82128   0.02397   0.24825   0.00000  Uiso   1.00
C313   C     0.81853   0.47561   0.24920   0.00000  Uiso   1.00
C314   C     0.72545   0.01483   0.29616   0.00000  Uiso   1.00
C315   C     0.78868   0.23396   0.04610   0.00000  Uiso   1.00
C316   C     0.69849   0.49269   0.33383   0.00000  Uiso   1.00
C317   C     0.72708   0.47909   0.16146   0.00000  Uiso   1.00
C318   C     0.70658   0.49708   0.11248   0.00000  Uiso   1.00
C319   C     0.87580   0.10476   0.35650   0.00000  Uiso   1.00
C320   C     0.88238   0.11836   0.40842   0.00000  Uiso   1.00
C321   C     0.81138   0.38455   0.13119   0.00000  Uiso   1.00
C322   C     0.78263   0.36148   0.08668   0.00000  Uiso   1.00
C323   C     0.83797   0.10855   0.13406   0.00000  Uiso   1.00
C324   C     0.86424   0.12918   0.09493   0.00000  Uiso   1.00
C325   C     0.78886   0.38167   0.35205   0.00000  Uiso   1.00
C326   C     0.85453   0.28587   0.45046   0.00000  Uiso   1.00
C327   C     0.79328   0.40131   0.40169   0.00000  Uiso   1.00
C328   C     0.92609   0.01331   0.20959   0.00000  Uiso   1.00
C329   C     0.93837   0.46538   0.20127   0.00000  Uiso   1.00
C330   C     0.90406   0.47490   0.34872   0.00000  Uiso   1.00
C331   C     0.91684   0.48052   0.40239   0.00000  Uiso   1.00
C332   C     0.70263   0.22642   0.10567   0.00000  Uiso   1.00
C333   C     0.99581   0.19159   0.11710   0.00000  Uiso   1.00
C334   C     0.93998   0.30597   0.38575   0.00000  Uiso   1.00
C335   C     0.97341   0.33198   0.42616   0.00000  Uiso   1.00
C336   C     0.93982   0.32445   0.12459   0.00000  Uiso   1.00
C337   C     0.79030   0.23292   0.09625   0.00000  Uiso   1.00
C338   C     0.96264   0.35259   0.16771   0.00000  Uiso   1.00
C339   C     0.72806   0.17864   0.36897   0.00000  Uiso   1.00
C340   C     0.71260   0.12965   0.37158   0.00000  Uiso   1.00
C341   C     0.85926   0.28309   0.40192   0.00000  Uiso   1.00
C342   C     0.87582   0.26739   0.10823   0.00000  Uiso   1.00
C343   C     0.80723   0.21652   0.39350   0.00000  Uiso   1.00
C344   C     0.87884   0.26207   0.05914   0.00000  Uiso   1.00
H345   H     0.99074   0.24607   0.19543   0.00000  Uiso   1.00
H346   H     0.71398   0.47345   0.08471   0.00000  Uiso   1.00
H347   H     0.99707   0.00173   0.10898   0.00000  Uiso   1.00
H348   H     0.72654   0.02952   0.10726   0.00000  Uiso   1.00
H349   H     0.90438   0.12485   0.33918   0.00000  Uiso   1.00
H350   H     0.88564   0.06929   0.35545   0.00000  Uiso   1.00
H351   H     0.92034   0.10685   0.42746   0.00000  Uiso   1.00
H352   H     0.88283   0.15491   0.41143   0.00000  Uiso   1.00
H353   H     0.85010   0.10332   0.42526   0.00000  Uiso   1.00
H354   H     0.84853   0.36782   0.14295   0.00000  Uiso   1.00
H355   H     0.82080   0.41931   0.12176   0.00000  Uiso   1.00
H356   H     0.67593   0.25881   0.30504   0.00000  Uiso   1.00
H357   H     0.74597   0.37869   0.07338   0.00000  Uiso   1.00
H358   H     0.80787   0.36214   0.05869   0.00000  Uiso   1.00
H359   H     0.77253   0.32654   0.09466   0.00000  Uiso   1.00
H360   H     0.80090   0.12576   0.13546   0.00000  Uiso   1.00
H361   H     0.82829   0.07315   0.12441   0.00000  Uiso   1.00
H362   H     0.90209   0.11339   0.09363   0.00000  Uiso   1.00
H363   H     0.83836   0.12399   0.06029   0.00000  Uiso   1.00
H364   H     0.87153   0.16522   0.10149   0.00000  Uiso   1.00
H365   H     0.77841   0.34577   0.35392   0.00000  Uiso   1.00
H366   H     0.75544   0.39716   0.32880   0.00000  Uiso   1.00
H367   H     0.72683   0.48953   0.26836   0.00000  Uiso   1.00
H368   H     0.75629   0.39441   0.41592   0.00000  Uiso   1.00
H369   H     0.82611   0.38666   0.42567   0.00000  Uiso   1.00
H370   H     0.80069   0.43768   0.40073   0.00000  Uiso   1.00
H371   H     0.93217   0.01908   0.24882   0.00000  Uiso   1.00
H372   H     0.95461   0.03538   0.19460   0.00000  Uiso   1.00
H373   H     0.93581   0.45889   0.16264   0.00000  Uiso   1.00
H374   H     0.97834   0.45853   0.21970   0.00000  Uiso   1.00
H375   H     0.91034   0.44261   0.21577   0.00000  Uiso   1.00
H376   H     0.92248   0.00307   0.33167   0.00000  Uiso   1.00
H377   H     0.92121   0.44333   0.33948   0.00000  Uiso   1.00
H378   H     0.70176   0.04287   0.28053   0.00000  Uiso   1.00
H379   H     0.90091   0.45147   0.42010   0.00000  Uiso   1.00
H380   H     0.95999   0.48294   0.41364   0.00000  Uiso   1.00
H381   H     0.89951   0.01100   0.41377   0.00000  Uiso   1.00
H382   H     0.73833   0.23623   0.48837   0.00000  Uiso   1.00
H383   H     0.85269   0.32790   0.00148   0.00000  Uiso   1.00
H384   H     0.69054   0.23652   0.06845   0.00000  Uiso   1.00
H385   H     0.70091   0.25659   0.12729   0.00000  Uiso   1.00
H386   H     0.67384   0.17908   0.15380   0.00000  Uiso   1.00
H387   H     0.95669   0.20595   0.11401   0.00000  Uiso   1.00
H388   H     0.99353   0.16333   0.09189   0.00000  Uiso   1.00
H389   H     0.68549   0.01810   0.35706   0.00000  Uiso   1.00
H390   H     0.95350   0.31645   0.35226   0.00000  Uiso   1.00
H391   H     0.94751   0.26987   0.39002   0.00000  Uiso   1.00
H392   H     0.96673   0.31855   0.46099   0.00000  Uiso   1.00
H393   H     0.68222   0.32898   0.42364   0.00000  Uiso   1.00
H394   H     0.96385   0.36757   0.42392   0.00000  Uiso   1.00
H395   H     0.91056   0.34404   0.10108   0.00000  Uiso   1.00
H396   H     0.97270   0.31750   0.10535   0.00000  Uiso   1.00
H397   H     0.99579   0.33574   0.18916   0.00000  Uiso   1.00
H398   H     0.97743   0.38492   0.15577   0.00000  Uiso   1.00
H399   H     0.93232   0.35837   0.19027   0.00000  Uiso   1.00
H400   H     0.99793   0.47226   0.31604   0.00000  Uiso   1.00
H401   H     0.70435   0.19227   0.33680   0.00000  Uiso   1.00
H402   H     0.71708   0.19599   0.40026   0.00000  Uiso   1.00
H403   H     0.73713   0.11400   0.40221   0.00000  Uiso   1.00
H404   H     0.67078   0.12579   0.37596   0.00000  Uiso   1.00
H405   H     0.71793   0.11252   0.33838   0.00000  Uiso   1.00
H406   H     0.92766   0.25102   0.01548   0.00000  Uiso   1.00
H407   H     0.81984   0.16894   0.49401   0.00000  Uiso   1.00
H408   H     0.72548   0.47044   0.35585   0.00000  Uiso   1.00
H409   H     0.71861   0.00333   0.18822   0.00000  Uiso   1.00
H410   H     0.70605   0.44685   0.16561   0.00000  Uiso   1.00
N411   N     0.83333   0.24999   0.12623   0.00000  Uiso   1.00
N412   N     0.83333   0.25001   0.37377   0.00000  Uiso   1.00
O413   O     0.83334   0.18454   0.28974   0.00000  Uiso   1.00
O414   O     0.78149   0.47393   0.16549   0.00000  Uiso   1.00
O415   O     0.82378   0.11134   0.33373   0.00000  Uiso   1.00
O416   O     0.77949   0.38167   0.16691   0.00000  Uiso   1.00
O417   O     0.87225   0.11320   0.17779   0.00000  Uiso   1.00
O418   O     0.83798   0.38652   0.33601   0.00000  Uiso   1.00
O419   O     0.87493   0.02151   0.18585   0.00000  Uiso   1.00
O420   O     0.84936   0.47567   0.33449   0.00000  Uiso   1.00
O421   O     0.74423   0.21757   0.01719   0.00000  Uiso   1.00
O422   O     0.87152   0.32483   0.47419   0.00000  Uiso   1.00
O423   O     0.75287   0.20816   0.11563   0.00000  Uiso   1.00
O424   O     0.83333   0.31547   0.21026   0.00000  Uiso   1.00
O425   O     0.88649   0.31636   0.38194   0.00000  Uiso   1.00
O426   O     0.91829   0.28425   0.14005   0.00000  Uiso   1.00
O427   O     0.78172   0.18333   0.36425   0.00000  Uiso   1.00
O428   O     0.92697   0.26862   0.04461   0.00000  Uiso   1.00
O429   O     0.79983   0.17184   0.46165   0.00000  Uiso   1.00
O430   O     0.83334   0.18453   0.21026   0.00000  Uiso   1.00
O431   O     0.83333   0.31547   0.28974   0.00000  Uiso   1.00
O432   O     0.75725   0.25000   0.28044   0.00000  Uiso   1.00
O433   O     0.90942   0.25000   0.21956   0.00000  Uiso   1.00
O434   O     0.75725   0.24999   0.20096   0.00000  Uiso   1.00
O435   O     0.90942   0.25001   0.29904   0.00000  Uiso   1.00
O436   O     0.77605   0.02987   0.31724   0.00000  Uiso   1.00
Zn437  Zn    0.83333   0.25001   0.30307   0.00000  Uiso   1.00
Zn438  Zn    0.83333   0.25000   0.19693   0.00000  Uiso   1.00
C439   C     0.16862   0.66392   0.25034   0.00000  Uiso   1.00
C440   C     0.14661   0.71229   0.44356   0.00000  Uiso   1.00
C441   C     0.16689   0.74850   0.02671   0.00000  Uiso   1.00
C442   C     0.16697   0.74886   0.47315   0.00000  Uiso   1.00
C443   C     0.06704   0.75028   0.23752   0.00000  Uiso   1.00
C444   C     0.26635   0.75100   0.26256   0.00000  Uiso   1.00
C445   C     0.01191   0.75010   0.23117   0.00000  Uiso   1.00
C446   C     0.32159   0.75368   0.26919   0.00000  Uiso   1.00
C447   C     0.13528   0.54888   0.28298   0.00000  Uiso   1.00
C448   C     0.13253   0.95180   0.20721   0.00000  Uiso   1.00
C449   C     0.15194   0.59280   0.28888   0.00000  Uiso   1.00
C450   C     0.16301   0.83590   0.24957   0.00000  Uiso   1.00
C451   C     0.13626   0.90561   0.20657   0.00000  Uiso   1.00
C452   C     0.16846   0.61573   0.25065   0.00000  Uiso   1.00
C453   C     0.15498   0.88353   0.24926   0.00000  Uiso   1.00
C454   C     0.18288   0.59176   0.21274   0.00000  Uiso   1.00
C455   C     0.16474   0.90738   0.29240   0.00000  Uiso   1.00
C456   C     0.18202   0.54552   0.21534   0.00000  Uiso   1.00
C457   C     0.16840   0.95319   0.29185   0.00000  Uiso   1.00
C458   C     0.15462   0.52397   0.24825   0.00000  Uiso   1.00
C459   C     0.15187   0.97561   0.24920   0.00000  Uiso   1.00
C460   C     0.05878   0.51483   0.29616   0.00000  Uiso   1.00
C461   C     0.12202   0.73396   0.04610   0.00000  Uiso   1.00
C462   C     0.03182   0.99269   0.33383   0.00000  Uiso   1.00
C463   C     0.06042   0.97909   0.16146   0.00000  Uiso   1.00
C464   C     0.03992   0.99708   0.11248   0.00000  Uiso   1.00
C465   C     0.20913   0.60476   0.35650   0.00000  Uiso   1.00
C466   C     0.21571   0.61836   0.40842   0.00000  Uiso   1.00
C467   C     0.14472   0.88455   0.13119   0.00000  Uiso   1.00
C468   C     0.11597   0.86148   0.08668   0.00000  Uiso   1.00
C469   C     0.17130   0.60855   0.13406   0.00000  Uiso   1.00
C470   C     0.19757   0.62918   0.09493   0.00000  Uiso   1.00
C471   C     0.12219   0.88167   0.35205   0.00000  Uiso   1.00
C472   C     0.18786   0.78587   0.45046   0.00000  Uiso   1.00
C473   C     0.12662   0.90131   0.40169   0.00000  Uiso   1.00
C474   C     0.25942   0.51331   0.20959   0.00000  Uiso   1.00
C475   C     0.27171   0.96538   0.20127   0.00000  Uiso   1.00
C476   C     0.23739   0.97490   0.34872   0.00000  Uiso   1.00
C477   C     0.25017   0.98052   0.40239   0.00000  Uiso   1.00
C478   C     0.03596   0.72642   0.10567   0.00000  Uiso   1.00
C479   C     0.32915   0.69159   0.11710   0.00000  Uiso   1.00
C480   C     0.27331   0.80597   0.38575   0.00000  Uiso   1.00
C481   C     0.30674   0.83198   0.42616   0.00000  Uiso   1.00
C482   C     0.27316   0.82445   0.12459   0.00000  Uiso   1.00
C483   C     0.12364   0.73292   0.09625   0.00000  Uiso   1.00
C484   C     0.29597   0.85259   0.16771   0.00000  Uiso   1.00
C485   C     0.06139   0.67864   0.36897   0.00000  Uiso   1.00
C486   C     0.04593   0.62965   0.37158   0.00000  Uiso   1.00
C487   C     0.19259   0.78309   0.40192   0.00000  Uiso   1.00
C488   C     0.20915   0.76739   0.10823   0.00000  Uiso   1.00
C489   C     0.14056   0.71652   0.39350   0.00000  Uiso   1.00
C490   C     0.21217   0.76207   0.05914   0.00000  Uiso   1.00
H491   H     0.32407   0.74607   0.19543   0.00000  Uiso   1.00
H492   H     0.04731   0.97345   0.08471   0.00000  Uiso   1.00
H493   H     0.33041   0.50173   0.10898   0.00000  Uiso   1.00
H494   H     0.05988   0.52952   0.10726   0.00000  Uiso   1.00
H495   H     0.23772   0.62485   0.33918   0.00000  Uiso   1.00
H496   H     0.21897   0.56929   0.35545   0.00000  Uiso   1.00
H497   H     0.25368   0.60685   0.42746   0.00000  Uiso   1.00
H498   H     0.21617   0.65491   0.41143   0.00000  Uiso   1.00
H499   H     0.18344   0.60332   0.42526   0.00000  Uiso   1.00
H500   H     0.18186   0.86782   0.14295   0.00000  Uiso   1.00
H501   H     0.15413   0.91931   0.12176   0.00000  Uiso   1.00
H502   H     0.00927   0.75881   0.30504   0.00000  Uiso   1.00
H503   H     0.07930   0.87869   0.07338   0.00000  Uiso   1.00
H504   H     0.14120   0.86214   0.05869   0.00000  Uiso   1.00
H505   H     0.10586   0.82654   0.09466   0.00000  Uiso   1.00
H506   H     0.13423   0.62576   0.13546   0.00000  Uiso   1.00
H507   H     0.16162   0.57315   0.12441   0.00000  Uiso   1.00
H508   H     0.23542   0.61339   0.09363   0.00000  Uiso   1.00
H509   H     0.17169   0.62399   0.06029   0.00000  Uiso   1.00
H510   H     0.20487   0.66522   0.10149   0.00000  Uiso   1.00
H511   H     0.11174   0.84577   0.35392   0.00000  Uiso   1.00
H512   H     0.08877   0.89716   0.32880   0.00000  Uiso   1.00
H513   H     0.06016   0.98953   0.26836   0.00000  Uiso   1.00
H514   H     0.08962   0.89441   0.41592   0.00000  Uiso   1.00
H515   H     0.15945   0.88666   0.42567   0.00000  Uiso   1.00
H516   H     0.13403   0.93768   0.40073   0.00000  Uiso   1.00
H517   H     0.26550   0.51908   0.24882   0.00000  Uiso   1.00
H518   H     0.28794   0.53538   0.19460   0.00000  Uiso   1.00
H519   H     0.26914   0.95889   0.16264   0.00000  Uiso   1.00
H520   H     0.31167   0.95853   0.21970   0.00000  Uiso   1.00
H521   H     0.24367   0.94261   0.21577   0.00000  Uiso   1.00
H522   H     0.25581   0.50307   0.33167   0.00000  Uiso   1.00
H523   H     0.25454   0.94333   0.33948   0.00000  Uiso   1.00
H524   H     0.03509   0.54287   0.28053   0.00000  Uiso   1.00
H525   H     0.23424   0.95147   0.42010   0.00000  Uiso   1.00
H526   H     0.29332   0.98294   0.41364   0.00000  Uiso   1.00
H527   H     0.23284   0.51100   0.41377   0.00000  Uiso   1.00
H528   H     0.07166   0.73623   0.48837   0.00000  Uiso   1.00
H529   H     0.18602   0.82790   0.00148   0.00000  Uiso   1.00
H530   H     0.02387   0.73652   0.06845   0.00000  Uiso   1.00
H531   H     0.03424   0.75659   0.12729   0.00000  Uiso   1.00
H532   H     0.00718   0.67908   0.15380   0.00000  Uiso   1.00
H533   H     0.29002   0.70595   0.11401   0.00000  Uiso   1.00
H534   H     0.32687   0.66333   0.09189   0.00000  Uiso   1.00
H535   H     0.01883   0.51810   0.35706   0.00000  Uiso   1.00
H536   H     0.28683   0.81645   0.35226   0.00000  Uiso   1.00
H537   H     0.28084   0.76987   0.39002   0.00000  Uiso   1.00
H538   H     0.30007   0.81855   0.46099   0.00000  Uiso   1.00
H539   H     0.01555   0.82898   0.42364   0.00000  Uiso   1.00
H540   H     0.29719   0.86757   0.42392   0.00000  Uiso   1.00
H541   H     0.24390   0.84404   0.10108   0.00000  Uiso   1.00
H542   H     0.30603   0.81750   0.10535   0.00000  Uiso   1.00
H543   H     0.32913   0.83574   0.18916   0.00000  Uiso   1.00
H544   H     0.31076   0.88492   0.15577   0.00000  Uiso   1.00
H545   H     0.26565   0.85837   0.19027   0.00000  Uiso   1.00
H546   H     0.33126   0.97226   0.31604   0.00000  Uiso   1.00
H547   H     0.03768   0.69227   0.33680   0.00000  Uiso   1.00
H548   H     0.05042   0.69599   0.40026   0.00000  Uiso   1.00
H549   H     0.07046   0.61400   0.40221   0.00000  Uiso   1.00
H550   H     0.00411   0.62579   0.37596   0.00000  Uiso   1.00
H551   H     0.05127   0.61252   0.33838   0.00000  Uiso   1.00
H552   H     0.26099   0.75102   0.01548   0.00000  Uiso   1.00
H553   H     0.15318   0.66894   0.49401   0.00000  Uiso   1.00
H554   H     0.05882   0.97044   0.35585   0.00000  Uiso   1.00
H555   H     0.05194   0.50333   0.18822   0.00000  Uiso   1.00
H556   H     0.03938   0.94685   0.16561   0.00000  Uiso   1.00
N557   N     0.16667   0.74999   0.12623   0.00000  Uiso   1.00
N558   N     0.16667   0.75001   0.37377   0.00000  Uiso   1.00
O559   O     0.16667   0.68454   0.28974   0.00000  Uiso   1.00
O560   O     0.11482   0.97393   0.16549   0.00000  Uiso   1.00
O561   O     0.15712   0.61134   0.33373   0.00000  Uiso   1.00
O562   O     0.11283   0.88167   0.16691   0.00000  Uiso   1.00
O563   O     0.20558   0.61320   0.17779   0.00000  Uiso   1.00
O564   O     0.17132   0.88652   0.33601   0.00000  Uiso   1.00
O565   O     0.20826   0.52151   0.18585   0.00000  Uiso   1.00
O566   O     0.18269   0.97567   0.33449   0.00000  Uiso   1.00
O567   O     0.07757   0.71757   0.01719   0.00000  Uiso   1.00
O568   O     0.20485   0.82483   0.47419   0.00000  Uiso   1.00
O569   O     0.08620   0.70816   0.11563   0.00000  Uiso   1.00
O570   O     0.16666   0.81547   0.21026   0.00000  Uiso   1.00
O571   O     0.21983   0.81636   0.38194   0.00000  Uiso   1.00
O572   O     0.25162   0.78425   0.14005   0.00000  Uiso   1.00
O573   O     0.11505   0.68333   0.36425   0.00000  Uiso   1.00
O574   O     0.26031   0.76862   0.04461   0.00000  Uiso   1.00
O575   O     0.13316   0.67184   0.46165   0.00000  Uiso   1.00
O576   O     0.16667   0.68453   0.21026   0.00000  Uiso   1.00
O577   O     0.16666   0.81547   0.28974   0.00000  Uiso   1.00
O578   O     0.09058   0.75000   0.28044   0.00000  Uiso   1.00
O579   O     0.24275   0.75000   0.21956   0.00000  Uiso   1.00
O580   O     0.09058   0.74999   0.20096   0.00000  Uiso   1.00
O581   O     0.24275   0.75001   0.29904   0.00000  Uiso   1.00
O582   O     0.10938   0.52987   0.31724   0.00000  Uiso   1.00
Zn583  Zn    0.16667   0.75001   0.30307   0.00000  Uiso   1.00
Zn584  Zn    0.16667   0.75000   0.19693   0.00000  Uiso   1.00
C585   C     0.50195   0.66392   0.25034   0.00000  Uiso   1.00
C586   C     0.47994   0.71229   0.44356   0.00000  Uiso   1.00
C587   C     0.50022   0.74850   0.02671   0.00000  Uiso   1.00
C588   C     0.50031   0.74886   0.47315   0.00000  Uiso   1.00
C589   C     0.40037   0.75028   0.23752   0.00000  Uiso   1.00
C590   C     0.59968   0.75100   0.26256   0.00000  Uiso   1.00
C591   C     0.34524   0.75010   0.23117   0.00000  Uiso   1.00
C592   C     0.65492   0.75368   0.26919   0.00000  Uiso   1.00
C593   C     0.46861   0.54888   0.28298   0.00000  Uiso   1.00
C594   C     0.46586   0.95180   0.20721   0.00000  Uiso   1.00
C595   C     0.48527   0.59280   0.28888   0.00000  Uiso   1.00
C596   C     0.49635   0.83590   0.24957   0.00000  Uiso   1.00
C597   C     0.46959   0.90561   0.20657   0.00000  Uiso   1.00
C598   C     0.50179   0.61573   0.25065   0.00000  Uiso   1.00
C599   C     0.48831   0.88353   0.24926   0.00000  Uiso   1.00
C600   C     0.51621   0.59176   0.21274   0.00000  Uiso   1.00
C601   C     0.49807   0.90738   0.29240   0.00000  Uiso   1.00
C602   C     0.51536   0.54552   0.21534   0.00000  Uiso   1.00
C603   C     0.50174   0.95319   0.29185   0.00000  Uiso   1.00
C604   C     0.48795   0.52397   0.24825   0.00000  Uiso   1.00
C605   C     0.48520   0.97561   0.24920   0.00000  Uiso   1.00
C606   C     0.39211   0.51483   0.29616   0.00000  Uiso   1.00
C607   C     0.45535   0.73396   0.04610   0.00000  Uiso   1.00
C608   C     0.36516   0.99269   0.33383   0.00000  Uiso   1.00
C609   C     0.39375   0.97909   0.16146   0.00000  Uiso   1.00
C610   C     0.37325   0.99708   0.11248   0.00000  Uiso   1.00
C611   C     0.54247   0.60476   0.35650   0.00000  Uiso   1.00
C612   C     0.54904   0.61836   0.40842   0.00000  Uiso   1.00
C613   C     0.47805   0.88455   0.13119   0.00000  Uiso   1.00
C614   C     0.44930   0.86148   0.08668   0.00000  Uiso   1.00
C615   C     0.50463   0.60855   0.13406   0.00000  Uiso   1.00
C616   C     0.53090   0.62918   0.09493   0.00000  Uiso   1.00
C617   C     0.45553   0.88167   0.35205   0.00000  Uiso   1.00
C618   C     0.52120   0.78587   0.45046   0.00000  Uiso   1.00
C619   C     0.45995   0.90131   0.40169   0.00000  Uiso   1.00
C620   C     0.59275   0.51331   0.20959   0.00000  Uiso   1.00
C621   C     0.60504   0.96538   0.20127   0.00000  Uiso   1.00
C622   C     0.57072   0.97490   0.34872   0.00000  Uiso   1.00
C623   C     0.58350   0.98052   0.40239   0.00000  Uiso   1.00
C624   C     0.36929   0.72642   0.10567   0.00000  Uiso   1.00
C625   C     0.66248   0.69159   0.11710   0.00000  Uiso   1.00
C626   C     0.60664   0.80597   0.38575   0.00000  Uiso   1.00
C627   C     0.64008   0.83198   0.42616   0.00000  Uiso   1.00
C628   C     0.60649   0.82445   0.12459   0.00000  Uiso   1.00
C629   C     0.45697   0.73292   0.09625   0.00000  Uiso   1.00
C630   C     0.62930   0.85259   0.16771   0.00000  Uiso   1.00
C631   C     0.39472   0.67864   0.36897   0.00000  Uiso   1.00
C632   C     0.37927   0.62965   0.37158   0.00000  Uiso   1.00
C633   C     0.52593   0.78309   0.40192   0.00000  Uiso   1.00
C634   C     0.54249   0.76739   0.10823   0.00000  Uiso   1.00
C635   C     0.47389   0.71652   0.39350   0.00000  Uiso   1.00
C636   C     0.54551   0.76207   0.05914   0.00000  Uiso   1.00
H637   H     0.65741   0.74607   0.19543   0.00000  Uiso   1.00
H638   H     0.38064   0.97345   0.08471   0.00000  Uiso   1.00
H639   H     0.66374   0.50173   0.10898   0.00000  Uiso   1.00
H640   H     0.39321   0.52952   0.10726   0.00000  Uiso   1.00
H641   H     0.57105   0.62485   0.33918   0.00000  Uiso   1.00
H642   H     0.55231   0.56929   0.35545   0.00000  Uiso   1.00
H643   H     0.58701   0.60685   0.42746   0.00000  Uiso   1.00
H644   H     0.54950   0.65491   0.41143   0.00000  Uiso   1.00
H645   H     0.51677   0.60332   0.42526   0.00000  Uiso   1.00
H646   H     0.51520   0.86782   0.14295   0.00000  Uiso   1.00
H647   H     0.48746   0.91931   0.12176   0.00000  Uiso   1.00
H648   H     0.34260   0.75881   0.30504   0.00000  Uiso   1.00
H649   H     0.41264   0.87869   0.07338   0.00000  Uiso   1.00
H650   H     0.47454   0.86214   0.05869   0.00000  Uiso   1.00
H651   H     0.43920   0.82654   0.09466   0.00000  Uiso   1.00
H652   H     0.46757   0.62576   0.13546   0.00000  Uiso   1.00
H653   H     0.49495   0.57315   0.12441   0.00000  Uiso   1.00
H654   H     0.56875   0.61339   0.09363   0.00000  Uiso   1.00
H655   H     0.50503   0.62399   0.06029   0.00000  Uiso   1.00
H656   H     0.53820   0.66522   0.10149   0.00000  Uiso   1.00
H657   H     0.44507   0.84577   0.35392   0.00000  Uiso   1.00
H658   H     0.42210   0.89716   0.32880   0.00000  Uiso   1.00
H659   H     0.39350   0.98953   0.26836   0.00000  Uiso   1.00
H660   H     0.42296   0.89441   0.41592   0.00000  Uiso   1.00
H661   H     0.49278   0.88666   0.42567   0.00000  Uiso   1.00
H662   H     0.46736   0.93768   0.40073   0.00000  Uiso   1.00
H663   H     0.59883   0.51908   0.24882   0.00000  Uiso   1.00
H664   H     0.62127   0.53538   0.19460   0.00000  Uiso   1.00
H665   H     0.60248   0.95889   0.16264   0.00000  Uiso   1.00
H666   H     0.64500   0.95853   0.21970   0.00000  Uiso   1.00
H667   H     0.57701   0.94261   0.21577   0.00000  Uiso   1.00
H668   H     0.58914   0.50307   0.33167   0.00000  Uiso   1.00
H669   H     0.58788   0.94333   0.33948   0.00000  Uiso   1.00
H670   H     0.36842   0.54287   0.28053   0.00000  Uiso   1.00
H671   H     0.56757   0.95147   0.42010   0.00000  Uiso   1.00
H672   H     0.62665   0.98294   0.41364   0.00000  Uiso   1.00
H673   H     0.56618   0.51100   0.41377   0.00000  Uiso   1.00
H674   H     0.40499   0.73623   0.48837   0.00000  Uiso   1.00
H675   H     0.51936   0.82790   0.00148   0.00000  Uiso   1.00
H676   H     0.35720   0.73652   0.06845   0.00000  Uiso   1.00
H677   H     0.36757   0.75659   0.12729   0.00000  Uiso   1.00
H678   H     0.34051   0.67908   0.15380   0.00000  Uiso   1.00
H679   H     0.62336   0.70595   0.11401   0.00000  Uiso   1.00
H680   H     0.66020   0.66333   0.09189   0.00000  Uiso   1.00
H681   H     0.35216   0.51810   0.35706   0.00000  Uiso   1.00
H682   H     0.62017   0.81645   0.35226   0.00000  Uiso   1.00
H683   H     0.61417   0.76987   0.39002   0.00000  Uiso   1.00
H684   H     0.63340   0.81855   0.46099   0.00000  Uiso   1.00
H685   H     0.34889   0.82898   0.42364   0.00000  Uiso   1.00
H686   H     0.63052   0.86757   0.42392   0.00000  Uiso   1.00
H687   H     0.57723   0.84404   0.10108   0.00000  Uiso   1.00
H688   H     0.63937   0.81750   0.10535   0.00000  Uiso   1.00
H689   H     0.66246   0.83574   0.18916   0.00000  Uiso   1.00
H690   H     0.64410   0.88492   0.15577   0.00000  Uiso   1.00
H691   H     0.59899   0.85837   0.19027   0.00000  Uiso   1.00
H692   H     0.66460   0.97226   0.31604   0.00000  Uiso   1.00
H693   H     0.37102   0.69227   0.33680   0.00000  Uiso   1.00
H694   H     0.38375   0.69599   0.40026   0.00000  Uiso   1.00
H695   H     0.40379   0.61400   0.40221   0.00000  Uiso   1.00
H696   H     0.33745   0.62579   0.37596   0.00000  Uiso   1.00
H697   H     0.38460   0.61252   0.33838   0.00000  Uiso   1.00
H698   H     0.59433   0.75102   0.01548   0.00000  Uiso   1.00
H699   H     0.48651   0.66894   0.49401   0.00000  Uiso   1.00
H700   H     0.39215   0.97044   0.35585   0.00000  Uiso   1.00
H701   H     0.38528   0.50333   0.18822   0.00000  Uiso   1.00
H702   H     0.37271   0.94685   0.16561   0.00000  Uiso   1.00
N703   N     0.50000   0.74999   0.12623   0.00000  Uiso   1.00
N704   N     0.50000   0.75001   0.37377   0.00000  Uiso   1.00
O705   O     0.50000   0.68454   0.28974   0.00000  Uiso   1.00
O706   O     0.44816   0.97393   0.16549   0.00000  Uiso   1.00
O707   O     0.49045   0.61134   0.33373   0.00000  Uiso   1.00
O708   O     0.44616   0.88167   0.16691   0.00000  Uiso   1.00
O709   O     0.53891   0.61320   0.17779   0.00000  Uiso   1.00
O710   O     0.50465   0.88652   0.33601   0.00000  Uiso   1.00
O711   O     0.54160   0.52151   0.18585   0.00000  Uiso   1.00
O712   O     0.51603   0.97567   0.33449   0.00000  Uiso   1.00
O713   O     0.41090   0.71757   0.01719   0.00000  Uiso   1.00
O714   O     0.53819   0.82483   0.47419   0.00000  Uiso   1.00
O715   O     0.41953   0.70816   0.11563   0.00000  Uiso   1.00
O716   O     0.50000   0.81547   0.21026   0.00000  Uiso   1.00
O717   O     0.55316   0.81636   0.38194   0.00000  Uiso   1.00
O718   O     0.58495   0.78425   0.14005   0.00000  Uiso   1.00
O719   O     0.44839   0.68333   0.36425   0.00000  Uiso   1.00
O720   O     0.59364   0.76862   0.04461   0.00000  Uiso   1.00
O721   O     0.46649   0.67184   0.46165   0.00000  Uiso   1.00
O722   O     0.50000   0.68453   0.21026   0.00000  Uiso   1.00
O723   O     0.50000   0.81547   0.28974   0.00000  Uiso   1.00
O724   O     0.42392   0.75000   0.28044   0.00000  Uiso   1.00
O725   O     0.57608   0.75000   0.21956   0.00000  Uiso   1.00
O726   O     0.42392   0.74999   0.20096   0.00000  Uiso   1.00
O727   O     0.57608   0.75001   0.29904   0.00000  Uiso   1.00
O728   O     0.44271   0.52987   0.31724   0.00000  Uiso   1.00
Zn729  Zn    0.50000   0.75001   0.30307   0.00000  Uiso   1.00
Zn730  Zn    0.50000   0.75000   0.19693   0.00000  Uiso   1.00
C731   C     0.83528   0.66392   0.25034   0.00000  Uiso   1.00
C732   C     0.81327   0.71229   0.44356   0.00000  Uiso   1.00
C733   C     0.83356   0.74850   0.02671   0.00000  Uiso   1.00
C734   C     0.83364   0.74886   0.47315   0.00000  Uiso   1.00
C735   C     0.73371   0.75028   0.23752   0.00000  Uiso   1.00
C736   C     0.93302   0.75100   0.26256   0.00000  Uiso   1.00
C737   C     0.67858   0.75010   0.23117   0.00000  Uiso   1.00
C738   C     0.98825   0.75368   0.26919   0.00000  Uiso   1.00
C739   C     0.80195   0.54888   0.28298   0.00000  Uiso   1.00
C740   C     0.79919   0.95180   0.20721   0.00000  Uiso   1.00
C741   C     0.81861   0.59280   0.28888   0.00000  Uiso   1.00
C742   C     0.82968   0.83590   0.24957   0.00000  Uiso   1.00
C743   C     0.80292   0.90561   0.20657   0.00000  Uiso   1.00
C744   C     0.83512   0.61573   0.25065   0.00000  Uiso   1.00
C745   C     0.82165   0.88353   0.24926   0.00000  Uiso   1.00
C746   C     0.84955   0.59176   0.21274   0.00000  Uiso   1.00
C747   C     0.83140   0.90738   0.29240   0.00000  Uiso   1.00
C748   C     0.84869   0.54552   0.21534   0.00000  Uiso   1.00
C749   C     0.83507   0.95319   0.29185   0.00000  Uiso   1.00
C750   C     0.82128   0.52397   0.24825   0.00000  Uiso   1.00
C751   C     0.81853   0.97561   0.24920   0.00000  Uiso   1.00
C752   C     0.72545   0.51483   0.29616   0.00000  Uiso   1.00
C753   C     0.78868   0.73396   0.04610   0.00000  Uiso   1.00
C754   C     0.69849   0.99269   0.33383   0.00000  Uiso   1.00
C755   C     0.72708   0.97909   0.16146   0.00000  Uiso   1.00
C756   C     0.70658   0.99708   0.11248   0.00000  Uiso   1.00
C757   C     0.87580   0.60476   0.35650   0.00000  Uiso   1.00
C758   C     0.88238   0.61836   0.40842   0.00000  Uiso   1.00
C759   C     0.81138   0.88455   0.13119   0.00000  Uiso   1.00
C760   C     0.78263   0.86148   0.08668   0.00000  Uiso   1.00
C761   C     0.83797   0.60855   0.13406   0.00000  Uiso   1.00
C762   C     0.86424   0.62918   0.09493   0.00000  Uiso   1.00
C763   C     0.78886   0.88167   0.35205   0.00000  Uiso   1.00
C764   C     0.85453   0.78587   0.45046   0.00000  Uiso   1.00
C765   C     0.79328   0.90131   0.40169   0.00000  Uiso   1.00
C766   C     0.92609   0.51331   0.20959   0.00000  Uiso   1.00
C767   C     0.93837   0.96538   0.20127   0.00000  Uiso   1.00
C768   C     0.90406   0.97490   0.34872   0.00000  Uiso   1.00
C769   C     0.91684   0.98052   0.40239   0.00000  Uiso   1.00
C770   C     0.70263   0.72642   0.10567   0.00000  Uiso   1.00
C771   C     0.99581   0.69159   0.11710   0.00000  Uiso   1.00
C772   C     0.93998   0.80597   0.38575   0.00000  Uiso   1.00
C773   C     0.97341   0.83198   0.42616   0.00000  Uiso   1.00
C774   C     0.93982   0.82445   0.12459   0.00000  Uiso   1.00
C775   C     0.79030   0.73292   0.09625   0.00000  Uiso   1.00
C776   C     0.96264   0.85259   0.16771   0.00000  Uiso   1.00
C777   C     0.72806   0.67864   0.36897   0.00000  Uiso   1.00
C778   C     0.71260   0.62965   0.37158   0.00000  Uiso   1.00
C779   C     0.85926   0.78309   0.40192   0.00000  Uiso   1.00
C780   C     0.87582   0.76739   0.10823   0.00000  Uiso   1.00
C781   C     0.80723   0.71652   0.39350   0.00000  Uiso   1.00
C782   C     0.87884   0.76207   0.05914   0.00000  Uiso   1.00
H783   H     0.99074   0.74607   0.19543   0.00000  Uiso   1.00
H784   H     0.71398   0.97345   0.08471   0.00000  Uiso   1.00
H785   H     0.99707   0.50173   0.10898   0.00000  Uiso   1.00
H786   H     0.72654   0.52952   0.10726   0.00000  Uiso   1.00
H787   H     0.90438   0.62485   0.33918   0.00000  Uiso   1.00
H788   H     0.88564   0.56929   0.35545   0.00000  Uiso   1.00
H789   H     0.92034   0.60685   0.42746   0.00000  Uiso   1.00
H790   H     0.88283   0.65491   0.41143   0.00000  Uiso   1.00
H791   H     0.85010   0.60332   0.42526   0.00000  Uiso   1.00
H792   H     0.84853   0.86782   0.14295   0.00000  Uiso   1.00
H793   H     0.82080   0.91931   0.12176   0.00000  Uiso   1.00
H794   H     0.67593   0.75881   0.30504   0.00000  Uiso   1.00
H795   H     0.74597   0.87869   0.07338   0.00000  Uiso   1.00
H796   H     0.80787   0.86214   0.05869   0.00000  Uiso   1.00
H797   H     0.77253   0.82654   0.09466   0.00000  Uiso   1.00
H798   H     0.80090   0.62576   0.13546   0.00000  Uiso   1.00
H799   H     0.82829   0.57315   0.12441   0.00000  Uiso   1.00
H800   H     0.90209   0.61339   0.09363   0.00000  Uiso   1.00
H801   H     0.83836   0.62399   0.06029   0.00000  Uiso   1.00
H802   H     0.87153   0.66522   0.10149   0.00000  Uiso   1.00
H803   H     0.77841   0.84577   0.35392   0.00000  Uiso   1.00
H804   H     0.75544   0.89716   0.32880   0.00000  Uiso   1.00
H805   H     0.72683   0.98953   0.26836   0.00000  Uiso   1.00
H806   H     0.75629   0.89441   0.41592   0.00000  Uiso   1.00
H807   H     0.82611   0.88666   0.42567   0.00000  Uiso   1.00
H808   H     0.80069   0.93768   0.40073   0.00000  Uiso   1.00
H809   H     0.93217   0.51908   0.24882   0.00000  Uiso   1.00
H810   H     0.95461   0.53538   0.19460   0.00000  Uiso   1.00
H811   H     0.93581   0.95889   0.16264   0.00000  Uiso   1.00
H812   H     0.97834   0.95853   0.21970   0.00000  Uiso   1.00
H813   H     0.91034   0.94261   0.21577   0.00000  Uiso   1.00
H814   H     0.92248   0.50307   0.33167   0.00000  Uiso   1.00
H815   H     0.92121   0.94333   0.33948   0.00000  Uiso   1.00
H816   H     0.70176   0.54287   0.28053   0.00000  Uiso   1.00
H817   H     0.90091   0.95147   0.42010   0.00000  Uiso   1.00
H818   H     0.95999   0.98294   0.41364   0.00000  Uiso   1.00
H819   H     0.89951   0.51100   0.41377   0.00000  Uiso   1.00
H820   H     0.73833   0.73623   0.48837   0.00000  Uiso   1.00
H821   H     0.85269   0.82790   0.00148   0.00000  Uiso   1.00
H822   H     0.69054   0.73652   0.06845   0.00000  Uiso   1.00
H823   H     0.70091   0.75659   0.12729   0.00000  Uiso   1.00
H824   H     0.67384   0.67908   0.15380   0.00000  Uiso   1.00
H825   H     0.95669   0.70595   0.11401   0.00000  Uiso   1.00
H826   H     0.99353   0.66333   0.09189   0.00000  Uiso   1.00
H827   H     0.68549   0.51810   0.35706   0.00000  Uiso   1.00
H828   H     0.95350   0.81645   0.35226   0.00000  Uiso   1.00
H829   H     0.94751   0.76987   0.39002   0.00000  Uiso   1.00
H830   H     0.96673   0.81855   0.46099   0.00000  Uiso   1.00
H831   H     0.68222   0.82898   0.42364   0.00000  Uiso   1.00
H832   H     0.96385   0.86757   0.42392   0.00000  Uiso   1.00
H833   H     0.91056   0.84404   0.10108   0.00000  Uiso   1.00
H834   H     0.97270   0.81750   0.10535   0.00000  Uiso   1.00
H835   H     0.99579   0.83574   0.18916   0.00000  Uiso   1.00
H836   H     0.97743   0.88492   0.15577   0.00000  Uiso   1.00
H837   H     0.93232   0.85837   0.19027   0.00000  Uiso   1.00
H838   H     0.99793   0.97226   0.31604   0.00000  Uiso   1.00
H839   H     0.70435   0.69227   0.33680   0.00000  Uiso   1.00
H840   H     0.71708   0.69599   0.40026   0.00000  Uiso   1.00
H841   H     0.73713   0.61400   0.40221   0.00000  Uiso   1.00
H842   H     0.67078   0.62579   0.37596   0.00000  Uiso   1.00
H843   H     0.71793   0.61252   0.33838   0.00000  Uiso   1.00
H844   H     0.92766   0.75102   0.01548   0.00000  Uiso   1.00
H845   H     0.81984   0.66894   0.49401   0.00000  Uiso   1.00
H846   H     0.72548   0.97044   0.35585   0.00000  Uiso   1.00
H847   H     0.71861   0.50333   0.18822   0.00000  Uiso   1.00
H848   H     0.70605   0.94685   0.16561   0.00000  Uiso   1.00
N849   N     0.83333   0.74999   0.12623   0.00000  Uiso   1.00
N850   N     0.83333   0.75001   0.37377   0.00000  Uiso   1.00
O851   O     0.83334   0.68454   0.28974   0.00000  Uiso   1.00
O852   O     0.78149   0.97393   0.16549   0.00000  Uiso   1.00
O853   O     0.82378   0.61134   0.33373   0.00000  Uiso   1.00
O854   O     0.77949   0.88167   0.16691   0.00000  Uiso   1.00
O855   O     0.87225   0.61320   0.17779   0.00000  Uiso   1.00
O856   O     0.83798   0.88652   0.33601   0.00000  Uiso   1.00
O857   O     0.87493   0.52151   0.18585   0.00000  Uiso   1.00
O858   O     0.84936   0.97567   0.33449   0.00000  Uiso   1.00
O859   O     0.74423   0.71757   0.01719   0.00000  Uiso   1.00
O860   O     0.87152   0.82483   0.47419   0.00000  Uiso   1.00
O861   O     0.75287   0.70816   0.11563   0.00000  Uiso   1.00
O862   O     0.83333   0.81547   0.21026   0.00000  Uiso   1.00
O863   O     0.88649   0.81636   0.38194   0.00000  Uiso   1.00
O864   O     0.91829   0.78425   0.14005   0.00000  Uiso   1.00
O865   O     0.78172   0.68333   0.36425   0.00000  Uiso   1.00
O866   O     0.92697   0.76862   0.04461   0.00000  Uiso   1.00
O867   O     0.79983   0.67184   0.46165   0.00000  Uiso   1.00
O868   O     0.83334   0.68453   0.21026   0.00000  Uiso   1.00
O869   O     0.83333   0.81547   0.28974   0.00000  Uiso   1.00
O870   O     0.75725   0.75000   0.28044   0.00000  Uiso   1.00
O871   O     0.90942   0.75000   0.21956   0.00000  Uiso   1.00
O872   O     0.75725   0.74999   0.20096   0.00000  Uiso   1.00
O873   O     0.90942   0.75001   0.29904   0.00000  Uiso   1.00
O874   O     0.77605   0.52987   0.31724   0.00000  Uiso   1.00
Zn875  Zn    0.83333   0.75001   0.30307   0.00000  Uiso   1.00
Zn876  Zn    0.83333   0.75000   0.19693   0.00000  Uiso   1.00
C877   C     0.16862   0.16392   0.75034   0.00000  Uiso   1.00
C878   C     0.14661   0.21229   0.94356   0.00000  Uiso   1.00
C879   C     0.16689   0.24850   0.52671   0.00000  Uiso   1.00
C880   C     0.16697   0.24886   0.97315   0.00000  Uiso   1.00
C881   C     0.06704   0.25028   0.73752   0.00000  Uiso   1.00
C882   C     0.26635   0.25100   0.76256   0.00000  Uiso   1.00
C883   C     0.01191   0.25010   0.73117   0.00000  Uiso   1.00
C884   C     0.32159   0.25368   0.76919   0.00000  Uiso   1.00
C885   C     0.13528   0.04888   0.78298   0.00000  Uiso   1.00
C886   C     0.13253   0.45180   0.70721   0.00000  Uiso   1.00
C887   C     0.15194   0.09280   0.78888   0.00000  Uiso   1.00
C888   C     0.16301   0.33590   0.74957   0.00000  Uiso   1.00
C889   C     0.13626   0.40561   0.70657   0.00000  Uiso   1.00
C890   C     0.16846   0.11573   0.75065   0.00000  Uiso   1.00
C891   C     0.15498   0.38353   0.74926   0.00000  Uiso   1.00
C892   C     0.18288   0.09176   0.71274   0.00000  Uiso   1.00
C893   C     0.16474   0.40738   0.79240   0.00000  Uiso   1.00
C894   C     0.18202   0.04552   0.71534   0.00000  Uiso   1.00
C895   C     0.16840   0.45319   0.79185   0.00000  Uiso   1.00
C896   C     0.15462   0.02397   0.74825   0.00000  Uiso   1.00
C897   C     0.15187   0.47561   0.74920   0.00000  Uiso   1.00
C898   C     0.05878   0.01483   0.79616   0.00000  Uiso   1.00
C899   C     0.12202   0.23396   0.54610   0.00000  Uiso   1.00
C900   C     0.03182   0.49269   0.83383   0.00000  Uiso   1.00
C901   C     0.06042   0.47909   0.66146   0.00000  Uiso   1.00
C902   C     0.03992   0.49708   0.61248   0.00000  Uiso   1.00
C903   C     0.20913   0.10476   0.85650   0.00000  Uiso   1.00
C904   C     0.21571   0.11836   0.90842   0.00000  Uiso   1.00
C905   C     0.14472   0.38455   0.63119   0.00000  Uiso   1.00
C906   C     0.11597   0.36148   0.58668   0.00000  Uiso   1.00
C907   C     0.17130   0.10855   0.63406   0.00000  Uiso   1.00
C908   C     0.19757   0.12918   0.59493   0.00000  Uiso   1.00
C909   C     0.12219   0.38167   0.85205   0.00000  Uiso   1.00
C910   C     0.18786   0.28587   0.95046   0.00000  Uiso   1.00
C911   C     0.12662   0.40131   0.90169   0.00000  Uiso   1.00
C912   C     0.25942   0.01331   0.70959   0.00000  Uiso   1.00
C913   C     0.27171   0.46538   0.70127   0.00000  Uiso   1.00
C914   C     0.23739   0.47490   0.84872   0.00000  Uiso   1.00
C915   C     0.25017   0.48052   0.90239   0.00000  Uiso   1.00
C916   C     0.03596   0.22642   0.60567   0.00000  Uiso   1.00
C917   C     0.32915   0.19159   0.61710   0.00000  Uiso   1.00
C918   C     0.27331   0.30597   0.88575   0.00000  Uiso   1.00
C919   C     0.30674   0.33198   0.92616   0.00000  Uiso   1.00
C920   C     0.27316   0.32445   0.62459   0.00000  Uiso   1.00
C921   C     0.12364   0.23292   0.59625   0.00000  Uiso   1.00
C922   C     0.29597   0.35259   0.66771   0.00000  Uiso   1.00
C923   C     0.06139   0.17864   0.86897   0.00000  Uiso   1.00
C924   C     0.04593   0.12965   0.87158   0.00000  Uiso   1.00
C925   C     0.19259   0.28309   0.90192   0.00000  Uiso   1.00
C926   C     0.20915   0.26739   0.60823   0.00000  Uiso   1.00
C927   C     0.14056   0.21652   0.89350   0.00000  Uiso   1.00
C928   C     0.21217   0.26207   0.55914   0.00000  Uiso   1.00
H929   H     0.32407   0.24607   0.69543   0.00000  Uiso   1.00
H930   H     0.04731   0.47345   0.58471   0.00000  Uiso   1.00
H931   H     0.33041   0.00173   0.60898   0.00000  Uiso   1.00
H932   H     0.05988   0.02952   0.60726   0.00000  Uiso   1.00
H933   H     0.23772   0.12485   0.83918   0.00000  Uiso   1.00
H934   H     0.21897   0.06929   0.85545   0.00000  Uiso   1.00
H935   H     0.25368   0.10685   0.92746   0.00000  Uiso   1.00
H936   H     0.21617   0.15491   0.91143   0.00000  Uiso   1.00
H937   H     0.18344   0.10332   0.92526   0.00000  Uiso   1.00
H938   H     0.18186   0.36782   0.64295   0.00000  Uiso   1.00
H939   H     0.15413   0.41931   0.62176   0.00000  Uiso   1.00
H940   H     0.00927   0.25881   0.80504   0.00000  Uiso   1.00
H941   H     0.07930   0.37869   0.57338   0.00000  Uiso   1.00
H942   H     0.14120   0.36214   0.55869   0.00000  Uiso   1.00
H943   H     0.10586   0.32654   0.59466   0.00000  Uiso   1.00
H944   H     0.13423   0.12576   0.63546   0.00000  Uiso   1.00
H945   H     0.16162   0.07315   0.62441   0.00000  Uiso   1.00
H946   H     0.23542   0.11339   0.59363   0.00000  Uiso   1.00
H947   H     0.17169   0.12399   0.56029   0.00000  Uiso   1.00
H948   H     0.20487   0.16522   0.60149   0.00000  Uiso   1.00
H949   H     0.11174   0.34577   0.85392   0.00000  Uiso   1.00
H950   H     0.08877   0.39716   0.82880   0.00000  Uiso   1.00
H951   H     0.06016   0.48953   0.76836   0.00000  Uiso   1.00
H952   H     0.08962   0.39441   0.91592   0.00000  Uiso   1.00
H953   H     0.15945   0.38666   0.92567   0.00000  Uiso   1.00
H954   H     0.13403   0.43768   0.90073   0.00000  Uiso   1.00
H955   H     0.26550   0.01908   0.74882   0.00000  Uiso   1.00
H956   H     0.28794   0.03538   0.69460   0.00000  Uiso   1.00
H957   H     0.26914   0.45889   0.66264   0.00000  Uiso   1.00
H958   H     0.31167   0.45853   0.71970   0.00000  Uiso   1.00
H959   H     0.24367   0.44261   0.71577   0.00000  Uiso   1.00
H960   H     0.25581   0.00307   0.83167   0.00000  Uiso   1.00
H961   H     0.25454   0.44333   0.83948   0.00000  Uiso   1.00
H962   H     0.03509   0.04287   0.78053   0.00000  Uiso   1.00
H963   H     0.23424   0.45147   0.92010   0.00000  Uiso   1.00
H964   H     0.29332   0.48294   0.91364   0.00000  Uiso   1.00
H965   H     0.23284   0.01100   0.91377   0.00000  Uiso   1.00
H966   H     0.07166   0.23623   0.98837   0.00000  Uiso   1.00
H967   H     0.18602   0.32790   0.50148   0.00000  Uiso   1.00
H968   H     0.02387   0.23652   0.56845   0.00000  Uiso   1.00
H969   H     0.03424   0.25659   0.62729   0.00000  Uiso   1.00
H970   H     0.00718   0.17908   0.65380   0.00000  Uiso   1.00
H971   H     0.29002   0.20595   0.61401   0.00000  Uiso   1.00
H972   H     0.32687   0.16333   0.59189   0.00000  Uiso   1.00
H973   H     0.01883   0.01810   0.85706   0.00000  Uiso   1.00
H974   H     0.28683   0.31645   0.85226   0.00000  Uiso   1.00
H975   H     0.28084   0.26987   0.89002   0.00000  Uiso   1.00
H976   H     0.30007   0.31855   0.96099   0.00000  Uiso   1.00
H977   H     0.01555   0.32898   0.92364   0.00000  Uiso   1.00
H978   H     0.29719   0.36757   0.92392   0.00000  Uiso   1.00
H979   H     0.24390   0.34404   0.60108   0.00000  Uiso   1.00
H980   H     0.30603   0.31750   0.60535   0.00000  Uiso   1.00
H981   H     0.32913   0.33574   0.68916   0.00000  Uiso   1.00
H982   H     0.31076   0.38492   0.65577   0.00000  Uiso   1.00
H983   H     0.26565   0.35837   0.69027   0.00000  Uiso   1.00
H984   H     0.33126   0.47226   0.81604   0.00000  Uiso   1.00
H985   H     0.03768   0.19227   0.83680   0.00000  Uiso   1.00
H986   H     0.05042   0.19599   0.90026   0.00000  Uiso   1.00
H987   H     0.07046   0.11400   0.90221   0.00000  Uiso   1.00
H988   H     0.00411   0.12579   0.87596   0.00000  Uiso   1.00
H989   H     0.05127   0.11252   0.83838   0.00000  Uiso   1.00
H990   H     0.26099   0.25102   0.51548   0.00000  Uiso   1.00
H991   H     0.15318   0.16894   0.99401   0.00000  Uiso   1.00
H992   H     0.05882   0.47044   0.85585   0.00000  Uiso   1.00
H993   H     0.05194   0.00333   0.68822   0.00000  Uiso   1.00
H994   H     0.03938   0.44685   0.66561   0.00000  Uiso   1.00
N995   N     0.16667   0.24999   0.62623   0.00000  Uiso   1.00
N996   N     0.16667   0.25001   0.87377   0.00000  Uiso   1.00
O997   O     0.16667   0.18454   0.78974   0.00000  Uiso   1.00
O998   O     0.11482   0.47393   0.66549   0.00000  Uiso   1.00
O999   O     0.15712   0.11134   0.83373   0.00000  Uiso   1.00
O1000  O     0.11283   0.38167   0.66691   0.00000  Uiso   1.00
O1001  O     0.20558   0.11320   0.67779   0.00000  Uiso   1.00
O1002  O     0.17132   0.38652   0.83601   0.00000  Uiso   1.00
O1003  O     0.20826   0.02151   0.68585   0.00000  Uiso   1.00
O1004  O     0.18269   0.47567   0.83449   0.00000  Uiso   1.00
O1005  O     0.07757   0.21757   0.51719   0.00000  Uiso   1.00
O1006  O     0.20485   0.32483   0.97419   0.00000  Uiso   1.00
O1007  O     0.08620   0.20816   0.61563   0.00000  Uiso   1.00
O1008  O     0.16666   0.31547   0.71026   0.00000  Uiso   1.00
O1009  O     0.21983   0.31636   0.88194   0.00000  Uiso   1.00
O1010  O     0.25162   0.28425   0.64005   0.00000  Uiso   1.00
O1011  O     0.11505   0.18333   0.86425   0.00000  Uiso   1.00
O1012  O     0.26031   0.26862   0.54461   0.00000  Uiso   1.00
O1013  O     0.13316   0.17184   0.96165   0.00000  Uiso   1.00
O1014  O     0.16667   0.18453   0.71026   0.00000  Uiso   1.00
O1015  O     0.16666   0.31547   0.78974   0.00000  Uiso   1.00
O1016  O     0.09058   0.25000   0.78044   0.00000  Uiso   1.00
O1017  O     0.24275   0.25000   0.71956   0.00000  Uiso   1.00
O1018  O     0.09058   0.24999   0.70096   0.00000  Uiso   1.00
O1019  O     0.24275   0.25001   0.79904   0.00000  Uiso   1.00
O1020  O     0.10938   0.02987   0.81724   0.00000  Uiso   1.00
Zn1021 Zn    0.16667   0.25001   0.80307   0.00000  Uiso   1.00
Zn1022 Zn    0.16667   0.25000   0.69693   0.00000  Uiso   1.00
C1023  C     0.50195   0.16392   0.75034   0.00000  Uiso   1.00
C1024  C     0.47994   0.21229   0.94356   0.00000  Uiso   1.00
C1025  C     0.50022   0.24850   0.52671   0.00000  Uiso   1.00
C1026  C     0.50031   0.24886   0.97315   0.00000  Uiso   1.00
C1027  C     0.40037   0.25028   0.73752   0.00000  Uiso   1.00
C1028  C     0.59968   0.25100   0.76256   0.00000  Uiso   1.00
C1029  C     0.34524   0.25010   0.73117   0.00000  Uiso   1.00
C1030  C     0.65492   0.25368   0.76919   0.00000  Uiso   1.00
C1031  C     0.46861   0.04888   0.78298   0.00000  Uiso   1.00
C1032  C     0.46586   0.45180   0.70721   0.00000  Uiso   1.00
C1033  C     0.48527   0.09280   0.78888   0.00000  Uiso   1.00
C1034  C     0.49635   0.33590   0.74957   0.00000  Uiso   1.00
C1035  C     0.46959   0.40561   0.70657   0.00000  Uiso   1.00
C1036  C     0.50179   0.11573   0.75065   0.00000  Uiso   1.00
C1037  C     0.48831   0.38353   0.74926   0.00000  Uiso   1.00
C1038  C     0.51621   0.09176   0.71274   0.00000  Uiso   1.00
C1039  C     0.49807   0.40738   0.79240   0.00000  Uiso   1.00
C1040  C     0.51536   0.04552   0.71534   0.00000  Uiso   1.00
C1041  C     0.50174   0.45319   0.79185   0.00000  Uiso   1.00
C1042  C     0.48795   0.02397   0.74825   0.00000  Uiso   1.00
C1043  C     0.48520   0.47561   0.74920   0.00000  Uiso   1.00
C1044  C     0.39211   0.01483   0.79616   0.00000  Uiso   1.00
C1045  C     0.45535   0.23396   0.54610   0.00000  Uiso   1.00
C1046  C     0.36516   0.49269   0.83383   0.00000  Uiso   1.00
C1047  C     0.39375   0.47909   0.66146   0.00000  Uiso   1.00
C1048  C     0.37325   0.49708   0.61248   0.00000  Uiso   1.00
C1049  C     0.54247   0.10476   0.85650   0.00000  Uiso   1.00
C1050  C     0.54904   0.11836   0.90842   0.00000  Uiso   1.00
C1051  C     0.47805   0.38455   0.63119   0.00000  Uiso   1.00
C1052  C     0.44930   0.36148   0.58668   0.00000  Uiso   1.00
C1053  C     0.50463   0.10855   0.63406   0.00000  Uiso   1.00
C1054  C     0.53090   0.12918   0.59493   0.00000  Uiso   1.00
C1055  C     0.45553   0.38167   0.85205   0.00000  Uiso   1.00
C1056  C     0.52120   0.28587   0.95046   0.00000  Uiso   1.00
C1057  C     0.45995   0.40131   0.90169   0.00000  Uiso   1.00
C1058  C     0.59275   0.01331   0.70959   0.00000  Uiso   1.00
C1059  C     0.60504   0.46538   0.70127   0.00000  Uiso   1.00
C1060  C     0.57072   0.47490   0.84872   0.00000  Uiso   1.00
C1061  C     0.58350   0.48052   0.90239   0.00000  Uiso   1.00
C1062  C     0.36929   0.22642   0.60567   0.00000  Uiso   1.00
C1063  C     0.66248   0.19159   0.61710   0.00000  Uiso   1.00
C1064  C     0.60664   0.30597   0.88575   0.00000  Uiso   1.00
C1065  C     0.64008   0.33198   0.92616   0.00000  Uiso   1.00
C1066  C     0.60649   0.32445   0.62459   0.00000  Uiso   1.00
C1067  C     0.45697   0.23292   0.59625   0.00000  Uiso   1.00
C1068  C     0.62930   0.35259   0.66771   0.00000  Uiso   1.00
C1069  C     0.39472   0.17864   0.86897   0.00000  Uiso   1.00
C1070  C     0.37927   0.12965   0.87158   0.00000  Uiso   1.00
C1071  C     0.52593   0.28309   0.90192   0.00000  Uiso   1.00
C1072  C     0.54249   0.26739   0.60823   0.00000  Uiso   1.00
C1073  C     0.47389   0.21652   0.89350   0.00000  Uiso   1.00
C1074  C     0.54551   0.26207   0.55914   0.00000  Uiso   1.00
H1075  H     0.65741   0.24607   0.69543   0.00000  Uiso   1.00
H1076  H     0.38064   0.47345   0.58471   0.00000  Uiso   1.00
H1077  H     0.66374   0.00173   0.60898   0.00000  Uiso   1.00
H1078  H     0.39321   0.02952   0.60726   0.00000  Uiso   1.00
H1079  H     0.57105   0.12485   0.83918   0.00000  Uiso   1.00
H1080  H     0.55231   0.06929   0.85545   0.00000  Uiso   1.00
H1081  H     0.58701   0.10685   0.92746   0.00000  Uiso   1.00
H1082  H     0.54950   0.15491   0.91143   0.00000  Uiso   1.00
H1083  H     0.51677   0.10332   0.92526   0.00000  Uiso   1.00
H1084  H     0.51520   0.36782   0.64295   0.00000  Uiso   1.00
H1085  H     0.48746   0.41931   0.62176   0.00000  Uiso   1.00
H1086  H     0.34260   0.25881   0.80504   0.00000  Uiso   1.00
H1087  H     0.41264   0.37869   0.57338   0.00000  Uiso   1.00
H1088  H     0.47454   0.36214   0.55869   0.00000  Uiso   1.00
H1089  H     0.43920   0.32654   0.59466   0.00000  Uiso   1.00
H1090  H     0.46757   0.12576   0.63546   0.00000  Uiso   1.00
H1091  H     0.49495   0.07315   0.62441   0.00000  Uiso   1.00
H1092  H     0.56875   0.11339   0.59363   0.00000  Uiso   1.00
H1093  H     0.50503   0.12399   0.56029   0.00000  Uiso   1.00
H1094  H     0.53820   0.16522   0.60149   0.00000  Uiso   1.00
H1095  H     0.44507   0.34577   0.85392   0.00000  Uiso   1.00
H1096  H     0.42210   0.39716   0.82880   0.00000  Uiso   1.00
H1097  H     0.39350   0.48953   0.76836   0.00000  Uiso   1.00
H1098  H     0.42296   0.39441   0.91592   0.00000  Uiso   1.00
H1099  H     0.49278   0.38666   0.92567   0.00000  Uiso   1.00
H1100  H     0.46736   0.43768   0.90073   0.00000  Uiso   1.00
H1101  H     0.59883   0.01908   0.74882   0.00000  Uiso   1.00
H1102  H     0.62127   0.03538   0.69460   0.00000  Uiso   1.00
H1103  H     0.60248   0.45889   0.66264   0.00000  Uiso   1.00
H1104  H     0.64500   0.45853   0.71970   0.00000  Uiso   1.00
H1105  H     0.57701   0.44261   0.71577   0.00000  Uiso   1.00
H1106  H     0.58914   0.00307   0.83167   0.00000  Uiso   1.00
H1107  H     0.58788   0.44333   0.83948   0.00000  Uiso   1.00
H1108  H     0.36842   0.04287   0.78053   0.00000  Uiso   1.00
H1109  H     0.56757   0.45147   0.92010   0.00000  Uiso   1.00
H1110  H     0.62665   0.48294   0.91364   0.00000  Uiso   1.00
H1111  H     0.56618   0.01100   0.91377   0.00000  Uiso   1.00
H1112  H     0.40499   0.23623   0.98837   0.00000  Uiso   1.00
H1113  H     0.51936   0.32790   0.50148   0.00000  Uiso   1.00
H1114  H     0.35720   0.23652   0.56845   0.00000  Uiso   1.00
H1115  H     0.36757   0.25659   0.62729   0.00000  Uiso   1.00
H1116  H     0.34051   0.17908   0.65380   0.00000  Uiso   1.00
H1117  H     0.62336   0.20595   0.61401   0.00000  Uiso   1.00
H1118  H     0.66020   0.16333   0.59189   0.00000  Uiso   1.00
H1119  H     0.35216   0.01810   0.85706   0.00000  Uiso   1.00
H1120  H     0.62017   0.31645   0.85226   0.00000  Uiso   1.00
H1121  H     0.61417   0.26987   0.89002   0.00000  Uiso   1.00
H1122  H     0.63340   0.31855   0.96099   0.00000  Uiso   1.00
H1123  H     0.34889   0.32898   0.92364   0.00000  Uiso   1.00
H1124  H     0.63052   0.36757   0.92392   0.00000  Uiso   1.00
H1125  H     0.57723   0.34404   0.60108   0.00000  Uiso   1.00
H1126  H     0.63937   0.31750   0.60535   0.00000  Uiso   1.00
H1127  H     0.66246   0.33574   0.68916   0.00000  Uiso   1.00
H1128  H     0.64410   0.38492   0.65577   0.00000  Uiso   1.00
H1129  H     0.59899   0.35837   0.69027   0.00000  Uiso   1.00
H1130  H     0.66460   0.47226   0.81604   0.00000  Uiso   1.00
H1131  H     0.37102   0.19227   0.83680   0.00000  Uiso   1.00
H1132  H     0.38375   0.19599   0.90026   0.00000  Uiso   1.00
H1133  H     0.40379   0.11400   0.90221   0.00000  Uiso   1.00
H1134  H     0.33745   0.12579   0.87596   0.00000  Uiso   1.00
H1135  H     0.38460   0.11252   0.83838   0.00000  Uiso   1.00
H1136  H     0.59433   0.25102   0.51548   0.00000  Uiso   1.00
H1137  H     0.48651   0.16894   0.99401   0.00000  Uiso   1.00
H1138  H     0.39215   0.47044   0.85585   0.00000  Uiso   1.00
H1139  H     0.38528   0.00333   0.68822   0.00000  Uiso   1.00
H1140  H     0.37271   0.44685   0.66561   0.00000  Uiso   1.00
N1141  N     0.50000   0.24999   0.62623   0.00000  Uiso   1.00
N1142  N     0.50000   0.25001   0.87377   0.00000  Uiso   1.00
O1143  O     0.50000   0.18454   0.78974   0.00000  Uiso   1.00
O1144  O     0.44816   0.47393   0.66549   0.00000  Uiso   1.00
O1145  O     0.49045   0.11134   0.83373   0.00000  Uiso   1.00
O1146  O     0.44616   0.38167   0.66691   0.00000  Uiso   1.00
O1147  O     0.53891   0.11320   0.67779   0.00000  Uiso   1.00
O1148  O     0.50465   0.38652   0.83601   0.00000  Uiso   1.00
O1149  O     0.54160   0.02151   0.68585   0.00000  Uiso   1.00
O1150  O     0.51603   0.47567   0.83449   0.00000  Uiso   1.00
O1151  O     0.41090   0.21757   0.51719   0.00000  Uiso   1.00
O1152  O     0.53819   0.32483   0.97419   0.00000  Uiso   1.00
O1153  O     0.41953   0.20816   0.61563   0.00000  Uiso   1.00
O1154  O     0.50000   0.31547   0.71026   0.00000  Uiso   1.00
O1155  O     0.55316   0.31636   0.88194   0.00000  Uiso   1.00
O1156  O     0.58495   0.28425   0.64005   0.00000  Uiso   1.00
O1157  O     0.44839   0.18333   0.86425   0.00000  Uiso   1.00
O1158  O     0.59364   0.26862   0.54461   0.00000  Uiso   1.00
O1159  O     0.46649   0.17184   0.96165   0.00000  Uiso   1.00
O1160  O     0.50000   0.18453   0.71026   0.00000  Uiso   1.00
O1161  O     0.50000   0.31547   0.78974   0.00000  Uiso   1.00
O1162  O     0.42392   0.25000   0.78044   0.00000  Uiso   1.00
O1163  O     0.57608   0.25000   0.71956   0.00000  Uiso   1.00
O1164  O     0.42392   0.24999   0.70096   0.00000  Uiso   1.00
O1165  O     0.57608   0.25001   0.79904   0.00000  Uiso   1.00
O1166  O     0.44271   0.02987   0.81724   0.00000  Uiso   1.00
Zn1167 Zn    0.50000   0.25001   0.80307   0.00000  Uiso   1.00
Zn1168 Zn    0.50000   0.25000   0.69693   0.00000  Uiso   1.00
C1169  C     0.83528   0.16392   0.75034   0.00000  Uiso   1.00
C1170  C     0.81327   0.21229   0.94356   0.00000  Uiso   1.00
C1171  C     0.83356   0.24850   0.52671   0.00000  Uiso   1.00
C1172  C     0.83364   0.24886   0.97315   0.00000  Uiso   1.00
C1173  C     0.73371   0.25028   0.73752   0.00000  Uiso   1.00
C1174  C     0.93302   0.25100   0.76256   0.00000  Uiso   1.00
C1175  C     0.67858   0.25010   0.73117   0.00000  Uiso   1.00
C1176  C     0.98825   0.25368   0.76919   0.00000  Uiso   1.00
C1177  C     0.80195   0.04888   0.78298   0.00000  Uiso   1.00
C1178  C     0.79919   0.45180   0.70721   0.00000  Uiso   1.00
C1179  C     0.81861   0.09280   0.78888   0.00000  Uiso   1.00
C1180  C     0.82968   0.33590   0.74957   0.00000  Uiso   1.00
C1181  C     0.80292   0.40561   0.70657   0.00000  Uiso   1.00
C1182  C     0.83512   0.11573   0.75065   0.00000  Uiso   1.00
C1183  C     0.82165   0.38353   0.74926   0.00000  Uiso   1.00
C1184  C     0.84955   0.09176   0.71274   0.00000  Uiso   1.00
C1185  C     0.83140   0.40738   0.79240   0.00000  Uiso   1.00
C1186  C     0.84869   0.04552   0.71534   0.00000  Uiso   1.00
C1187  C     0.83507   0.45319   0.79185   0.00000  Uiso   1.00
C1188  C     0.82128   0.02397   0.74825   0.00000  Uiso   1.00
C1189  C     0.81853   0.47561   0.74920   0.00000  Uiso   1.00
C1190  C     0.72545   0.01483   0.79616   0.00000  Uiso   1.00
C1191  C     0.78868   0.23396   0.54610   0.00000  Uiso   1.00
C1192  C     0.69849   0.49269   0.83383   0.00000  Uiso   1.00
C1193  C     0.72708   0.47909   0.66146   0.00000  Uiso   1.00
C1194  C     0.70658   0.49708   0.61248   0.00000  Uiso   1.00
C1195  C     0.87580   0.10476   0.85650   0.00000  Uiso   1.00
C1196  C     0.88238   0.11836   0.90842   0.00000  Uiso   1.00
C1197  C     0.81138   0.38455   0.63119   0.00000  Uiso   1.00
C1198  C     0.78263   0.36148   0.58668   0.00000  Uiso   1.00
C1199  C     0.83797   0.10855   0.63406   0.00000  Uiso   1.00
C1200  C     0.86424   0.12918   0.59493   0.00000  Uiso   1.00
C1201  C     0.78886   0.38167   0.85205   0.00000  Uiso   1.00
C1202  C     0.85453   0.28587   0.95046   0.00000  Uiso   1.00
C1203  C     0.79328   0.40131   0.90169   0.00000  Uiso   1.00
C1204  C     0.92609   0.01331   0.70959   0.00000  Uiso   1.00
C1205  C     0.93837   0.46538   0.70127   0.00000  Uiso   1.00
C1206  C     0.90406   0.47490   0.84872   0.00000  Uiso   1.00
C1207  C     0.91684   0.48052   0.90239   0.00000  Uiso   1.00
C1208  C     0.70263   0.22642   0.60567   0.00000  Uiso   1.00
C1209  C     0.99581   0.19159   0.61710   0.00000  Uiso   1.00
C1210  C     0.93998   0.30597   0.88575   0.00000  Uiso   1.00
C1211  C     0.97341   0.33198   0.92616   0.00000  Uiso   1.00
C1212  C     0.93982   0.32445   0.62459   0.00000  Uiso   1.00
C1213  C     0.79030   0.23292   0.59625   0.00000  Uiso   1.00
C1214  C     0.96264   0.35259   0.66771   0.00000  Uiso   1.00
C1215  C     0.72806   0.17864   0.86897   0.00000  Uiso   1.00
C1216  C     0.71260   0.12965   0.87158   0.00000  Uiso   1.00
C1217  C     0.85926   0.28309   0.90192   0.00000  Uiso   1.00
C1218  C     0.87582   0.26739   0.60823   0.00000  Uiso   1.00
C1219  C     0.80723   0.21652   0.89350   0.00000  Uiso   1.00
C1220  C     0.87884   0.26207   0.55914   0.00000  Uiso   1.00
H1221  H     0.99074   0.24607   0.69543   0.00000  Uiso   1.00
H1222  H     0.71398   0.47345   0.58471   0.00000  Uiso   1.00
H1223  H     0.99707   0.00173   0.60898   0.00000  Uiso   1.00
H1224  H     0.72654   0.02952   0.60726   0.00000  Uiso   1.00
H1225  H     0.90438   0.12485   0.83918   0.00000  Uiso   1.00
H1226  H     0.88564   0.06929   0.85545   0.00000  Uiso   1.00
H1227  H     0.92034   0.10685   0.92746   0.00000  Uiso   1.00
H1228  H     0.88283   0.15491   0.91143   0.00000  Uiso   1.00
H1229  H     0.85010   0.10332   0.92526   0.00000  Uiso   1.00
H1230  H     0.84853   0.36782   0.64295   0.00000  Uiso   1.00
H1231  H     0.82080   0.41931   0.62176   0.00000  Uiso   1.00
H1232  H     0.67593   0.25881   0.80504   0.00000  Uiso   1.00
H1233  H     0.74597   0.37869   0.57338   0.00000  Uiso   1.00
H1234  H     0.80787   0.36214   0.55869   0.00000  Uiso   1.00
H1235  H     0.77253   0.32654   0.59466   0.00000  Uiso   1.00
H1236  H     0.80090   0.12576   0.63546   0.00000  Uiso   1.00
H1237  H     0.82829   0.07315   0.62441   0.00000  Uiso   1.00
H1238  H     0.90209   0.11339   0.59363   0.00000  Uiso   1.00
H1239  H     0.83836   0.12399   0.56029   0.00000  Uiso   1.00
H1240  H     0.87153   0.16522   0.60149   0.00000  Uiso   1.00
H1241  H     0.77841   0.34577   0.85392   0.00000  Uiso   1.00
H1242  H     0.75544   0.39716   0.82880   0.00000  Uiso   1.00
H1243  H     0.72683   0.48953   0.76836   0.00000  Uiso   1.00
H1244  H     0.75629   0.39441   0.91592   0.00000  Uiso   1.00
H1245  H     0.82611   0.38666   0.92567   0.00000  Uiso   1.00
H1246  H     0.80069   0.43768   0.90073   0.00000  Uiso   1.00
H1247  H     0.93217   0.01908   0.74882   0.00000  Uiso   1.00
H1248  H     0.95461   0.03538   0.69460   0.00000  Uiso   1.00
H1249  H     0.93581   0.45889   0.66264   0.00000  Uiso   1.00
H1250  H     0.97834   0.45853   0.71970   0.00000  Uiso   1.00
H1251  H     0.91034   0.44261   0.71577   0.00000  Uiso   1.00
H1252  H     0.92248   0.00307   0.83167   0.00000  Uiso   1.00
H1253  H     0.92121   0.44333   0.83948   0.00000  Uiso   1.00
H1254  H     0.70176   0.04287   0.78053   0.00000  Uiso   1.00
H1255  H     0.90091   0.45147   0.92010   0.00000  Uiso   1.00
H1256  H     0.95999   0.48294   0.91364   0.00000  Uiso   1.00
H1257  H     0.89951   0.01100   0.91377   0.00000  Uiso   1.00
H1258  H     0.73833   0.23623   0.98837   0.00000  Uiso   1.00
H1259  H     0.85269   0.32790   0.50148   0.00000  Uiso   1.00
H1260  H     0.69054   0.23652   0.56845   0.00000  Uiso   1.00
H1261  H     0.70091   0.25659   0.62729   0.00000  Uiso   1.00
H1262  H     0.67384   0.17908   0.65380   0.00000  Uiso   1.00
H1263  H     0.95669   0.20595   0.61401   0.00000  Uiso   1.00
H1264  H     0.99353   0.16333   0.59189   0.00000  Uiso   1.00
H1265  H     0.68549   0.01810   0.85706   0.00000  Uiso   1.00
H1266  H     0.95350   0.31645   0.85226   0.00000  Uiso   1.00
H1267  H     0.94751   0.26987   0.89002   0.00000  Uiso   1.00
H1268  H     0.96673   0.31855   0.96099   0.00000  Uiso   1.00
H1269  H     0.68222   0.32898   0.92364   0.00000  Uiso   1.00
H1270  H     0.96385   0.36757   0.92392   0.00000  Uiso   1.00
H1271  H     0.91056   0.34404   0.60108   0.00000  Uiso   1.00
H1272  H     0.97270   0.31750   0.60535   0.00000  Uiso   1.00
H1273  H     0.99579   0.33574   0.68916   0.00000  Uiso   1.00
H1274  H     0.97743   0.38492   0.65577   0.00000  Uiso   1.00
H1275  H     0.93232   0.35837   0.69027   0.00000  Uiso   1.00
H1276  H     0.99793   0.47226   0.81604   0.00000  Uiso   1.00
H1277  H     0.70435   0.19227   0.83680   0.00000  Uiso   1.00
H1278  H     0.71708   0.19599   0.90026   0.00000  Uiso   1.00
H1279  H     0.73713   0.11400   0.90221   0.00000  Uiso   1.00
H1280  H     0.67078   0.12579   0.87596   0.00000  Uiso   1.00
H1281  H     0.71793   0.11252   0.83838   0.00000  Uiso   1.00
H1282  H     0.92766   0.25102   0.51548   0.00000  Uiso   1.00
H1283  H     0.81984   0.16894   0.99401   0.00000  Uiso   1.00
H1284  H     0.72548   0.47044   0.85585   0.00000  Uiso   1.00
H1285  H     0.71861   0.00333   0.68822   0.00000  Uiso   1.00
H1286  H     0.70605   0.44685   0.66561   0.00000  Uiso   1.00
N1287  N     0.83333   0.24999   0.62623   0.00000  Uiso   1.00
N1288  N     0.83333   0.25001   0.87377   0.00000  Uiso   1.00
O1289  O     0.83334   0.18454   0.78974   0.00000  Uiso   1.00
O1290  O     0.78149   0.47393   0.66549   0.00000  Uiso   1.00
O1291  O     0.82378   0.11134   0.83373   0.00000  Uiso   1.00
O1292  O     0.77949   0.38167   0.66691   0.00000  Uiso   1.00
O1293  O     0.87225   0.11320   0.67779   0.00000  Uiso   1.00
O1294  O     0.83798   0.38652   0.83601   0.00000  Uiso   1.00
O1295  O     0.87493   0.02151   0.68585   0.00000  Uiso   1.00
O1296  O     0.84936   0.47567   0.83449   0.00000  Uiso   1.00
O1297  O     0.74423   0.21757   0.51719   0.00000  Uiso   1.00
O1298  O     0.87152   0.32483   0.97419   0.00000  Uiso   1.00
O1299  O     0.75287   0.20816   0.61563   0.00000  Uiso   1.00
O1300  O     0.83333   0.31547   0.71026   0.00000  Uiso   1.00
O1301  O     0.88649   0.31636   0.88194   0.00000  Uiso   1.00
O1302  O     0.91829   0.28425   0.64005   0.00000  Uiso   1.00
O1303  O     0.78172   0.18333   0.86425   0.00000  Uiso   1.00
O1304  O     0.92697   0.26862   0.54461   0.00000  Uiso   1.00
O1305  O     0.79983   0.17184   0.96165   0.00000  Uiso   1.00
O1306  O     0.83334   0.18453   0.71026   0.00000  Uiso   1.00
O1307  O     0.83333   0.31547   0.78974   0.00000  Uiso   1.00
O1308  O     0.75725   0.25000   0.78044   0.00000  Uiso   1.00
O1309  O     0.90942   0.25000   0.71956   0.00000  Uiso   1.00
O1310  O     0.75725   0.24999   0.70096   0.00000  Uiso   1.00
O1311  O     0.90942   0.25001   0.79904   0.00000  Uiso   1.00
O1312  O     0.77605   0.02987   0.81724   0.00000  Uiso   1.00
Zn1313 Zn    0.83333   0.25001   0.80307   0.00000  Uiso   1.00
Zn1314 Zn    0.83333   0.25000   0.69693   0.00000  Uiso   1.00
C1315  C     0.16862   0.66392   0.75034   0.00000  Uiso   1.00
C1316  C     0.14661   0.71229   0.94356   0.00000  Uiso   1.00
C1317  C     0.16689   0.74850   0.52671   0.00000  Uiso   1.00
C1318  C     0.16697   0.74886   0.97315   0.00000  Uiso   1.00
C1319  C     0.06704   0.75028   0.73752   0.00000  Uiso   1.00
C1320  C     0.26635   0.75100   0.76256   0.00000  Uiso   1.00
C1321  C     0.01191   0.75010   0.73117   0.00000  Uiso   1.00
C1322  C     0.32159   0.75368   0.76919   0.00000  Uiso   1.00
C1323  C     0.13528   0.54888   0.78298   0.00000  Uiso   1.00
C1324  C     0.13253   0.95180   0.70721   0.00000  Uiso   1.00
C1325  C     0.15194   0.59280   0.78888   0.00000  Uiso   1.00
C1326  C     0.16301   0.83590   0.74957   0.00000  Uiso   1.00
C1327  C     0.13626   0.90561   0.70657   0.00000  Uiso   1.00
C1328  C     0.16846   0.61573   0.75065   0.00000  Uiso   1.00
C1329  C     0.15498   0.88353   0.74926   0.00000  Uiso   1.00
C1330  C     0.18288   0.59176   0.71274   0.00000  Uiso   1.00
C1331  C     0.16474   0.90738   0.79240   0.00000  Uiso   1.00
C1332  C     0.18202   0.54552   0.71534   0.00000  Uiso   1.00
C1333  C     0.16840   0.95319   0.79185   0.00000  Uiso   1.00
C1334  C     0.15462   0.52397   0.74825   0.00000  Uiso   1.00
C1335  C     0.15187   0.97561   0.74920   0.00000  Uiso   1.00
C1336  C     0.05878   0.51483   0.79616   0.00000  Uiso   1.00
C1337  C     0.12202   0.73396   0.54610   0.00000  Uiso   1.00
C1338  C     0.03182   0.99269   0.83383   0.00000  Uiso   1.00
C1339  C     0.06042   0.97909   0.66146   0.00000  Uiso   1.00
C1340  C     0.03992   0.99708   0.61248   0.00000  Uiso   1.00
C1341  C     0.20913   0.60476   0.85650   0.00000  Uiso   1.00
C1342  C     0.21571   0.61836   0.90842   0.00000  Uiso   1.00
C1343  C     0.14472   0.88455   0.63119   0.00000  Uiso   1.00
C1344  C     0.11597   0.86148   0.58668   0.00000  Uiso   1.00
C1345  C     0.17130   0.60855   0.63406   0.00000  Uiso   1.00
C1346  C     0.19757   0.62918   0.59493   0.00000  Uiso   1.00
C1347  C     0.12219   0.88167   0.85205   0.00000  Uiso   1.00
C1348  C     0.18786   0.78587   0.95046   0.00000  Uiso   1.00
C1349  C     0.12662   0.90131   0.90169   0.00000  Uiso   1.00
C1350  C     0.25942   0.51331   0.70959   0.00000  Uiso   1.00
C1351  C     0.27171   0.96538   0.70127   0.00000  Uiso   1.00
C1352  C     0.23739   0.97490   0.84872   0.00000  Uiso   1.00
C1353  C     0.25017   0.98052   0.90239   0.00000  Uiso   1.00
C1354  C     0.03596   0.72642   0.60567   0.00000  Uiso   1.00
C1355  C     0.32915   0.69159   0.61710   0.00000  Uiso   1.00
C1356  C     0.27331   0.80597   0.88575   0.00000  Uiso   1.00
C1357  C     0.30674   0.83198   0.92616   0.00000  Uiso   1.00
C1358  C     0.27316   0.82445   0.62459   0.00000  Uiso   1.00
C1359  C     0.12364   0.73292   0.59625   0.00000  Uiso   1.00
C1360  C     0.29597   0.85259   0.66771   0.00000  Uiso   1.00
C1361  C     0.06139   0.67864   0.86897   0.00000  Uiso   1.00
C1362  C     0.04593   0.62965   0.87158   0.00000  Uiso   1.00
C1363  C     0.19259   0.78309   0.90192   0.00000  Uiso   1.00
C1364  C     0.20915   0.76739   0.60823   0.00000  Uiso   1.00
C1365  C     0.14056   0.71652   0.89350   0.00000  Uiso   1.00
C1366  C     0.21217   0.76207   0.55914   0.00000  Uiso   1.00
H1367  H     0.32407   0.74607   0.69543   0.00000  Uiso   1.00
H1368  H     0.04731   0.97345   0.58471   0.00000  Uiso   1.00
H1369  H     0.33041   0.50173   0.60898   0.00000  Uiso   1.00
H1370  H     0.05988   0.52952   0.60726   0.00000  Uiso   1.00
H1371  H     0.23772   0.62485   0.83918   0.00000  Uiso   1.00
H1372  H     0.21897   0.56929   0.85545   0.00000  Uiso   1.00
H1373  H     0.25368   0.60685   0.92746   0.00000  Uiso   1.00
H1374  H     0.21617   0.65491   0.91143   0.00000  Uiso   1.00
H1375  H     0.18344   0.60332   0.92526   0.00000  Uiso   1.00
H1376  H     0.18186   0.86782   0.64295   0.00000  Uiso   1.00
H1377  H     0.15413   0.91931   0.62176   0.00000  Uiso   1.00
H1378  H     0.00927   0.75881   0.80504   0.00000  Uiso   1.00
H1379  H     0.07930   0.87869   0.57338   0.00000  Uiso   1.00
H1380  H     0.14120   0.86214   0.55869   0.00000  Uiso   1.00
H1381  H     0.10586   0.82654   0.59466   0.00000  Uiso   1.00
H1382  H     0.13423   0.62576   0.63546   0.00000  Uiso   1.00
H1383  H     0.16162   0.57315   0.62441   0.00000  Uiso   1.00
H1384  H     0.23542   0.61339   0.59363   0.00000  Uiso   1.00
H1385  H     0.17169   0.62399   0.56029   0.00000  Uiso   1.00
H1386  H     0.20487   0.66522   0.60149   0.00000  Uiso   1.00
H1387  H     0.11174   0.84577   0.85392   0.00000  Uiso   1.00
H1388  H     0.08877   0.89716   0.82880   0.00000  Uiso   1.00
H1389  H     0.06016   0.98953   0.76836   0.00000  Uiso   1.00
H1390  H     0.08962   0.89441   0.91592   0.00000  Uiso   1.00
H1391  H     0.15945   0.88666   0.92567   0.00000  Uiso   1.00
H1392  H     0.13403   0.93768   0.90073   0.00000  Uiso   1.00
H1393  H     0.26550   0.51908   0.74882   0.00000  Uiso   1.00
H1394  H     0.28794   0.53538   0.69460   0.00000  Uiso   1.00
H1395  H     0.26914   0.95889   0.66264   0.00000  Uiso   1.00
H1396  H     0.31167   0.95853   0.71970   0.00000  Uiso   1.00
H1397  H     0.24367   0.94261   0.71577   0.00000  Uiso   1.00
H1398  H     0.25581   0.50307   0.83167   0.00000  Uiso   1.00
H1399  H     0.25454   0.94333   0.83948   0.00000  Uiso   1.00
H1400  H     0.03509   0.54287   0.78053   0.00000  Uiso   1.00
H1401  H     0.23424   0.95147   0.92010   0.00000  Uiso   1.00
H1402  H     0.29332   0.98294   0.91364   0.00000  Uiso   1.00
H1403  H     0.23284   0.51100   0.91377   0.00000  Uiso   1.00
H1404  H     0.07166   0.73623   0.98837   0.00000  Uiso   1.00
H1405  H     0.18602   0.82790   0.50148   0.00000  Uiso   1.00
H1406  H     0.02387   0.73652   0.56845   0.00000  Uiso   1.00
H1407  H     0.03424   0.75659   0.62729   0.00000  Uiso   1.00
H1408  H     0.00718   0.67908   0.65380   0.00000  Uiso   1.00
H1409  H     0.29002   0.70595   0.61401   0.00000  Uiso   1.00
H1410  H     0.32687   0.66333   0.59189   0.00000  Uiso   1.00
H1411  H     0.01883   0.51810   0.85706   0.00000  Uiso   1.00
H1412  H     0.28683   0.81645   0.85226   0.00000  Uiso   1.00
H1413  H     0.28084   0.76987   0.89002   0.00000  Uiso   1.00
H1414  H     0.30007   0.81855   0.96099   0.00000  Uiso   1.00
H1415  H     0.01555   0.82898   0.92364   0.00000  Uiso   1.00
H1416  H     0.29719   0.86757   0.92392   0.00000  Uiso   1.00
H1417  H     0.24390   0.84404   0.60108   0.00000  Uiso   1.00
H1418  H     0.30603   0.81750   0.60535   0.00000  Uiso   1.00
H1419  H     0.32913   0.83574   0.68916   0.00000  Uiso   1.00
H1420  H     0.31076   0.88492   0.65577   0.00000  Uiso   1.00
H1421  H     0.26565   0.85837   0.69027   0.00000  Uiso   1.00
H1422  H     0.33126   0.97226   0.81604   0.00000  Uiso   1.00
H1423  H     0.03768   0.69227   0.83680   0.00000  Uiso   1.00
H1424  H     0.05042   0.69599   0.90026   0.00000  Uiso   1.00
H1425  H     0.07046   0.61400   0.90221   0.00000  Uiso   1.00
H1426  H     0.00411   0.62579   0.87596   0.00000  Uiso   1.00
H1427  H     0.05127   0.61252   0.83838   0.00000  Uiso   1.00
H1428  H     0.26099   0.75102   0.51548   0.00000  Uiso   1.00
H1429  H     0.15318   0.66894   0.99401   0.00000  Uiso   1.00
H1430  H     0.05882   0.97044   0.85585   0.00000  Uiso   1.00
H1431  H     0.05194   0.50333   0.68822   0.00000  Uiso   1.00
H1432  H     0.03938   0.94685   0.66561   0.00000  Uiso   1.00
N1433  N     0.16667   0.74999   0.62623   0.00000  Uiso   1.00
N1434  N     0.16667   0.75001   0.87377   0.00000  Uiso   1.00
O1435  O     0.16667   0.68454   0.78974   0.00000  Uiso   1.00
O1436  O     0.11482   0.97393   0.66549   0.00000  Uiso   1.00
O1437  O     0.15712   0.61134   0.83373   0.00000  Uiso   1.00
O1438  O     0.11283   0.88167   0.66691   0.00000  Uiso   1.00
O1439  O     0.20558   0.61320   0.67779   0.00000  Uiso   1.00
O1440  O     0.17132   0.88652   0.83601   0.00000  Uiso   1.00
O1441  O     0.20826   0.52151   0.68585   0.00000  Uiso   1.00
O1442  O     0.18269   0.97567   0.83449   0.00000  Uiso   1.00
O1443  O     0.07757   0.71757   0.51719   0.00000  Uiso   1.00
O1444  O     0.20485   0.82483   0.97419   0.00000  Uiso   1.00
O1445  O     0.08620   0.70816   0.61563   0.00000  Uiso   1.00
O1446  O     0.16666   0.81547   0.71026   0.00000  Uiso   1.00
O1447  O     0.21983   0.81636   0.88194   0.00000  Uiso   1.00
O1448  O     0.25162   0.78425   0.64005   0.00000  Uiso   1.00
O1449  O     0.11505   0.68333   0.86425   0.00000  Uiso   1.00
O1450  O     0.26031   0.76862   0.54461   0.00000  Uiso   1.00
O1451  O     0.13316   0.67184   0.96165   0.00000  Uiso   1.00
O1452  O     0.16667   0.68453   0.71026   0.00000  Uiso   1.00
O1453  O     0.16666   0.81547   0.78974   0.00000  Uiso   1.00
O1454  O     0.09058   0.75000   0.78044   0.00000  Uiso   1.00
O1455  O     0.24275   0.75000   0.71956   0.00000  Uiso   1.00
O1456  O     0.09058   0.74999   0.70096   0.00000  Uiso   1.00
O1457  O     0.24275   0.75001   0.79904   0.00000  Uiso   1.00
O1458  O     0.10938   0.52987   0.81724   0.00000  Uiso   1.00
Zn1459 Zn    0.16667   0.75001   0.80307   0.00000  Uiso   1.00
Zn1460 Zn    0.16667   0.75000   0.69693   0.00000  Uiso   1.00
C1461  C     0.50195   0.66392   0.75034   0.00000  Uiso   1.00
C1462  C     0.47994   0.71229   0.94356   0.00000  Uiso   1.00
C1463  C     0.50022   0.74850   0.52671   0.00000  Uiso   1.00
C1464  C     0.50031   0.74886   0.97315   0.00000  Uiso   1.00
C1465  C     0.40037   0.75028   0.73752   0.00000  Uiso   1.00
C1466  C     0.59968   0.75100   0.76256   0.00000  Uiso   1.00
C1467  C     0.34524   0.75010   0.73117   0.00000  Uiso   1.00
C1468  C     0.65492   0.75368   0.76919   0.00000  Uiso   1.00
C1469  C     0.46861   0.54888   0.78298   0.00000  Uiso   1.00
C1470  C     0.46586   0.95180   0.70721   0.00000  Uiso   1.00
C1471  C     0.48527   0.59280   0.78888   0.00000  Uiso   1.00
C1472  C     0.49635   0.83590   0.74957   0.00000  Uiso   1.00
C1473  C     0.46959   0.90561   0.70657   0.00000  Uiso   1.00
C1474  C     0.50179   0.61573   0.75065   0.00000  Uiso   1.00
C1475  C     0.48831   0.88353   0.74926   0.00000  Uiso   1.00
C1476  C     0.51621   0.59176   0.71274   0.00000  Uiso   1.00
C1477  C     0.49807   0.90738   0.79240   0.00000  Uiso   1.00
C1478  C     0.51536   0.54552   0.71534   0.00000  Uiso   1.00
C1479  C     0.50174   0.95319   0.79185   0.00000  Uiso   1.00
C1480  C     0.48795   0.52397   0.74825   0.00000  Uiso   1.00
C1481  C     0.48520   0.97561   0.74920   0.00000  Uiso   1.00
C1482  C     0.39211   0.51483   0.79616   0.00000  Uiso   1.00
C1483  C     0.45535   0.73396   0.54610   0.00000  Uiso   1.00
C1484  C     0.36516   0.99269   0.83383   0.00000  Uiso   1.00
C1485  C     0.39375   0.97909   0.66146   0.00000  Uiso   1.00
C1486  C     0.37325   0.99708   0.61248   0.00000  Uiso   1.00
C1487  C     0.54247   0.60476   0.85650   0.00000  Uiso   1.00
C1488  C     0.54904   0.61836   0.90842   0.00000  Uiso   1.00
C1489  C     0.47805   0.88455   0.63119   0.00000  Uiso   1.00
C1490  C     0.44930   0.86148   0.58668   0.00000  Uiso   1.00
C1491  C     0.50463   0.60855   0.63406   0.00000  Uiso   1.00
C1492  C     0.53090   0.62918   0.59493   0.00000  Uiso   1.00
C1493  C     0.45553   0.88167   0.85205   0.00000  Uiso   1.00
C1494  C     0.52120   0.78587   0.95046   0.00000  Uiso   1.00
C1495  C     0.45995   0.90131   0.90169   0.00000  Uiso   1.00
C1496  C     0.59275   0.51331   0.70959   0.00000  Uiso   1.00
C1497  C     0.60504   0.96538   0.70127   0.00000  Uiso   1.00
C1498  C     0.57072   0.97490   0.84872   0.00000  Uiso   1.00
C1499  C     0.58350   0.98052   0.90239   0.00000  Uiso   1.00
C1500  C     0.36929   0.72642   0.60567   0.00000  Uiso   1.00
C1501  C     0.66248   0.69159   0.61710   0.00000  Uiso   1.00
C1502  C     0.60664   0.80597   0.88575   0.00000  Uiso   1.00
C1503  C     0.64008   0.83198   0.92616   0.00000  Uiso   1.00
C1504  C     0.60649   0.82445   0.62459   0.00000  Uiso   1.00
C1505  C     0.45697   0.73292   0.59625   0.00000  Uiso   1.00
C1506  C     0.62930   0.85259   0.66771   0.00000  Uiso   1.00
C1507  C     0.39472   0.67864   0.86897   0.00000  Uiso   1.00
C1508  C     0.37927   0.62965   0.87158   0.00000  Uiso   1.00
C1509  C     0.52593   0.78309   0.90192   0.00000  Uiso   1.00
C1510  C     0.54249   0.76739   0.60823   0.00000  Uiso   1.00
C1511  C     0.47389   0.71652   0.89350   0.00000  Uiso   1.00
C1512  C     0.54551   0.76207   0.55914   0.00000  Uiso   1.00
H1513  H     0.65741   0.74607   0.69543   0.00000  Uiso   1.00
H1514  H     0.38064   0.97345   0.58471   0.00000  Uiso   1.00
H1515  H     0.66374   0.50173   0.60898   0.00000  Uiso   1.00
H1516  H     0.39321   0.52952   0.60726   0.00000  Uiso   1.00
H1517  H     0.57105   0.62485   0.83918   0.00000  Uiso   1.00
H1518  H     0.55231   0.56929   0.85545   0.00000  Uiso   1.00
H1519  H     0.58701   0.60685   0.92746   0.00000  Uiso   1.00
H1520  H     0.54950   0.65491   0.91143   0.00000  Uiso   1.00
H1521  H     0.51677   0.60332   0.92526   0.00000  Uiso   1.00
H1522  H     0.51520   0.86782   0.64295   0.00000  Uiso   1.00
H1523  H     0.48746   0.91931   0.62176   0.00000  Uiso   1.00
H1524  H     0.34260   0.75881   0.80504   0.00000  Uiso   1.00
H1525  H     0.41264   0.87869   0.57338   0.00000  Uiso   1.00
H1526  H     0.47454   0.86214   0.55869   0.00000  Uiso   1.00
H1527  H     0.43920   0.82654   0.59466   0.00000  Uiso   1.00
H1528  H     0.46757   0.62576   0.63546   0.00000  Uiso   1.00
H1529  H     0.49495   0.57315   0.62441   0.00000  Uiso   1.00
H1530  H     0.56875   0.61339   0.59363   0.00000  Uiso   1.00
H1531  H     0.50503   0.62399   0.56029   0.00000  Uiso   1.00
H1532  H     0.53820   0.66522   0.60149   0.00000  Uiso   1.00
H1533  H     0.44507   0.84577   0.85392   0.00000  Uiso   1.00
H1534  H     0.42210   0.89716   0.82880   0.00000  Uiso   1.00
H1535  H     0.39350   0.98953   0.76836   0.00000  Uiso   1.00
H1536  H     0.42296   0.89441   0.91592   0.00000  Uiso   1.00
H1537  H     0.49278   0.88666   0.92567   0.00000  Uiso   1.00
H1538  H     0.46736   0.93768   0.90073   0.00000  Uiso   1.00
H1539  H     0.59883   0.51908   0.74882   0.00000  Uiso   1.00
H1540  H     0.62127   0.53538   0.69460   0.00000  Uiso   1.00
H1541  H     0.60248   0.95889   0.66264   0.00000  Uiso   1.00
H1542  H     0.64500   0.95853   0.71970   0.00000  Uiso   1.00
H1543  H     0.57701   0.94261   0.71577   0.00000  Uiso   1.00
H1544  H     0.58914   0.50307   0.83167   0.00000  Uiso   1.00
H1545  H     0.58788   0.94333   0.83948   0.00000  Uiso   1.00
H1546  H     0.36842   0.54287   0.78053   0.00000  Uiso   1.00
H1547  H     0.56757   0.95147   0.92010   0.00000  Uiso   1.00
H1548  H     0.62665   0.98294   0.91364   0.00000  Uiso   1.00
H1549  H     0.56618   0.51100   0.91377   0.00000  Uiso   1.00
H1550  H     0.40499   0.73623   0.98837   0.00000  Uiso   1.00
H1551  H     0.51936   0.82790   0.50148   0.00000  Uiso   1.00
H1552  H     0.35720   0.73652   0.56845   0.00000  Uiso   1.00
H1553  H     0.36757   0.75659   0.62729   0.00000  Uiso   1.00
H1554  H     0.34051   0.67908   0.65380   0.00000  Uiso   1.00
H1555  H     0.62336   0.70595   0.61401   0.00000  Uiso   1.00
H1556  H     0.66020   0.66333   0.59189   0.00000  Uiso   1.00
H1557  H     0.35216   0.51810   0.85706   0.00000  Uiso   1.00
H1558  H     0.62017   0.81645   0.85226   0.00000  Uiso   1.00
H1559  H     0.61417   0.76987   0.89002   0.00000  Uiso   1.00
H1560  H     0.63340   0.81855   0.96099   0.00000  Uiso   1.00
H1561  H     0.34889   0.82898   0.92364   0.00000  Uiso   1.00
H1562  H     0.63052   0.86757   0.92392   0.00000  Uiso   1.00
H1563  H     0.57723   0.84404   0.60108   0.00000  Uiso   1.00
H1564  H     0.63937   0.81750   0.60535   0.00000  Uiso   1.00
H1565  H     0.66246   0.83574   0.68916   0.00000  Uiso   1.00
H1566  H     0.64410   0.88492   0.65577   0.00000  Uiso   1.00
H1567  H     0.59899   0.85837   0.69027   0.00000  Uiso   1.00
H1568  H     0.66460   0.97226   0.81604   0.00000  Uiso   1.00
H1569  H     0.37102   0.69227   0.83680   0.00000  Uiso   1.00
H1570  H     0.38375   0.69599   0.90026   0.00000  Uiso   1.00
H1571  H     0.40379   0.61400   0.90221   0.00000  Uiso   1.00
H1572  H     0.33745   0.62579   0.87596   0.00000  Uiso   1.00
H1573  H     0.38460   0.61252   0.83838   0.00000  Uiso   1.00
H1574  H     0.59433   0.75102   0.51548   0.00000  Uiso   1.00
H1575  H     0.48651   0.66894   0.99401   0.00000  Uiso   1.00
H1576  H     0.39215   0.97044   0.85585   0.00000  Uiso   1.00
H1577  H     0.38528   0.50333   0.68822   0.00000  Uiso   1.00
H1578  H     0.37271   0.94685   0.66561   0.00000  Uiso   1.00
N1579  N     0.50000   0.74999   0.62623   0.00000  Uiso   1.00
N1580  N     0.50000   0.75001   0.87377   0.00000  Uiso   1.00
O1581  O     0.50000   0.68454   0.78974   0.00000  Uiso   1.00
O1582  O     0.44816   0.97393   0.66549   0.00000  Uiso   1.00
O1583  O     0.49045   0.61134   0.83373   0.00000  Uiso   1.00
O1584  O     0.44616   0.88167   0.66691   0.00000  Uiso   1.00
O1585  O     0.53891   0.61320   0.67779   0.00000  Uiso   1.00
O1586  O     0.50465   0.88652   0.83601   0.00000  Uiso   1.00
O1587  O     0.54160   0.52151   0.68585   0.00000  Uiso   1.00
O1588  O     0.51603   0.97567   0.83449   0.00000  Uiso   1.00
O1589  O     0.41090   0.71757   0.51719   0.00000  Uiso   1.00
O1590  O     0.53819   0.82483   0.97419   0.00000  Uiso   1.00
O1591  O     0.41953   0.70816   0.61563   0.00000  Uiso   1.00
O1592  O     0.50000   0.81547   0.71026   0.00000  Uiso   1.00
O1593  O     0.55316   0.81636   0.88194   0.00000  Uiso   1.00
O1594  O     0.58495   0.78425   0.64005   0.00000  Uiso   1.00
O1595  O     0.44839   0.68333   0.86425   0.00000  Uiso   1.00
O1596  O     0.59364   0.76862   0.54461   0.00000  Uiso   1.00
O1597  O     0.46649   0.67184   0.96165   0.00000  Uiso   1.00
O1598  O     0.50000   0.68453   0.71026   0.00000  Uiso   1.00
O1599  O     0.50000   0.81547   0.78974   0.00000  Uiso   1.00
O1600  O     0.42392   0.75000   0.78044   0.00000  Uiso   1.00
O1601  O     0.57608   0.75000   0.71956   0.00000  Uiso   1.00
O1602  O     0.42392   0.74999   0.70096   0.00000  Uiso   1.00
O1603  O     0.57608   0.75001   0.79904   0.00000  Uiso   1.00
O1604  O     0.44271   0.52987   0.81724   0.00000  Uiso   1.00
Zn1605 Zn    0.50000   0.75001   0.80307   0.00000  Uiso   1.00
Zn1606 Zn    0.50000   0.75000   0.69693   0.00000  Uiso   1.00
C1607  C     0.83528   0.66392   0.75034   0.00000  Uiso   1.00
C1608  C     0.81327   0.71229   0.94356   0.00000  Uiso   1.00
C1609  C     0.83356   0.74850   0.52671   0.00000  Uiso   1.00
C1610  C     0.83364   0.74886   0.97315   0.00000  Uiso   1.00
C1611  C     0.73371   0.75028   0.73752   0.00000  Uiso   1.00
C1612  C     0.93302   0.75100   0.76256   0.00000  Uiso   1.00
C1613  C     0.67858   0.75010   0.73117   0.00000  Uiso   1.00
C1614  C     0.98825   0.75368   0.76919   0.00000  Uiso   1.00
C1615  C     0.80195   0.54888   0.78298   0.00000  Uiso   1.00
C1616  C     0.79919   0.95180   0.70721   0.00000  Uiso   1.00
C1617  C     0.81861   0.59280   0.78888   0.00000  Uiso   1.00
C1618  C     0.82968   0.83590   0.74957   0.00000  Uiso   1.00
C1619  C     0.80292   0.90561   0.70657   0.00000  Uiso   1.00
C1620  C     0.83512   0.61573   0.75065   0.00000  Uiso   1.00
C1621  C     0.82165   0.88353   0.74926   0.00000  Uiso   1.00
C1622  C     0.84955   0.59176   0.71274   0.00000  Uiso   1.00
C1623  C     0.83140   0.90738   0.79240   0.00000  Uiso   1.00
C1624  C     0.84869   0.54552   0.71534   0.00000  Uiso   1.00
C1625  C     0.83507   0.95319   0.79185   0.00000  Uiso   1.00
C1626  C     0.82128   0.52397   0.74825   0.00000  Uiso   1.00
C1627  C     0.81853   0.97561   0.74920   0.00000  Uiso   1.00
C1628  C     0.72545   0.51483   0.79616   0.00000  Uiso   1.00
C1629  C     0.78868   0.73396   0.54610   0.00000  Uiso   1.00
C1630  C     0.69849   0.99269   0.83383   0.00000  Uiso   1.00
C1631  C     0.72708   0.97909   0.66146   0.00000  Uiso   1.00
C1632  C     0.70658   0.99708   0.61248   0.00000  Uiso   1.00
C1633  C     0.87580   0.60476   0.85650   0.00000  Uiso   1.00
C1634  C     0.88238   0.61836   0.90842   0.00000  Uiso   1.00
C1635  C     0.81138   0.88455   0.63119   0.00000  Uiso   1.00
C1636  C     0.78263   0.86148   0.58668   0.00000  Uiso   1.00
C1637  C     0.83797   0.60855   0.63406   0.00000  Uiso   1.00
C1638  C     0.86424   0.62918   0.59493   0.00000  Uiso   1.00
C1639  C     0.78886   0.88167   0.85205   0.00000  Uiso   1.00
C1640  C     0.85453   0.78587   0.95046   0.00000  Uiso   1.00
C1641  C     0.79328   0.90131   0.90169   0.00000  Uiso   1.00
C1642  C     0.92609   0.51331   0.70959   0.00000  Uiso   1.00
C1643  C     0.93837   0.96538   0.70127   0.00000  Uiso   1.00
C1644  C     0.90406   0.97490   0.84872   0.00000  Uiso   1.00
C1645  C     0.91684   0.98052   0.90239   0.00000  Uiso   1.00
C1646  C     0.70263   0.72642   0.60567   0.00000  Uiso   1.00
C1647  C     0.99581   0.69159   0.61710   0.00000  Uiso   1.00
C1648  C     0.93998   0.80597   0.88575   0.00000  Uiso   1.00
C1649  C     0.97341   0.83198   0.92616   0.00000  Uiso   1.00
C1650  C     0.93982   0.82445   0.62459   0.00000  Uiso   1.00
C1651  C     0.79030   0.73292   0.59625   0.00000  Uiso   1.00
C1652  C     0.96264   0.85259   0.66771   0.00000  Uiso   1.00
C1653  C     0.72806   0.67864   0.86897   0.00000  Uiso   1.00
C1654  C     0.71260   0.62965   0.87158   0.00000  Uiso   1.00
C1655  C     0.85926   0.78309   0.90192   0.00000  Uiso   1.00
C1656  C     0.87582   0.76739   0.60823   0.00000  Uiso   1.00
C1657  C     0.80723   0.71652   0.89350   0.00000  Uiso   1.00
C1658  C     0.87884   0.76207   0.55914   0.00000  Uiso   1.00
H1659  H     0.99074   0.74607   0.69543   0.00000  Uiso   1.00
H1660  H     0.71398   0.97345   0.58471   0.00000  Uiso   1.00
H1661  H     0.99707   0.50173   0.60898   0.00000  Uiso   1.00
H1662  H     0.72654   0.52952   0.60726   0.00000  Uiso   1.00
H1663  H     0.90438   0.62485   0.83918   0.00000  Uiso   1.00
H1664  H     0.88564   0.56929   0.85545   0.00000  Uiso   1.00
H1665  H     0.92034   0.60685   0.92746   0.00000  Uiso   1.00
H1666  H     0.88283   0.65491   0.91143   0.00000  Uiso   1.00
H1667  H     0.85010   0.60332   0.92526   0.00000  Uiso   1.00
H1668  H     0.84853   0.86782   0.64295   0.00000  Uiso   1.00
H1669  H     0.82080   0.91931   0.62176   0.00000  Uiso   1.00
H1670  H     0.67593   0.75881   0.80504   0.00000  Uiso   1.00
H1671  H     0.74597   0.87869   0.57338   0.00000  Uiso   1.00
H1672  H     0.80787   0.86214   0.55869   0.00000  Uiso   1.00
H1673  H     0.77253   0.82654   0.59466   0.00000  Uiso   1.00
H1674  H     0.80090   0.62576   0.63546   0.00000  Uiso   1.00
H1675  H     0.82829   0.57315   0.62441   0.00000  Uiso   1.00
H1676  H     0.90209   0.61339   0.59363   0.00000  Uiso   1.00
H1677  H     0.83836   0.62399   0.56029   0.00000  Uiso   1.00
H1678  H     0.87153   0.66522   0.60149   0.00000  Uiso   1.00
H1679  H     0.77841   0.84577   0.85392   0.00000  Uiso   1.00
H1680  H     0.75544   0.89716   0.82880   0.00000  Uiso   1.00
H1681  H     0.72683   0.98953   0.76836   0.00000  Uiso   1.00
H1682  H     0.75629   0.89441   0.91592   0.00000  Uiso   1.00
H1683  H     0.82611   0.88666   0.92567   0.00000  Uiso   1.00
H1684  H     0.80069   0.93768   0.90073   0.00000  Uiso   1.00
H1685  H     0.93217   0.51908   0.74882   0.00000  Uiso   1.00
H1686  H     0.95461   0.53538   0.69460   0.00000  Uiso   1.00
H1687  H     0.93581   0.95889   0.66264   0.00000  Uiso   1.00
H1688  H     0.97834   0.95853   0.71970   0.00000  Uiso   1.00
H1689  H     0.91034   0.94261   0.71577   0.00000  Uiso   1.00
H1690  H     0.92248   0.50307   0.83167   0.00000  Uiso   1.00
H1691  H     0.92121   0.94333   0.83948   0.00000  Uiso   1.00
H1692  H     0.70176   0.54287   0.78053   0.00000  Uiso   1.00
H1693  H     0.90091   0.95147   0.92010   0.00000  Uiso   1.00
H1694  H     0.95999   0.98294   0.91364   0.00000  Uiso   1.00
H1695  H     0.89951   0.51100   0.91377   0.00000  Uiso   1.00
H1696  H     0.73833   0.73623   0.98837   0.00000  Uiso   1.00
H1697  H     0.85269   0.82790   0.50148   0.00000  Uiso   1.00
H1698  H     0.69054   0.73652   0.56845   0.00000  Uiso   1.00
H1699  H     0.70091   0.75659   0.62729   0.00000  Uiso   1.00
H1700  H     0.67384   0.67908   0.65380   0.00000  Uiso   1.00
H1701  H     0.95669   0.70595   0.61401   0.00000  Uiso   1.00
H1702  H     0.99353   0.66333   0.59189   0.00000  Uiso   1.00
H1703  H     0.68549   0.51810   0.85706   0.00000  Uiso   1.00
H1704  H     0.95350   0.81645   0.85226   0.00000  Uiso   1.00
H1705  H     0.94751   0.76987   0.89002   0.00000  Uiso   1.00
H1706  H     0.96673   0.81855   0.96099   0.00000  Uiso   1.00
H1707  H     0.68222   0.82898   0.92364   0.00000  Uiso   1.00
H1708  H     0.96385   0.86757   0.92392   0.00000  Uiso   1.00
H1709  H     0.91056   0.84404   0.60108   0.00000  Uiso   1.00
H1710  H     0.97270   0.81750   0.60535   0.00000  Uiso   1.00
H1711  H     0.99579   0.83574   0.68916   0.00000  Uiso   1.00
H1712  H     0.97743   0.88492   0.65577   0.00000  Uiso   1.00
H1713  H     0.93232   0.85837   0.69027   0.00000  Uiso   1.00
H1714  H     0.99793   0.97226   0.81604   0.00000  Uiso   1.00
H1715  H     0.70435   0.69227   0.83680   0.00000  Uiso   1.00
H1716  H     0.71708   0.69599   0.90026   0.00000  Uiso   1.00
H1717  H     0.73713   0.61400   0.90221   0.00000  Uiso   1.00
H1718  H     0.67078   0.62579   0.87596   0.00000  Uiso   1.00
H1719  H     0.71793   0.61252   0.83838   0.00000  Uiso   1.00
H1720  H     0.92766   0.75102   0.51548   0.00000  Uiso   1.00
H1721  H     0.81984   0.66894   0.99401   0.00000  Uiso   1.00
H1722  H     0.72548   0.97044   0.85585   0.00000  Uiso   1.00
H1723  H     0.71861   0.50333   0.68822   0.00000  Uiso   1.00
H1724  H     0.70605   0.94685   0.66561   0.00000  Uiso   1.00
N1725  N     0.83333   0.74999   0.62623   0.00000  Uiso   1.00
N1726  N     0.83333   0.75001   0.87377   0.00000  Uiso   1.00
O1727  O     0.83334   0.68454   0.78974   0.00000  Uiso   1.00
O1728  O     0.78149   0.97393   0.66549   0.00000  Uiso   1.00
O1729  O     0.82378   0.61134   0.83373   0.00000  Uiso   1.00
O1730  O     0.77949   0.88167   0.66691   0.00000  Uiso   1.00
O1731  O     0.87225   0.61320   0.67779   0.00000  Uiso   1.00
O1732  O     0.83798   0.88652   0.83601   0.00000  Uiso   1.00
O1733  O     0.87493   0.52151   0.68585   0.00000  Uiso   1.00
O1734  O     0.84936   0.97567   0.83449   0.00000  Uiso   1.00
O1735  O     0.74423   0.71757   0.51719   0.00000  Uiso   1.00
O1736  O     0.87152   0.82483   0.97419   0.00000  Uiso   1.00
O1737  O     0.75287   0.70816   0.61563   0.00000  Uiso   1.00
O1738  O     0.83333   0.81547   0.71026   0.00000  Uiso   1.00
O1739  O     0.88649   0.81636   0.88194   0.00000  Uiso   1.00
O1740  O     0.91829   0.78425   0.64005   0.00000  Uiso   1.00
O1741  O     0.78172   0.68333   0.86425   0.00000  Uiso   1.00
O1742  O     0.92697   0.76862   0.54461   0.00000  Uiso   1.00
O1743  O     0.79983   0.67184   0.96165   0.00000  Uiso   1.00
O1744  O     0.83334   0.68453   0.71026   0.00000  Uiso   1.00
O1745  O     0.83333   0.81547   0.78974   0.00000  Uiso   1.00
O1746  O     0.75725   0.75000   0.78044   0.00000  Uiso   1.00
O1747  O     0.90942   0.75000   0.71956   0.00000  Uiso   1.00
O1748  O     0.75725   0.74999   0.70096   0.00000  Uiso   1.00
O1749  O     0.90942   0.75001   0.79904   0.00000  Uiso   1.00
O1750  O     0.77605   0.52987   0.81724   0.00000  Uiso   1.00
Zn1751 Zn    0.83333   0.75001   0.80307   0.00000  Uiso   1.00
Zn1752 Zn    0.83333   0.75000   0.69693   0.00000  Uiso   1.00
loop_
_geom_bond_atom_site_label_1
_geom_bond_atom_site_label_2
_geom_bond_distance
_geom_bond_site_symmetry_2
_ccdc_geom_bond_type
C1     O121    1.294   .     A
C1     C14     1.455   .     S
C1     O138    1.295   .     A
C2     C4      1.423   .     A
C2     O137    1.380   .     S
C2     C51     1.417   .     A
C3     C23     1.419   .     A
C3     C52     1.418   .     A
C3     C880    1.528   1_554 S
C4     C34     1.423   .     A
C4     C879    1.528   .     S
C5     C7      1.408   .     S
C5     O140    1.277   .     A
C5     O142    1.289   .     A
C6     C8      1.410   .     S
C6     O141    1.279   .     A
C6     O143    1.288   .     A
C7     C300    1.334   1_455 S
C7     H345    1.082   1_455 S
C8     C153    1.334   .     S
C8     H210    1.087   .     S
C9     O144    1.383   .     S
C9     C20     1.410   .     A
C9     C11     1.381   .     A
C10    C21     1.409   .     A
C10    C13     1.402   .     A
C10    O122    1.385   .     S
C11    C14     1.406   .     A
C11    O123    1.382   .     S
C12    C15     1.461   .     S
C12    O139    1.292   .     A
C12    O132    1.299   .     A
C13    O124    1.385   .     S
C13    C15     1.412   .     A
C14    C16     1.409   .     A
C15    C17     1.409   .     A
C16    O125    1.384   .     S
C16    C18     1.398   .     A
C17    O126    1.382   .     S
C17    C19     1.383   .     A
C18    C20     1.409   .     A
C18    O127    1.384   .     S
C19    C21     1.405   .     A
C19    O128    1.384   .     S
C20    C459    1.460   1_545 S
C21    C458    1.460   .     S
C22    H86     1.114   .     S
C22    O144    1.408   .     S
C22    C462    1.514   1_545 S
C22    H513    1.108   1_545 S
C23    C45     1.424   .     A
C23    O129    1.378   .     S
C24    H116    1.108   .     S
C24    C460    1.514   .     S
C24    H535    1.110   .     S
C24    H400    1.106   1_455 S
C25    H118    1.113   .     S
C25    C26     1.520   .     S
C25    O122    1.408   .     S
C25    H555    1.111   .     S
C26    H54     1.111   .     S
C26    H785    1.111   1_455 S
C26    H494    1.111   .     S
C27    H57     1.114   .     S
C27    O123    1.418   .     S
C27    H58     1.112   .     S
C27    C28     1.519   .     S
C28    H61     1.110   .     S
C28    H60     1.107   .     S
C28    H59     1.111   .     S
C29    H63     1.111   .     S
C29    O124    1.411   .     S
C29    C30     1.520   .     S
C29    H62     1.106   .     S
C30    H67     1.109   .     S
C30    H66     1.109   .     S
C30    H65     1.111   .     S
C31    H68     1.114   .     S
C31    O125    1.413   .     S
C31    C32     1.518   .     S
C31    H69     1.113   .     S
C32    H72     1.109   .     S
C32    H71     1.108   .     S
C32    H70     1.111   .     S
C33    H73     1.111   .     S
C33    O126    1.420   .     S
C33    C35     1.522   .     S
C33    H74     1.118   .     S
C34    C49     1.412   .     A
C34    O130    1.380   .     S
C35    H76     1.110   .     S
C35    H78     1.109   .     S
C35    H77     1.107   .     S
C36    H80     1.111   .     S
C36    O127    1.416   .     S
C36    H79     1.117   .     S
C36    C475    1.521   1_545 S
C37    H81     1.110   .     S
C37    H82     1.108   .     S
C37    H83     1.108   .     S
C37    C474    1.521   .     S
C38    C39     1.522   .     S
C38    H85     1.116   .     S
C38    O128    1.409   .     S
C38    H522    1.109   .     S
C39    H87     1.110   .     S
C39    H88     1.110   .     S
C39    H527    1.110   .     S
C40    H93     1.107   .     S
C40    H92     1.104   .     S
C40    O131    1.417   .     S
C40    C333    1.522   1_455 S
C41    H96     1.111   .     S
C41    H95     1.106   .     S
C41    C186    1.522   .     S
C41    H240    1.110   .     S
C42    O133    1.417   .     S
C42    H98     1.110   .     S
C42    C43     1.525   .     S
C42    H99     1.118   .     S
C43    H100    1.109   .     S
C43    H102    1.111   .     S
C43    H247    1.111   .     S
C44    H104    1.110   .     S
C44    H103    1.114   .     S
C44    C46     1.522   .     S
C44    O134    1.416   .     S
C45    N119    1.374   .     A
C45    O131    1.385   .     S
C46    H105    1.110   .     S
C46    H107    1.110   .     S
C46    H106    1.108   .     S
C47    H109    1.106   .     S
C47    C48     1.523   .     S
C47    O135    1.417   .     S
C47    H110    1.116   .     S
C48    H112    1.110   .     S
C48    H111    1.110   .     S
C48    H113    1.110   .     S
C49    O133    1.380   .     S
C49    N120    1.368   .     A
C50    O134    1.389   .     S
C50    C52     1.424   .     A
C50    N119    1.373   .     A
C51    O135    1.383   .     S
C51    N120    1.366   .     A
C52    O136    1.381   .     S
H53    C153    1.082   .     S
H55    C610    1.111   1_545 S
H56    C464    1.111   1_545 S
H64    C300    1.087   1_455 S
H75    C460    1.108   .     S
H84    C476    1.109   1_545 S
H89    C477    1.110   1_545 S
H90    O1005   0.991   .     S
H91    O1006   0.988   1_554 S
H94    C333    1.110   1_455 S
H97    C462    1.110   1_545 S
H101   C335    1.111   1_455 S
H108   C170    1.106   .     S
H114   O136    0.990   .     S
H115   O137    0.988   .     S
H117   C463    1.111   1_545 S
N119   Zn146   2.016   .     S
N120   Zn145   2.016   .     S
O121   Zn145   2.014   .     S
O129   H966    0.991   1_554 S
O130   H967    0.988   .     S
O132   Zn146   2.014   .     S
O138   Zn146   2.013   .     S
O139   Zn145   2.013   .     S
O140   Zn145   1.970   .     S
O141   Zn146   1.970   .     S
O142   Zn146   1.989   .     S
O143   Zn145   1.989   .     S
C147   O267    1.294   .     A
C147   C160    1.455   .     S
C147   O284    1.295   .     A
C148   C150    1.423   .     A
C148   O283    1.380   .     S
C148   C197    1.417   .     A
C149   C169    1.419   .     A
C149   C198    1.418   .     A
C149   C1026   1.528   1_554 S
C150   C180    1.423   .     A
C150   C1025   1.528   .     S
C151   C153    1.408   .     S
C151   O286    1.277   .     A
C151   O288    1.289   .     A
C152   C154    1.410   .     S
C152   O287    1.279   .     A
C152   O289    1.288   .     A
C154   C299    1.334   .     S
C154   H356    1.087   .     S
C155   O290    1.383   .     S
C155   C166    1.410   .     A
C155   C157    1.381   .     A
C156   C167    1.409   .     A
C156   C159    1.402   .     A
C156   O268    1.385   .     S
C157   C160    1.406   .     A
C157   O269    1.382   .     S
C158   C161    1.461   .     S
C158   O285    1.292   .     A
C158   O278    1.299   .     A
C159   O270    1.385   .     S
C159   C161    1.412   .     A
C160   C162    1.409   .     A
C161   C163    1.409   .     A
C162   O271    1.384   .     S
C162   C164    1.398   .     A
C163   O272    1.382   .     S
C163   C165    1.383   .     A
C164   C166    1.409   .     A
C164   O273    1.384   .     S
C165   C167    1.405   .     A
C165   O274    1.384   .     S
C166   C605    1.460   1_545 S
C167   C604    1.460   .     S
C168   H232    1.114   .     S
C168   O290    1.408   .     S
C168   C608    1.514   1_545 S
C168   H659    1.108   1_545 S
C169   C191    1.424   .     A
C169   O275    1.378   .     S
C170   H262    1.108   .     S
C170   C606    1.514   .     S
C170   H681    1.110   .     S
C171   H264    1.113   .     S
C171   C172    1.520   .     S
C171   O268    1.408   .     S
C171   H701    1.111   .     S
C172   H200    1.111   .     S
C172   H493    1.111   .     S
C172   H640    1.111   .     S
C173   H203    1.114   .     S
C173   O269    1.418   .     S
C173   H204    1.112   .     S
C173   C174    1.519   .     S
C174   H207    1.110   .     S
C174   H206    1.107   .     S
C174   H205    1.111   .     S
C175   H209    1.111   .     S
C175   O270    1.411   .     S
C175   C176    1.520   .     S
C175   H208    1.106   .     S
C176   H213    1.109   .     S
C176   H212    1.109   .     S
C176   H211    1.111   .     S
C177   H214    1.114   .     S
C177   O271    1.413   .     S
C177   C178    1.518   .     S
C177   H215    1.113   .     S
C178   H218    1.109   .     S
C178   H217    1.108   .     S
C178   H216    1.111   .     S
C179   H219    1.111   .     S
C179   O272    1.420   .     S
C179   C181    1.522   .     S
C179   H220    1.118   .     S
C180   C195    1.412   .     A
C180   O276    1.380   .     S
C181   H222    1.110   .     S
C181   H224    1.109   .     S
C181   H223    1.107   .     S
C182   H226    1.111   .     S
C182   O273    1.416   .     S
C182   H225    1.117   .     S
C182   C621    1.521   1_545 S
C183   H227    1.110   .     S
C183   H228    1.108   .     S
C183   H229    1.108   .     S
C183   C620    1.521   .     S
C184   C185    1.522   .     S
C184   H231    1.116   .     S
C184   O274    1.409   .     S
C184   H668    1.109   .     S
C185   H233    1.110   .     S
C185   H234    1.110   .     S
C185   H673    1.110   .     S
C186   H239    1.107   .     S
C186   H238    1.104   .     S
C186   O277    1.417   .     S
C187   H242    1.111   .     S
C187   H241    1.106   .     S
C187   C332    1.522   .     S
C187   H386    1.110   .     S
C188   O279    1.417   .     S
C188   H244    1.110   .     S
C188   C189    1.525   .     S
C188   H245    1.118   .     S
C189   H246    1.109   .     S
C189   H248    1.111   .     S
C189   H393    1.111   .     S
C190   H250    1.110   .     S
C190   H249    1.114   .     S
C190   C192    1.522   .     S
C190   O280    1.416   .     S
C191   N265    1.374   .     A
C191   O277    1.385   .     S
C192   H251    1.110   .     S
C192   H253    1.110   .     S
C192   H252    1.108   .     S
C193   H255    1.106   .     S
C193   C194    1.523   .     S
C193   O281    1.417   .     S
C193   H256    1.116   .     S
C194   H258    1.110   .     S
C194   H257    1.110   .     S
C194   H259    1.110   .     S
C195   O279    1.380   .     S
C195   N266    1.368   .     A
C196   O280    1.389   .     S
C196   C198    1.424   .     A
C196   N265    1.373   .     A
C197   O281    1.383   .     S
C197   N266    1.366   .     A
C198   O282    1.381   .     S
H199   C299    1.082   .     S
H201   C756    1.111   1_545 S
H202   C610    1.111   1_545 S
H221   C606    1.108   .     S
H230   C622    1.109   1_545 S
H235   C623    1.110   1_545 S
H236   O1151   0.991   .     S
H237   O1152   0.988   1_554 S
H243   C608    1.110   1_545 S
H254   C316    1.106   .     S
H260   O282    0.990   .     S
H261   O283    0.988   .     S
H263   C609    1.111   1_545 S
N265   Zn292   2.016   .     S
N266   Zn291   2.016   .     S
O267   Zn291   2.014   .     S
O275   H1112   0.991   1_554 S
O276   H1113   0.988   .     S
O278   Zn292   2.014   .     S
O284   Zn292   2.013   .     S
O285   Zn291   2.013   .     S
O286   Zn291   1.970   .     S
O287   Zn292   1.970   .     S
O288   Zn292   1.989   .     S
O289   Zn291   1.989   .     S
C293   O413    1.294   .     A
C293   C306    1.455   .     S
C293   O430    1.295   .     A
C294   C296    1.423   .     A
C294   O429    1.380   .     S
C294   C343    1.417   .     A
C295   C315    1.419   .     A
C295   C344    1.418   .     A
C295   C1172   1.528   1_554 S
C296   C326    1.423   .     A
C296   C1171   1.528   .     S
C297   C299    1.408   .     S
C297   O432    1.277   .     A
C297   O434    1.289   .     A
C298   C300    1.410   .     S
C298   O433    1.279   .     A
C298   O435    1.288   .     A
C300   C7      1.334   1_655 S
C300   H64     1.087   1_655 S
C301   O436    1.383   .     S
C301   C312    1.410   .     A
C301   C303    1.381   .     A
C302   C313    1.409   .     A
C302   C305    1.402   .     A
C302   O414    1.385   .     S
C303   C306    1.406   .     A
C303   O415    1.382   .     S
C304   C307    1.461   .     S
C304   O431    1.292   .     A
C304   O424    1.299   .     A
C305   O416    1.385   .     S
C305   C307    1.412   .     A
C306   C308    1.409   .     A
C307   C309    1.409   .     A
C308   O417    1.384   .     S
C308   C310    1.398   .     A
C309   O418    1.382   .     S
C309   C311    1.383   .     A
C310   C312    1.409   .     A
C310   O419    1.384   .     S
C311   C313    1.405   .     A
C311   O420    1.384   .     S
C312   C751    1.460   1_545 S
C313   C750    1.460   .     S
C314   H378    1.114   .     S
C314   O436    1.408   .     S
C314   C754    1.514   1_545 S
C314   H805    1.108   1_545 S
C315   C337    1.424   .     A
C315   O421    1.378   .     S
C316   H408    1.108   .     S
C316   C752    1.514   .     S
C316   H827    1.110   .     S
C317   H410    1.113   .     S
C317   C318    1.520   .     S
C317   O414    1.408   .     S
C317   H847    1.111   .     S
C318   H346    1.111   .     S
C318   H639    1.111   .     S
C318   H786    1.111   .     S
C319   H349    1.114   .     S
C319   O415    1.418   .     S
C319   H350    1.112   .     S
C319   C320    1.519   .     S
C320   H353    1.110   .     S
C320   H352    1.107   .     S
C320   H351    1.111   .     S
C321   H355    1.111   .     S
C321   O416    1.411   .     S
C321   C322    1.520   .     S
C321   H354    1.106   .     S
C322   H359    1.109   .     S
C322   H358    1.109   .     S
C322   H357    1.111   .     S
C323   H360    1.114   .     S
C323   O417    1.413   .     S
C323   C324    1.518   .     S
C323   H361    1.113   .     S
C324   H364    1.109   .     S
C324   H363    1.108   .     S
C324   H362    1.111   .     S
C325   H365    1.111   .     S
C325   O418    1.420   .     S
C325   C327    1.522   .     S
C325   H366    1.118   .     S
C326   C341    1.412   .     A
C326   O422    1.380   .     S
C327   H368    1.110   .     S
C327   H370    1.109   .     S
C327   H369    1.107   .     S
C328   H372    1.111   .     S
C328   O419    1.416   .     S
C328   H371    1.117   .     S
C328   C767    1.521   1_545 S
C329   H373    1.110   .     S
C329   H374    1.108   .     S
C329   H375    1.108   .     S
C329   C766    1.521   .     S
C330   C331    1.522   .     S
C330   H377    1.116   .     S
C330   O420    1.409   .     S
C330   H814    1.109   .     S
C331   H379    1.110   .     S
C331   H380    1.110   .     S
C331   H819    1.110   .     S
C332   H385    1.107   .     S
C332   H384    1.104   .     S
C332   O423    1.417   .     S
C333   H388    1.111   .     S
C333   H387    1.106   .     S
C333   C40     1.522   1_655 S
C333   H94     1.110   1_655 S
C334   O425    1.417   .     S
C334   H390    1.110   .     S
C334   C335    1.525   .     S
C334   H391    1.118   .     S
C335   H392    1.109   .     S
C335   H394    1.111   .     S
C335   H101    1.111   1_655 S
C336   H396    1.110   .     S
C336   H395    1.114   .     S
C336   C338    1.522   .     S
C336   O426    1.416   .     S
C337   N411    1.374   .     A
C337   O423    1.385   .     S
C338   H397    1.110   .     S
C338   H399    1.110   .     S
C338   H398    1.108   .     S
C339   H401    1.106   .     S
C339   C340    1.523   .     S
C339   O427    1.417   .     S
C339   H402    1.116   .     S
C340   H404    1.110   .     S
C340   H403    1.110   .     S
C340   H405    1.110   .     S
C341   O425    1.380   .     S
C341   N412    1.368   .     A
C342   O426    1.389   .     S
C342   C344    1.424   .     A
C342   N411    1.373   .     A
C343   O427    1.383   .     S
C343   N412    1.366   .     A
C344   O428    1.381   .     S
H345   C7      1.082   1_655 S
H347   C464    1.111   1_645 S
H348   C756    1.111   1_545 S
H367   C752    1.108   .     S
H376   C768    1.109   1_545 S
H381   C769    1.110   1_545 S
H382   O1297   0.991   .     S
H383   O1298   0.988   1_554 S
H389   C754    1.110   1_545 S
H400   C24     1.106   1_655 S
H406   O428    0.990   .     S
H407   O429    0.988   .     S
H409   C755    1.111   1_545 S
N411   Zn438   2.016   .     S
N412   Zn437   2.016   .     S
O413   Zn437   2.014   .     S
O421   H1258   0.991   1_554 S
O422   H1259   0.988   .     S
O424   Zn438   2.014   .     S
O430   Zn438   2.013   .     S
O431   Zn437   2.013   .     S
O432   Zn437   1.970   .     S
O433   Zn438   1.970   .     S
O434   Zn438   1.989   .     S
O435   Zn437   1.989   .     S
C439   O559    1.294   .     A
C439   C452    1.455   .     S
C439   O576    1.295   .     A
C440   C442    1.423   .     A
C440   O575    1.380   .     S
C440   C489    1.417   .     A
C441   C461    1.419   .     A
C441   C490    1.418   .     A
C441   C1318   1.528   1_554 S
C442   C472    1.423   .     A
C442   C1317   1.528   .     S
C443   C445    1.408   .     S
C443   O578    1.277   .     A
C443   O580    1.289   .     A
C444   C446    1.410   .     S
C444   O579    1.279   .     A
C444   O581    1.288   .     A
C445   C738    1.334   1_455 S
C445   H783    1.082   1_455 S
C446   C591    1.334   .     S
C446   H648    1.087   .     S
C447   O582    1.383   .     S
C447   C458    1.410   .     A
C447   C449    1.381   .     A
C448   C459    1.409   .     A
C448   C451    1.402   .     A
C448   O560    1.385   .     S
C449   C452    1.406   .     A
C449   O561    1.382   .     S
C450   C453    1.461   .     S
C450   O577    1.292   .     A
C450   O570    1.299   .     A
C451   O562    1.385   .     S
C451   C453    1.412   .     A
C452   C454    1.409   .     A
C453   C455    1.409   .     A
C454   O563    1.384   .     S
C454   C456    1.398   .     A
C455   O564    1.382   .     S
C455   C457    1.383   .     A
C456   C458    1.409   .     A
C456   O565    1.384   .     S
C457   C459    1.405   .     A
C457   O566    1.384   .     S
C459   C20     1.460   1_565 S
C460   H524    1.114   .     S
C460   O582    1.408   .     S
C461   C483    1.424   .     A
C461   O567    1.378   .     S
C462   H554    1.108   .     S
C462   C22     1.514   1_565 S
C462   H97     1.110   1_565 S
C462   H838    1.106   1_455 S
C463   H556    1.113   .     S
C463   C464    1.520   .     S
C463   O560    1.408   .     S
C463   H117    1.111   1_565 S
C464   H492    1.111   .     S
C464   H347    1.111   1_465 S
C464   H56     1.111   1_565 S
C465   H495    1.114   .     S
C465   O561    1.418   .     S
C465   H496    1.112   .     S
C465   C466    1.519   .     S
C466   H499    1.110   .     S
C466   H498    1.107   .     S
C466   H497    1.111   .     S
C467   H501    1.111   .     S
C467   O562    1.411   .     S
C467   C468    1.520   .     S
C467   H500    1.106   .     S
C468   H505    1.109   .     S
C468   H504    1.109   .     S
C468   H503    1.111   .     S
C469   H506    1.114   .     S
C469   O563    1.413   .     S
C469   C470    1.518   .     S
C469   H507    1.113   .     S
C470   H510    1.109   .     S
C470   H509    1.108   .     S
C470   H508    1.111   .     S
C471   H511    1.111   .     S
C471   O564    1.420   .     S
C471   C473    1.522   .     S
C471   H512    1.118   .     S
C472   C487    1.412   .     A
C472   O568    1.380   .     S
C473   H514    1.110   .     S
C473   H516    1.109   .     S
C473   H515    1.107   .     S
C474   H518    1.111   .     S
C474   O565    1.416   .     S
C474   H517    1.117   .     S
C475   H519    1.110   .     S
C475   H520    1.108   .     S
C475   H521    1.108   .     S
C475   C36     1.521   1_565 S
C476   C477    1.522   .     S
C476   H523    1.116   .     S
C476   O566    1.409   .     S
C476   H84     1.109   1_565 S
C477   H525    1.110   .     S
C477   H526    1.110   .     S
C477   H89     1.110   1_565 S
C478   H531    1.107   .     S
C478   H530    1.104   .     S
C478   O569    1.417   .     S
C478   C771    1.522   1_455 S
C479   H534    1.111   .     S
C479   H533    1.106   .     S
C479   C624    1.522   .     S
C479   H678    1.110   .     S
C480   O571    1.417   .     S
C480   H536    1.110   .     S
C480   C481    1.525   .     S
C480   H537    1.118   .     S
C481   H538    1.109   .     S
C481   H540    1.111   .     S
C481   H685    1.111   .     S
C482   H542    1.110   .     S
C482   H541    1.114   .     S
C482   C484    1.522   .     S
C482   O572    1.416   .     S
C483   N557    1.374   .     A
C483   O569    1.385   .     S
C484   H543    1.110   .     S
C484   H545    1.110   .     S
C484   H544    1.108   .     S
C485   H547    1.106   .     S
C485   C486    1.523   .     S
C485   O573    1.417   .     S
C485   H548    1.116   .     S
C486   H550    1.110   .     S
C486   H549    1.110   .     S
C486   H551    1.110   .     S
C487   O571    1.380   .     S
C487   N558    1.368   .     A
C488   O572    1.389   .     S
C488   C490    1.424   .     A
C488   N557    1.373   .     A
C489   O573    1.383   .     S
C489   N558    1.366   .     A
C490   O574    1.381   .     S
H491   C591    1.082   .     S
H502   C738    1.087   1_455 S
H513   C22     1.108   1_565 S
H528   O1443   0.991   .     S
H529   O1444   0.988   1_554 S
H532   C771    1.110   1_455 S
H539   C773    1.111   1_455 S
H546   C608    1.106   .     S
H552   O574    0.990   .     S
H553   O575    0.988   .     S
N557   Zn584   2.016   .     S
N558   Zn583   2.016   .     S
O559   Zn583   2.014   .     S
O567   H1404   0.991   1_554 S
O568   H1405   0.988   .     S
O570   Zn584   2.014   .     S
O576   Zn584   2.013   .     S
O577   Zn583   2.013   .     S
O578   Zn583   1.970   .     S
O579   Zn584   1.970   .     S
O580   Zn584   1.989   .     S
O581   Zn583   1.989   .     S
C585   O705    1.294   .     A
C585   C598    1.455   .     S
C585   O722    1.295   .     A
C586   C588    1.423   .     A
C586   O721    1.380   .     S
C586   C635    1.417   .     A
C587   C607    1.419   .     A
C587   C636    1.418   .     A
C587   C1464   1.528   1_554 S
C588   C618    1.423   .     A
C588   C1463   1.528   .     S
C589   C591    1.408   .     S
C589   O724    1.277   .     A
C589   O726    1.289   .     A
C590   C592    1.410   .     S
C590   O725    1.279   .     A
C590   O727    1.288   .     A
C592   C737    1.334   .     S
C592   H794    1.087   .     S
C593   O728    1.383   .     S
C593   C604    1.410   .     A
C593   C595    1.381   .     A
C594   C605    1.409   .     A
C594   C597    1.402   .     A
C594   O706    1.385   .     S
C595   C598    1.406   .     A
C595   O707    1.382   .     S
C596   C599    1.461   .     S
C596   O723    1.292   .     A
C596   O716    1.299   .     A
C597   O708    1.385   .     S
C597   C599    1.412   .     A
C598   C600    1.409   .     A
C599   C601    1.409   .     A
C600   O709    1.384   .     S
C600   C602    1.398   .     A
C601   O710    1.382   .     S
C601   C603    1.383   .     A
C602   C604    1.409   .     A
C602   O711    1.384   .     S
C603   C605    1.405   .     A
C603   O712    1.384   .     S
C605   C166    1.460   1_565 S
C606   H670    1.114   .     S
C606   O728    1.408   .     S
C607   C629    1.424   .     A
C607   O713    1.378   .     S
C608   H700    1.108   .     S
C608   C168    1.514   1_565 S
C608   H243    1.110   1_565 S
C609   H702    1.113   .     S
C609   C610    1.520   .     S
C609   O706    1.408   .     S
C609   H263    1.111   1_565 S
C610   H638    1.111   .     S
C610   H55     1.111   1_565 S
C610   H202    1.111   1_565 S
C611   H641    1.114   .     S
C611   O707    1.418   .     S
C611   H642    1.112   .     S
C611   C612    1.519   .     S
C612   H645    1.110   .     S
C612   H644    1.107   .     S
C612   H643    1.111   .     S
C613   H647    1.111   .     S
C613   O708    1.411   .     S
C613   C614    1.520   .     S
C613   H646    1.106   .     S
C614   H651    1.109   .     S
C614   H650    1.109   .     S
C614   H649    1.111   .     S
C615   H652    1.114   .     S
C615   O709    1.413   .     S
C615   C616    1.518   .     S
C615   H653    1.113   .     S
C616   H656    1.109   .     S
C616   H655    1.108   .     S
C616   H654    1.111   .     S
C617   H657    1.111   .     S
C617   O710    1.420   .     S
C617   C619    1.522   .     S
C617   H658    1.118   .     S
C618   C633    1.412   .     A
C618   O714    1.380   .     S
C619   H660    1.110   .     S
C619   H662    1.109   .     S
C619   H661    1.107   .     S
C620   H664    1.111   .     S
C620   O711    1.416   .     S
C620   H663    1.117   .     S
C621   H665    1.110   .     S
C621   H666    1.108   .     S
C621   H667    1.108   .     S
C621   C182    1.521   1_565 S
C622   C623    1.522   .     S
C622   H669    1.116   .     S
C622   O712    1.409   .     S
C622   H230    1.109   1_565 S
C623   H671    1.110   .     S
C623   H672    1.110   .     S
C623   H235    1.110   1_565 S
C624   H677    1.107   .     S
C624   H676    1.104   .     S
C624   O715    1.417   .     S
C625   H680    1.111   .     S
C625   H679    1.106   .     S
C625   C770    1.522   .     S
C625   H824    1.110   .     S
C626   O717    1.417   .     S
C626   H682    1.110   .     S
C626   C627    1.525   .     S
C626   H683    1.118   .     S
C627   H684    1.109   .     S
C627   H686    1.111   .     S
C627   H831    1.111   .     S
C628   H688    1.110   .     S
C628   H687    1.114   .     S
C628   C630    1.522   .     S
C628   O718    1.416   .     S
C629   N703    1.374   .     A
C629   O715    1.385   .     S
C630   H689    1.110   .     S
C630   H691    1.110   .     S
C630   H690    1.108   .     S
C631   H693    1.106   .     S
C631   C632    1.523   .     S
C631   O719    1.417   .     S
C631   H694    1.116   .     S
C632   H696    1.110   .     S
C632   H695    1.110   .     S
C632   H697    1.110   .     S
C633   O717    1.380   .     S
C633   N704    1.368   .     A
C634   O718    1.389   .     S
C634   C636    1.424   .     A
C634   N703    1.373   .     A
C635   O719    1.383   .     S
C635   N704    1.366   .     A
C636   O720    1.381   .     S
H637   C737    1.082   .     S
H659   C168    1.108   1_565 S
H674   O1589   0.991   .     S
H675   O1590   0.988   1_554 S
H692   C754    1.106   .     S
H698   O720    0.990   .     S
H699   O721    0.988   .     S
N703   Zn730   2.016   .     S
N704   Zn729   2.016   .     S
O705   Zn729   2.014   .     S
O713   H1550   0.991   1_554 S
O714   H1551   0.988   .     S
O716   Zn730   2.014   .     S
O722   Zn730   2.013   .     S
O723   Zn729   2.013   .     S
O724   Zn729   1.970   .     S
O725   Zn730   1.970   .     S
O726   Zn730   1.989   .     S
O727   Zn729   1.989   .     S
C731   O851    1.294   .     A
C731   C744    1.455   .     S
C731   O868    1.295   .     A
C732   C734    1.423   .     A
C732   O867    1.380   .     S
C732   C781    1.417   .     A
C733   C753    1.419   .     A
C733   C782    1.418   .     A
C733   C1610   1.528   1_554 S
C734   C764    1.423   .     A
C734   C1609   1.528   .     S
C735   C737    1.408   .     S
C735   O870    1.277   .     A
C735   O872    1.289   .     A
C736   C738    1.410   .     S
C736   O871    1.279   .     A
C736   O873    1.288   .     A
C738   C445    1.334   1_655 S
C738   H502    1.087   1_655 S
C739   O874    1.383   .     S
C739   C750    1.410   .     A
C739   C741    1.381   .     A
C740   C751    1.409   .     A
C740   C743    1.402   .     A
C740   O852    1.385   .     S
C741   C744    1.406   .     A
C741   O853    1.382   .     S
C742   C745    1.461   .     S
C742   O869    1.292   .     A
C742   O862    1.299   .     A
C743   O854    1.385   .     S
C743   C745    1.412   .     A
C744   C746    1.409   .     A
C745   C747    1.409   .     A
C746   O855    1.384   .     S
C746   C748    1.398   .     A
C747   O856    1.382   .     S
C747   C749    1.383   .     A
C748   C750    1.409   .     A
C748   O857    1.384   .     S
C749   C751    1.405   .     A
C749   O858    1.384   .     S
C751   C312    1.460   1_565 S
C752   H816    1.114   .     S
C752   O874    1.408   .     S
C753   C775    1.424   .     A
C753   O859    1.378   .     S
C754   H846    1.108   .     S
C754   C314    1.514   1_565 S
C754   H389    1.110   1_565 S
C755   H848    1.113   .     S
C755   C756    1.520   .     S
C755   O852    1.408   .     S
C755   H409    1.111   1_565 S
C756   H784    1.111   .     S
C756   H201    1.111   1_565 S
C756   H348    1.111   1_565 S
C757   H787    1.114   .     S
C757   O853    1.418   .     S
C757   H788    1.112   .     S
C757   C758    1.519   .     S
C758   H791    1.110   .     S
C758   H790    1.107   .     S
C758   H789    1.111   .     S
C759   H793    1.111   .     S
C759   O854    1.411   .     S
C759   C760    1.520   .     S
C759   H792    1.106   .     S
C760   H797    1.109   .     S
C760   H796    1.109   .     S
C760   H795    1.111   .     S
C761   H798    1.114   .     S
C761   O855    1.413   .     S
C761   C762    1.518   .     S
C761   H799    1.113   .     S
C762   H802    1.109   .     S
C762   H801    1.108   .     S
C762   H800    1.111   .     S
C763   H803    1.111   .     S
C763   O856    1.420   .     S
C763   C765    1.522   .     S
C763   H804    1.118   .     S
C764   C779    1.412   .     A
C764   O860    1.380   .     S
C765   H806    1.110   .     S
C765   H808    1.109   .     S
C765   H807    1.107   .     S
C766   H810    1.111   .     S
C766   O857    1.416   .     S
C766   H809    1.117   .     S
C767   H811    1.110   .     S
C767   H812    1.108   .     S
C767   H813    1.108   .     S
C767   C328    1.521   1_565 S
C768   C769    1.522   .     S
C768   H815    1.116   .     S
C768   O858    1.409   .     S
C768   H376    1.109   1_565 S
C769   H817    1.110   .     S
C769   H818    1.110   .     S
C769   H381    1.110   1_565 S
C770   H823    1.107   .     S
C770   H822    1.104   .     S
C770   O861    1.417   .     S
C771   H826    1.111   .     S
C771   H825    1.106   .     S
C771   C478    1.522   1_655 S
C771   H532    1.110   1_655 S
C772   O863    1.417   .     S
C772   H828    1.110   .     S
C772   C773    1.525   .     S
C772   H829    1.118   .     S
C773   H830    1.109   .     S
C773   H832    1.111   .     S
C773   H539    1.111   1_655 S
C774   H834    1.110   .     S
C774   H833    1.114   .     S
C774   C776    1.522   .     S
C774   O864    1.416   .     S
C775   N849    1.374   .     A
C775   O861    1.385   .     S
C776   H835    1.110   .     S
C776   H837    1.110   .     S
C776   H836    1.108   .     S
C777   H839    1.106   .     S
C777   C778    1.523   .     S
C777   O865    1.417   .     S
C777   H840    1.116   .     S
C778   H842    1.110   .     S
C778   H841    1.110   .     S
C778   H843    1.110   .     S
C779   O863    1.380   .     S
C779   N850    1.368   .     A
C780   O864    1.389   .     S
C780   C782    1.424   .     A
C780   N849    1.373   .     A
C781   O865    1.383   .     S
C781   N850    1.366   .     A
C782   O866    1.381   .     S
H783   C445    1.082   1_655 S
H785   C26     1.111   1_655 S
H805   C314    1.108   1_565 S
H820   O1735   0.991   .     S
H821   O1736   0.988   1_554 S
H838   C462    1.106   1_655 S
H844   O866    0.990   .     S
H845   O867    0.988   .     S
N849   Zn876   2.016   .     S
N850   Zn875   2.016   .     S
O851   Zn875   2.014   .     S
O859   H1696   0.991   1_554 S
O860   H1697   0.988   .     S
O862   Zn876   2.014   .     S
O868   Zn876   2.013   .     S
O869   Zn875   2.013   .     S
O870   Zn875   1.970   .     S
O871   Zn876   1.970   .     S
O872   Zn876   1.989   .     S
O873   Zn875   1.989   .     S
C877   O997    1.294   .     A
C877   C890    1.455   .     S
C877   O1014   1.295   .     A
C878   C880    1.423   .     A
C878   O1013   1.380   .     S
C878   C927    1.417   .     A
C879   C899    1.419   .     A
C879   C928    1.418   .     A
C880   C910    1.423   .     A
C880   C3      1.528   1_556 S
C881   C883    1.408   .     S
C881   O1016   1.277   .     A
C881   O1018   1.289   .     A
C882   C884    1.410   .     S
C882   O1017   1.279   .     A
C882   O1019   1.288   .     A
C883   C1176   1.334   1_455 S
C883   H1221   1.082   1_455 S
C884   C1029   1.334   .     S
C884   H1086   1.087   .     S
C885   O1020   1.383   .     S
C885   C896    1.410   .     A
C885   C887    1.381   .     A
C886   C897    1.409   .     A
C886   C889    1.402   .     A
C886   O998    1.385   .     S
C887   C890    1.406   .     A
C887   O999    1.382   .     S
C888   C891    1.461   .     S
C888   O1015   1.292   .     A
C888   O1008   1.299   .     A
C889   O1000   1.385   .     S
C889   C891    1.412   .     A
C890   C892    1.409   .     A
C891   C893    1.409   .     A
C892   O1001   1.384   .     S
C892   C894    1.398   .     A
C893   O1002   1.382   .     S
C893   C895    1.383   .     A
C894   C896    1.409   .     A
C894   O1003   1.384   .     S
C895   C897    1.405   .     A
C895   O1004   1.384   .     S
C896   C1335   1.460   1_545 S
C897   C1334   1.460   .     S
C898   H962    1.114   .     S
C898   O1020   1.408   .     S
C898   C1338   1.514   1_545 S
C898   H1389   1.108   1_545 S
C899   C921    1.424   .     A
C899   O1005   1.378   .     S
C900   H992    1.108   .     S
C900   C1336   1.514   .     S
C900   H1411   1.110   .     S
C900   H1276   1.106   1_455 S
C901   H994    1.113   .     S
C901   C902    1.520   .     S
C901   O998    1.408   .     S
C901   H1431   1.111   .     S
C902   H930    1.111   .     S
C902   H1661   1.111   1_455 S
C902   H1370   1.111   .     S
C903   H933    1.114   .     S
C903   O999    1.418   .     S
C903   H934    1.112   .     S
C903   C904    1.519   .     S
C904   H937    1.110   .     S
C904   H936    1.107   .     S
C904   H935    1.111   .     S
C905   H939    1.111   .     S
C905   O1000   1.411   .     S
C905   C906    1.520   .     S
C905   H938    1.106   .     S
C906   H943    1.109   .     S
C906   H942    1.109   .     S
C906   H941    1.111   .     S
C907   H944    1.114   .     S
C907   O1001   1.413   .     S
C907   C908    1.518   .     S
C907   H945    1.113   .     S
C908   H948    1.109   .     S
C908   H947    1.108   .     S
C908   H946    1.111   .     S
C909   H949    1.111   .     S
C909   O1002   1.420   .     S
C909   C911    1.522   .     S
C909   H950    1.118   .     S
C910   C925    1.412   .     A
C910   O1006   1.380   .     S
C911   H952    1.110   .     S
C911   H954    1.109   .     S
C911   H953    1.107   .     S
C912   H956    1.111   .     S
C912   O1003   1.416   .     S
C912   H955    1.117   .     S
C912   C1351   1.521   1_545 S
C913   H957    1.110   .     S
C913   H958    1.108   .     S
C913   H959    1.108   .     S
C913   C1350   1.521   .     S
C914   C915    1.522   .     S
C914   H961    1.116   .     S
C914   O1004   1.409   .     S
C914   H1398   1.109   .     S
C915   H963    1.110   .     S
C915   H964    1.110   .     S
C915   H1403   1.110   .     S
C916   H969    1.107   .     S
C916   H968    1.104   .     S
C916   O1007   1.417   .     S
C916   C1209   1.522   1_455 S
C917   H972    1.111   .     S
C917   H971    1.106   .     S
C917   C1062   1.522   .     S
C917   H1116   1.110   .     S
C918   O1009   1.417   .     S
C918   H974    1.110   .     S
C918   C919    1.525   .     S
C918   H975    1.118   .     S
C919   H976    1.109   .     S
C919   H978    1.111   .     S
C919   H1123   1.111   .     S
C920   H980    1.110   .     S
C920   H979    1.114   .     S
C920   C922    1.522   .     S
C920   O1010   1.416   .     S
C921   N995    1.374   .     A
C921   O1007   1.385   .     S
C922   H981    1.110   .     S
C922   H983    1.110   .     S
C922   H982    1.108   .     S
C923   H985    1.106   .     S
C923   C924    1.523   .     S
C923   O1011   1.417   .     S
C923   H986    1.116   .     S
C924   H988    1.110   .     S
C924   H987    1.110   .     S
C924   H989    1.110   .     S
C925   O1009   1.380   .     S
C925   N996    1.368   .     A
C926   O1010   1.389   .     S
C926   C928    1.424   .     A
C926   N995    1.373   .     A
C927   O1011   1.383   .     S
C927   N996    1.366   .     A
C928   O1012   1.381   .     S
H929   C1029   1.082   .     S
H931   C1486   1.111   1_545 S
H932   C1340   1.111   1_545 S
H940   C1176   1.087   1_455 S
H951   C1336   1.108   .     S
H960   C1352   1.109   1_545 S
H965   C1353   1.110   1_545 S
H966   O129    0.991   1_556 S
H970   C1209   1.110   1_455 S
H973   C1338   1.110   1_545 S
H977   C1211   1.111   1_455 S
H984   C1046   1.106   .     S
H990   O1012   0.990   .     S
H991   O1013   0.988   .     S
H993   C1339   1.111   1_545 S
N995   Zn1022  2.016   .     S
N996   Zn1021  2.016   .     S
O997   Zn1021  2.014   .     S
O1006  H91     0.988   1_556 S
O1008  Zn1022  2.014   .     S
O1014  Zn1022  2.013   .     S
O1015  Zn1021  2.013   .     S
O1016  Zn1021  1.970   .     S
O1017  Zn1022  1.970   .     S
O1018  Zn1022  1.989   .     S
O1019  Zn1021  1.989   .     S
C1023  O1143   1.294   .     A
C1023  C1036   1.455   .     S
C1023  O1160   1.295   .     A
C1024  C1026   1.423   .     A
C1024  O1159   1.380   .     S
C1024  C1073   1.417   .     A
C1025  C1045   1.419   .     A
C1025  C1074   1.418   .     A
C1026  C1056   1.423   .     A
C1026  C149    1.528   1_556 S
C1027  C1029   1.408   .     S
C1027  O1162   1.277   .     A
C1027  O1164   1.289   .     A
C1028  C1030   1.410   .     S
C1028  O1163   1.279   .     A
C1028  O1165   1.288   .     A
C1030  C1175   1.334   .     S
C1030  H1232   1.087   .     S
C1031  O1166   1.383   .     S
C1031  C1042   1.410   .     A
C1031  C1033   1.381   .     A
C1032  C1043   1.409   .     A
C1032  C1035   1.402   .     A
C1032  O1144   1.385   .     S
C1033  C1036   1.406   .     A
C1033  O1145   1.382   .     S
C1034  C1037   1.461   .     S
C1034  O1161   1.292   .     A
C1034  O1154   1.299   .     A
C1035  O1146   1.385   .     S
C1035  C1037   1.412   .     A
C1036  C1038   1.409   .     A
C1037  C1039   1.409   .     A
C1038  O1147   1.384   .     S
C1038  C1040   1.398   .     A
C1039  O1148   1.382   .     S
C1039  C1041   1.383   .     A
C1040  C1042   1.409   .     A
C1040  O1149   1.384   .     S
C1041  C1043   1.405   .     A
C1041  O1150   1.384   .     S
C1042  C1481   1.460   1_545 S
C1043  C1480   1.460   .     S
C1044  H1108   1.114   .     S
C1044  O1166   1.408   .     S
C1044  C1484   1.514   1_545 S
C1044  H1535   1.108   1_545 S
C1045  C1067   1.424   .     A
C1045  O1151   1.378   .     S
C1046  H1138   1.108   .     S
C1046  C1482   1.514   .     S
C1046  H1557   1.110   .     S
C1047  H1140   1.113   .     S
C1047  C1048   1.520   .     S
C1047  O1144   1.408   .     S
C1047  H1577   1.111   .     S
C1048  H1076   1.111   .     S
C1048  H1369   1.111   .     S
C1048  H1516   1.111   .     S
C1049  H1079   1.114   .     S
C1049  O1145   1.418   .     S
C1049  H1080   1.112   .     S
C1049  C1050   1.519   .     S
C1050  H1083   1.110   .     S
C1050  H1082   1.107   .     S
C1050  H1081   1.111   .     S
C1051  H1085   1.111   .     S
C1051  O1146   1.411   .     S
C1051  C1052   1.520   .     S
C1051  H1084   1.106   .     S
C1052  H1089   1.109   .     S
C1052  H1088   1.109   .     S
C1052  H1087   1.111   .     S
C1053  H1090   1.114   .     S
C1053  O1147   1.413   .     S
C1053  C1054   1.518   .     S
C1053  H1091   1.113   .     S
C1054  H1094   1.109   .     S
C1054  H1093   1.108   .     S
C1054  H1092   1.111   .     S
C1055  H1095   1.111   .     S
C1055  O1148   1.420   .     S
C1055  C1057   1.522   .     S
C1055  H1096   1.118   .     S
C1056  C1071   1.412   .     A
C1056  O1152   1.380   .     S
C1057  H1098   1.110   .     S
C1057  H1100   1.109   .     S
C1057  H1099   1.107   .     S
C1058  H1102   1.111   .     S
C1058  O1149   1.416   .     S
C1058  H1101   1.117   .     S
C1058  C1497   1.521   1_545 S
C1059  H1103   1.110   .     S
C1059  H1104   1.108   .     S
C1059  H1105   1.108   .     S
C1059  C1496   1.521   .     S
C1060  C1061   1.522   .     S
C1060  H1107   1.116   .     S
C1060  O1150   1.409   .     S
C1060  H1544   1.109   .     S
C1061  H1109   1.110   .     S
C1061  H1110   1.110   .     S
C1061  H1549   1.110   .     S
C1062  H1115   1.107   .     S
C1062  H1114   1.104   .     S
C1062  O1153   1.417   .     S
C1063  H1118   1.111   .     S
C1063  H1117   1.106   .     S
C1063  C1208   1.522   .     S
C1063  H1262   1.110   .     S
C1064  O1155   1.417   .     S
C1064  H1120   1.110   .     S
C1064  C1065   1.525   .     S
C1064  H1121   1.118   .     S
C1065  H1122   1.109   .     S
C1065  H1124   1.111   .     S
C1065  H1269   1.111   .     S
C1066  H1126   1.110   .     S
C1066  H1125   1.114   .     S
C1066  C1068   1.522   .     S
C1066  O1156   1.416   .     S
C1067  N1141   1.374   .     A
C1067  O1153   1.385   .     S
C1068  H1127   1.110   .     S
C1068  H1129   1.110   .     S
C1068  H1128   1.108   .     S
C1069  H1131   1.106   .     S
C1069  C1070   1.523   .     S
C1069  O1157   1.417   .     S
C1069  H1132   1.116   .     S
C1070  H1134   1.110   .     S
C1070  H1133   1.110   .     S
C1070  H1135   1.110   .     S
C1071  O1155   1.380   .     S
C1071  N1142   1.368   .     A
C1072  O1156   1.389   .     S
C1072  C1074   1.424   .     A
C1072  N1141   1.373   .     A
C1073  O1157   1.383   .     S
C1073  N1142   1.366   .     A
C1074  O1158   1.381   .     S
H1075  C1175   1.082   .     S
H1077  C1632   1.111   1_545 S
H1078  C1486   1.111   1_545 S
H1097  C1482   1.108   .     S
H1106  C1498   1.109   1_545 S
H1111  C1499   1.110   1_545 S
H1112  O275    0.991   1_556 S
H1119  C1484   1.110   1_545 S
H1130  C1192   1.106   .     S
H1136  O1158   0.990   .     S
H1137  O1159   0.988   .     S
H1139  C1485   1.111   1_545 S
N1141  Zn1168  2.016   .     S
N1142  Zn1167  2.016   .     S
O1143  Zn1167  2.014   .     S
O1152  H237    0.988   1_556 S
O1154  Zn1168  2.014   .     S
O1160  Zn1168  2.013   .     S
O1161  Zn1167  2.013   .     S
O1162  Zn1167  1.970   .     S
O1163  Zn1168  1.970   .     S
O1164  Zn1168  1.989   .     S
O1165  Zn1167  1.989   .     S
C1169  O1289   1.294   .     A
C1169  C1182   1.455   .     S
C1169  O1306   1.295   .     A
C1170  C1172   1.423   .     A
C1170  O1305   1.380   .     S
C1170  C1219   1.417   .     A
C1171  C1191   1.419   .     A
C1171  C1220   1.418   .     A
C1172  C1202   1.423   .     A
C1172  C295    1.528   1_556 S
C1173  C1175   1.408   .     S
C1173  O1308   1.277   .     A
C1173  O1310   1.289   .     A
C1174  C1176   1.410   .     S
C1174  O1309   1.279   .     A
C1174  O1311   1.288   .     A
C1176  C883    1.334   1_655 S
C1176  H940    1.087   1_655 S
C1177  O1312   1.383   .     S
C1177  C1188   1.410   .     A
C1177  C1179   1.381   .     A
C1178  C1189   1.409   .     A
C1178  C1181   1.402   .     A
C1178  O1290   1.385   .     S
C1179  C1182   1.406   .     A
C1179  O1291   1.382   .     S
C1180  C1183   1.461   .     S
C1180  O1307   1.292   .     A
C1180  O1300   1.299   .     A
C1181  O1292   1.385   .     S
C1181  C1183   1.412   .     A
C1182  C1184   1.409   .     A
C1183  C1185   1.409   .     A
C1184  O1293   1.384   .     S
C1184  C1186   1.398   .     A
C1185  O1294   1.382   .     S
C1185  C1187   1.383   .     A
C1186  C1188   1.409   .     A
C1186  O1295   1.384   .     S
C1187  C1189   1.405   .     A
C1187  O1296   1.384   .     S
C1188  C1627   1.460   1_545 S
C1189  C1626   1.460   .     S
C1190  H1254   1.114   .     S
C1190  O1312   1.408   .     S
C1190  C1630   1.514   1_545 S
C1190  H1681   1.108   1_545 S
C1191  C1213   1.424   .     A
C1191  O1297   1.378   .     S
C1192  H1284   1.108   .     S
C1192  C1628   1.514   .     S
C1192  H1703   1.110   .     S
C1193  H1286   1.113   .     S
C1193  C1194   1.520   .     S
C1193  O1290   1.408   .     S
C1193  H1723   1.111   .     S
C1194  H1222   1.111   .     S
C1194  H1515   1.111   .     S
C1194  H1662   1.111   .     S
C1195  H1225   1.114   .     S
C1195  O1291   1.418   .     S
C1195  H1226   1.112   .     S
C1195  C1196   1.519   .     S
C1196  H1229   1.110   .     S
C1196  H1228   1.107   .     S
C1196  H1227   1.111   .     S
C1197  H1231   1.111   .     S
C1197  O1292   1.411   .     S
C1197  C1198   1.520   .     S
C1197  H1230   1.106   .     S
C1198  H1235   1.109   .     S
C1198  H1234   1.109   .     S
C1198  H1233   1.111   .     S
C1199  H1236   1.114   .     S
C1199  O1293   1.413   .     S
C1199  C1200   1.518   .     S
C1199  H1237   1.113   .     S
C1200  H1240   1.109   .     S
C1200  H1239   1.108   .     S
C1200  H1238   1.111   .     S
C1201  H1241   1.111   .     S
C1201  O1294   1.420   .     S
C1201  C1203   1.522   .     S
C1201  H1242   1.118   .     S
C1202  C1217   1.412   .     A
C1202  O1298   1.380   .     S
C1203  H1244   1.110   .     S
C1203  H1246   1.109   .     S
C1203  H1245   1.107   .     S
C1204  H1248   1.111   .     S
C1204  O1295   1.416   .     S
C1204  H1247   1.117   .     S
C1204  C1643   1.521   1_545 S
C1205  H1249   1.110   .     S
C1205  H1250   1.108   .     S
C1205  H1251   1.108   .     S
C1205  C1642   1.521   .     S
C1206  C1207   1.522   .     S
C1206  H1253   1.116   .     S
C1206  O1296   1.409   .     S
C1206  H1690   1.109   .     S
C1207  H1255   1.110   .     S
C1207  H1256   1.110   .     S
C1207  H1695   1.110   .     S
C1208  H1261   1.107   .     S
C1208  H1260   1.104   .     S
C1208  O1299   1.417   .     S
C1209  H1264   1.111   .     S
C1209  H1263   1.106   .     S
C1209  C916    1.522   1_655 S
C1209  H970    1.110   1_655 S
C1210  O1301   1.417   .     S
C1210  H1266   1.110   .     S
C1210  C1211   1.525   .     S
C1210  H1267   1.118   .     S
C1211  H1268   1.109   .     S
C1211  H1270   1.111   .     S
C1211  H977    1.111   1_655 S
C1212  H1272   1.110   .     S
C1212  H1271   1.114   .     S
C1212  C1214   1.522   .     S
C1212  O1302   1.416   .     S
C1213  N1287   1.374   .     A
C1213  O1299   1.385   .     S
C1214  H1273   1.110   .     S
C1214  H1275   1.110   .     S
C1214  H1274   1.108   .     S
C1215  H1277   1.106   .     S
C1215  C1216   1.523   .     S
C1215  O1303   1.417   .     S
C1215  H1278   1.116   .     S
C1216  H1280   1.110   .     S
C1216  H1279   1.110   .     S
C1216  H1281   1.110   .     S
C1217  O1301   1.380   .     S
C1217  N1288   1.368   .     A
C1218  O1302   1.389   .     S
C1218  C1220   1.424   .     A
C1218  N1287   1.373   .     A
C1219  O1303   1.383   .     S
C1219  N1288   1.366   .     A
C1220  O1304   1.381   .     S
H1221  C883    1.082   1_655 S
H1223  C1340   1.111   1_645 S
H1224  C1632   1.111   1_545 S
H1243  C1628   1.108   .     S
H1252  C1644   1.109   1_545 S
H1257  C1645   1.110   1_545 S
H1258  O421    0.991   1_556 S
H1265  C1630   1.110   1_545 S
H1276  C900    1.106   1_655 S
H1282  O1304   0.990   .     S
H1283  O1305   0.988   .     S
H1285  C1631   1.111   1_545 S
N1287  Zn1314  2.016   .     S
N1288  Zn1313  2.016   .     S
O1289  Zn1313  2.014   .     S
O1298  H383    0.988   1_556 S
O1300  Zn1314  2.014   .     S
O1306  Zn1314  2.013   .     S
O1307  Zn1313  2.013   .     S
O1308  Zn1313  1.970   .     S
O1309  Zn1314  1.970   .     S
O1310  Zn1314  1.989   .     S
O1311  Zn1313  1.989   .     S
C1315  O1435   1.294   .     A
C1315  C1328   1.455   .     S
C1315  O1452   1.295   .     A
C1316  C1318   1.423   .     A
C1316  O1451   1.380   .     S
C1316  C1365   1.417   .     A
C1317  C1337   1.419   .     A
C1317  C1366   1.418   .     A
C1318  C1348   1.423   .     A
C1318  C441    1.528   1_556 S
C1319  C1321   1.408   .     S
C1319  O1454   1.277   .     A
C1319  O1456   1.289   .     A
C1320  C1322   1.410   .     S
C1320  O1455   1.279   .     A
C1320  O1457   1.288   .     A
C1321  C1614   1.334   1_455 S
C1321  H1659   1.082   1_455 S
C1322  C1467   1.334   .     S
C1322  H1524   1.087   .     S
C1323  O1458   1.383   .     S
C1323  C1334   1.410   .     A
C1323  C1325   1.381   .     A
C1324  C1335   1.409   .     A
C1324  C1327   1.402   .     A
C1324  O1436   1.385   .     S
C1325  C1328   1.406   .     A
C1325  O1437   1.382   .     S
C1326  C1329   1.461   .     S
C1326  O1453   1.292   .     A
C1326  O1446   1.299   .     A
C1327  O1438   1.385   .     S
C1327  C1329   1.412   .     A
C1328  C1330   1.409   .     A
C1329  C1331   1.409   .     A
C1330  O1439   1.384   .     S
C1330  C1332   1.398   .     A
C1331  O1440   1.382   .     S
C1331  C1333   1.383   .     A
C1332  C1334   1.409   .     A
C1332  O1441   1.384   .     S
C1333  C1335   1.405   .     A
C1333  O1442   1.384   .     S
C1335  C896    1.460   1_565 S
C1336  H1400   1.114   .     S
C1336  O1458   1.408   .     S
C1337  C1359   1.424   .     A
C1337  O1443   1.378   .     S
C1338  H1430   1.108   .     S
C1338  C898    1.514   1_565 S
C1338  H973    1.110   1_565 S
C1338  H1714   1.106   1_455 S
C1339  H1432   1.113   .     S
C1339  C1340   1.520   .     S
C1339  O1436   1.408   .     S
C1339  H993    1.111   1_565 S
C1340  H1368   1.111   .     S
C1340  H1223   1.111   1_465 S
C1340  H932    1.111   1_565 S
C1341  H1371   1.114   .     S
C1341  O1437   1.418   .     S
C1341  H1372   1.112   .     S
C1341  C1342   1.519   .     S
C1342  H1375   1.110   .     S
C1342  H1374   1.107   .     S
C1342  H1373   1.111   .     S
C1343  H1377   1.111   .     S
C1343  O1438   1.411   .     S
C1343  C1344   1.520   .     S
C1343  H1376   1.106   .     S
C1344  H1381   1.109   .     S
C1344  H1380   1.109   .     S
C1344  H1379   1.111   .     S
C1345  H1382   1.114   .     S
C1345  O1439   1.413   .     S
C1345  C1346   1.518   .     S
C1345  H1383   1.113   .     S
C1346  H1386   1.109   .     S
C1346  H1385   1.108   .     S
C1346  H1384   1.111   .     S
C1347  H1387   1.111   .     S
C1347  O1440   1.420   .     S
C1347  C1349   1.522   .     S
C1347  H1388   1.118   .     S
C1348  C1363   1.412   .     A
C1348  O1444   1.380   .     S
C1349  H1390   1.110   .     S
C1349  H1392   1.109   .     S
C1349  H1391   1.107   .     S
C1350  H1394   1.111   .     S
C1350  O1441   1.416   .     S
C1350  H1393   1.117   .     S
C1351  H1395   1.110   .     S
C1351  H1396   1.108   .     S
C1351  H1397   1.108   .     S
C1351  C912    1.521   1_565 S
C1352  C1353   1.522   .     S
C1352  H1399   1.116   .     S
C1352  O1442   1.409   .     S
C1352  H960    1.109   1_565 S
C1353  H1401   1.110   .     S
C1353  H1402   1.110   .     S
C1353  H965    1.110   1_565 S
C1354  H1407   1.107   .     S
C1354  H1406   1.104   .     S
C1354  O1445   1.417   .     S
C1354  C1647   1.522   1_455 S
C1355  H1410   1.111   .     S
C1355  H1409   1.106   .     S
C1355  C1500   1.522   .     S
C1355  H1554   1.110   .     S
C1356  O1447   1.417   .     S
C1356  H1412   1.110   .     S
C1356  C1357   1.525   .     S
C1356  H1413   1.118   .     S
C1357  H1414   1.109   .     S
C1357  H1416   1.111   .     S
C1357  H1561   1.111   .     S
C1358  H1418   1.110   .     S
C1358  H1417   1.114   .     S
C1358  C1360   1.522   .     S
C1358  O1448   1.416   .     S
C1359  N1433   1.374   .     A
C1359  O1445   1.385   .     S
C1360  H1419   1.110   .     S
C1360  H1421   1.110   .     S
C1360  H1420   1.108   .     S
C1361  H1423   1.106   .     S
C1361  C1362   1.523   .     S
C1361  O1449   1.417   .     S
C1361  H1424   1.116   .     S
C1362  H1426   1.110   .     S
C1362  H1425   1.110   .     S
C1362  H1427   1.110   .     S
C1363  O1447   1.380   .     S
C1363  N1434   1.368   .     A
C1364  O1448   1.389   .     S
C1364  C1366   1.424   .     A
C1364  N1433   1.373   .     A
C1365  O1449   1.383   .     S
C1365  N1434   1.366   .     A
C1366  O1450   1.381   .     S
H1367  C1467   1.082   .     S
H1378  C1614   1.087   1_455 S
H1389  C898    1.108   1_565 S
H1404  O567    0.991   1_556 S
H1408  C1647   1.110   1_455 S
H1415  C1649   1.111   1_455 S
H1422  C1484   1.106   .     S
H1428  O1450   0.990   .     S
H1429  O1451   0.988   .     S
N1433  Zn1460  2.016   .     S
N1434  Zn1459  2.016   .     S
O1435  Zn1459  2.014   .     S
O1444  H529    0.988   1_556 S
O1446  Zn1460  2.014   .     S
O1452  Zn1460  2.013   .     S
O1453  Zn1459  2.013   .     S
O1454  Zn1459  1.970   .     S
O1455  Zn1460  1.970   .     S
O1456  Zn1460  1.989   .     S
O1457  Zn1459  1.989   .     S
C1461  O1581   1.294   .     A
C1461  C1474   1.455   .     S
C1461  O1598   1.295   .     A
C1462  C1464   1.423   .     A
C1462  O1597   1.380   .     S
C1462  C1511   1.417   .     A
C1463  C1483   1.419   .     A
C1463  C1512   1.418   .     A
C1464  C1494   1.423   .     A
C1464  C587    1.528   1_556 S
C1465  C1467   1.408   .     S
C1465  O1600   1.277   .     A
C1465  O1602   1.289   .     A
C1466  C1468   1.410   .     S
C1466  O1601   1.279   .     A
C1466  O1603   1.288   .     A
C1468  C1613   1.334   .     S
C1468  H1670   1.087   .     S
C1469  O1604   1.383   .     S
C1469  C1480   1.410   .     A
C1469  C1471   1.381   .     A
C1470  C1481   1.409   .     A
C1470  C1473   1.402   .     A
C1470  O1582   1.385   .     S
C1471  C1474   1.406   .     A
C1471  O1583   1.382   .     S
C1472  C1475   1.461   .     S
C1472  O1599   1.292   .     A
C1472  O1592   1.299   .     A
C1473  O1584   1.385   .     S
C1473  C1475   1.412   .     A
C1474  C1476   1.409   .     A
C1475  C1477   1.409   .     A
C1476  O1585   1.384   .     S
C1476  C1478   1.398   .     A
C1477  O1586   1.382   .     S
C1477  C1479   1.383   .     A
C1478  C1480   1.409   .     A
C1478  O1587   1.384   .     S
C1479  C1481   1.405   .     A
C1479  O1588   1.384   .     S
C1481  C1042   1.460   1_565 S
C1482  H1546   1.114   .     S
C1482  O1604   1.408   .     S
C1483  C1505   1.424   .     A
C1483  O1589   1.378   .     S
C1484  H1576   1.108   .     S
C1484  C1044   1.514   1_565 S
C1484  H1119   1.110   1_565 S
C1485  H1578   1.113   .     S
C1485  C1486   1.520   .     S
C1485  O1582   1.408   .     S
C1485  H1139   1.111   1_565 S
C1486  H1514   1.111   .     S
C1486  H931    1.111   1_565 S
C1486  H1078   1.111   1_565 S
C1487  H1517   1.114   .     S
C1487  O1583   1.418   .     S
C1487  H1518   1.112   .     S
C1487  C1488   1.519   .     S
C1488  H1521   1.110   .     S
C1488  H1520   1.107   .     S
C1488  H1519   1.111   .     S
C1489  H1523   1.111   .     S
C1489  O1584   1.411   .     S
C1489  C1490   1.520   .     S
C1489  H1522   1.106   .     S
C1490  H1527   1.109   .     S
C1490  H1526   1.109   .     S
C1490  H1525   1.111   .     S
C1491  H1528   1.114   .     S
C1491  O1585   1.413   .     S
C1491  C1492   1.518   .     S
C1491  H1529   1.113   .     S
C1492  H1532   1.109   .     S
C1492  H1531   1.108   .     S
C1492  H1530   1.111   .     S
C1493  H1533   1.111   .     S
C1493  O1586   1.420   .     S
C1493  C1495   1.522   .     S
C1493  H1534   1.118   .     S
C1494  C1509   1.412   .     A
C1494  O1590   1.380   .     S
C1495  H1536   1.110   .     S
C1495  H1538   1.109   .     S
C1495  H1537   1.107   .     S
C1496  H1540   1.111   .     S
C1496  O1587   1.416   .     S
C1496  H1539   1.117   .     S
C1497  H1541   1.110   .     S
C1497  H1542   1.108   .     S
C1497  H1543   1.108   .     S
C1497  C1058   1.521   1_565 S
C1498  C1499   1.522   .     S
C1498  H1545   1.116   .     S
C1498  O1588   1.409   .     S
C1498  H1106   1.109   1_565 S
C1499  H1547   1.110   .     S
C1499  H1548   1.110   .     S
C1499  H1111   1.110   1_565 S
C1500  H1553   1.107   .     S
C1500  H1552   1.104   .     S
C1500  O1591   1.417   .     S
C1501  H1556   1.111   .     S
C1501  H1555   1.106   .     S
C1501  C1646   1.522   .     S
C1501  H1700   1.110   .     S
C1502  O1593   1.417   .     S
C1502  H1558   1.110   .     S
C1502  C1503   1.525   .     S
C1502  H1559   1.118   .     S
C1503  H1560   1.109   .     S
C1503  H1562   1.111   .     S
C1503  H1707   1.111   .     S
C1504  H1564   1.110   .     S
C1504  H1563   1.114   .     S
C1504  C1506   1.522   .     S
C1504  O1594   1.416   .     S
C1505  N1579   1.374   .     A
C1505  O1591   1.385   .     S
C1506  H1565   1.110   .     S
C1506  H1567   1.110   .     S
C1506  H1566   1.108   .     S
C1507  H1569   1.106   .     S
C1507  C1508   1.523   .     S
C1507  O1595   1.417   .     S
C1507  H1570   1.116   .     S
C1508  H1572   1.110   .     S
C1508  H1571   1.110   .     S
C1508  H1573   1.110   .     S
C1509  O1593   1.380   .     S
C1509  N1580   1.368   .     A
C1510  O1594   1.389   .     S
C1510  C1512   1.424   .     A
C1510  N1579   1.373   .     A
C1511  O1595   1.383   .     S
C1511  N1580   1.366   .     A
C1512  O1596   1.381   .     S
H1513  C1613   1.082   .     S
H1535  C1044   1.108   1_565 S
H1550  O713    0.991   1_556 S
H1568  C1630   1.106   .     S
H1574  O1596   0.990   .     S
H1575  O1597   0.988   .     S
N1579  Zn1606  2.016   .     S
N1580  Zn1605  2.016   .     S
O1581  Zn1605  2.014   .     S
O1590  H675    0.988   1_556 S
O1592  Zn1606  2.014   .     S
O1598  Zn1606  2.013   .     S
O1599  Zn1605  2.013   .     S
O1600  Zn1605  1.970   .     S
O1601  Zn1606  1.970   .     S
O1602  Zn1606  1.989   .     S
O1603  Zn1605  1.989   .     S
C1607  O1727   1.294   .     A
C1607  C1620   1.455   .     S
C1607  O1744   1.295   .     A
C1608  C1610   1.423   .     A
C1608  O1743   1.380   .     S
C1608  C1657   1.417   .     A
C1609  C1629   1.419   .     A
C1609  C1658   1.418   .     A
C1610  C1640   1.423   .     A
C1610  C733    1.528   1_556 S
C1611  C1613   1.408   .     S
C1611  O1746   1.277   .     A
C1611  O1748   1.289   .     A
C1612  C1614   1.410   .     S
C1612  O1747   1.279   .     A
C1612  O1749   1.288   .     A
C1614  C1321   1.334   1_655 S
C1614  H1378   1.087   1_655 S
C1615  O1750   1.383   .     S
C1615  C1626   1.410   .     A
C1615  C1617   1.381   .     A
C1616  C1627   1.409   .     A
C1616  C1619   1.402   .     A
C1616  O1728   1.385   .     S
C1617  C1620   1.406   .     A
C1617  O1729   1.382   .     S
C1618  C1621   1.461   .     S
C1618  O1745   1.292   .     A
C1618  O1738   1.299   .     A
C1619  O1730   1.385   .     S
C1619  C1621   1.412   .     A
C1620  C1622   1.409   .     A
C1621  C1623   1.409   .     A
C1622  O1731   1.384   .     S
C1622  C1624   1.398   .     A
C1623  O1732   1.382   .     S
C1623  C1625   1.383   .     A
C1624  C1626   1.409   .     A
C1624  O1733   1.384   .     S
C1625  C1627   1.405   .     A
C1625  O1734   1.384   .     S
C1627  C1188   1.460   1_565 S
C1628  H1692   1.114   .     S
C1628  O1750   1.408   .     S
C1629  C1651   1.424   .     A
C1629  O1735   1.378   .     S
C1630  H1722   1.108   .     S
C1630  C1190   1.514   1_565 S
C1630  H1265   1.110   1_565 S
C1631  H1724   1.113   .     S
C1631  C1632   1.520   .     S
C1631  O1728   1.408   .     S
C1631  H1285   1.111   1_565 S
C1632  H1660   1.111   .     S
C1632  H1077   1.111   1_565 S
C1632  H1224   1.111   1_565 S
C1633  H1663   1.114   .     S
C1633  O1729   1.418   .     S
C1633  H1664   1.112   .     S
C1633  C1634   1.519   .     S
C1634  H1667   1.110   .     S
C1634  H1666   1.107   .     S
C1634  H1665   1.111   .     S
C1635  H1669   1.111   .     S
C1635  O1730   1.411   .     S
C1635  C1636   1.520   .     S
C1635  H1668   1.106   .     S
C1636  H1673   1.109   .     S
C1636  H1672   1.109   .     S
C1636  H1671   1.111   .     S
C1637  H1674   1.114   .     S
C1637  O1731   1.413   .     S
C1637  C1638   1.518   .     S
C1637  H1675   1.113   .     S
C1638  H1678   1.109   .     S
C1638  H1677   1.108   .     S
C1638  H1676   1.111   .     S
C1639  H1679   1.111   .     S
C1639  O1732   1.420   .     S
C1639  C1641   1.522   .     S
C1639  H1680   1.118   .     S
C1640  C1655   1.412   .     A
C1640  O1736   1.380   .     S
C1641  H1682   1.110   .     S
C1641  H1684   1.109   .     S
C1641  H1683   1.107   .     S
C1642  H1686   1.111   .     S
C1642  O1733   1.416   .     S
C1642  H1685   1.117   .     S
C1643  H1687   1.110   .     S
C1643  H1688   1.108   .     S
C1643  H1689   1.108   .     S
C1643  C1204   1.521   1_565 S
C1644  C1645   1.522   .     S
C1644  H1691   1.116   .     S
C1644  O1734   1.409   .     S
C1644  H1252   1.109   1_565 S
C1645  H1693   1.110   .     S
C1645  H1694   1.110   .     S
C1645  H1257   1.110   1_565 S
C1646  H1699   1.107   .     S
C1646  H1698   1.104   .     S
C1646  O1737   1.417   .     S
C1647  H1702   1.111   .     S
C1647  H1701   1.106   .     S
C1647  C1354   1.522   1_655 S
C1647  H1408   1.110   1_655 S
C1648  O1739   1.417   .     S
C1648  H1704   1.110   .     S
C1648  C1649   1.525   .     S
C1648  H1705   1.118   .     S
C1649  H1706   1.109   .     S
C1649  H1708   1.111   .     S
C1649  H1415   1.111   1_655 S
C1650  H1710   1.110   .     S
C1650  H1709   1.114   .     S
C1650  C1652   1.522   .     S
C1650  O1740   1.416   .     S
C1651  N1725   1.374   .     A
C1651  O1737   1.385   .     S
C1652  H1711   1.110   .     S
C1652  H1713   1.110   .     S
C1652  H1712   1.108   .     S
C1653  H1715   1.106   .     S
C1653  C1654   1.523   .     S
C1653  O1741   1.417   .     S
C1653  H1716   1.116   .     S
C1654  H1718   1.110   .     S
C1654  H1717   1.110   .     S
C1654  H1719   1.110   .     S
C1655  O1739   1.380   .     S
C1655  N1726   1.368   .     A
C1656  O1740   1.389   .     S
C1656  C1658   1.424   .     A
C1656  N1725   1.373   .     A
C1657  O1741   1.383   .     S
C1657  N1726   1.366   .     A
C1658  O1742   1.381   .     S
H1659  C1321   1.082   1_655 S
H1661  C902    1.111   1_655 S
H1681  C1190   1.108   1_565 S
H1696  O859    0.991   1_556 S
H1714  C1338   1.106   1_655 S
H1720  O1742   0.990   .     S
H1721  O1743   0.988   .     S
N1725  Zn1752  2.016   .     S
N1726  Zn1751  2.016   .     S
O1727  Zn1751  2.014   .     S
O1736  H821    0.988   1_556 S
O1738  Zn1752  2.014   .     S
O1744  Zn1752  2.013   .     S
O1745  Zn1751  2.013   .     S
O1746  Zn1751  1.970   .     S
O1747  Zn1752  1.970   .     S
O1748  Zn1752  1.989   .     S
O1749  Zn1751  1.989   .     S
