data_str_m3_o10_o18_pcu_sym.47
_audit_creation_date              2020-01-03
_audit_creation_method            'Materials Studio'
_symmetry_space_group_name_H-M    'P1'
_symmetry_Int_Tables_number       1
_symmetry_cell_setting            triclinic
loop_
_symmetry_equiv_pos_as_xyz
  x,y,z
_cell_length_a                    23.7833
_cell_length_b                    26.1200
_cell_length_c                    27.6168
_cell_angle_alpha                 95.0262
_cell_angle_beta                  91.8075
_cell_angle_gamma                 94.6656
loop_
_atom_site_label
_atom_site_type_symbol
_atom_site_fract_x
_atom_site_fract_y
_atom_site_fract_z
_atom_site_U_iso_or_equiv
_atom_site_adp_type
_atom_site_occupancy
C1     C     0.01504   0.26483   0.24872   0.00000  Uiso   1.00
C2     C     0.31245   0.16036   0.15882   0.00000  Uiso   1.00
C3     C     0.03265   0.18028   0.39552   0.00000  Uiso   1.00
C4     C     0.30171   0.14994   0.10592   0.00000  Uiso   1.00
C5     C     0.01868   0.20777   0.47966   0.00000  Uiso   1.00
C6     C     0.31175   0.10469   0.02700   0.00000  Uiso   1.00
C7     C     0.00343   0.21106   0.43029   0.00000  Uiso   1.00
C8     C     0.32854   0.11296   0.07656   0.00000  Uiso   1.00
C9     C     0.07972   0.15632   0.41215   0.00000  Uiso   1.00
C10    C     0.25721   0.17355   0.08605   0.00000  Uiso   1.00
C11    C     0.10412   0.16798   0.45934   0.00000  Uiso   1.00
C12    C     0.31828   0.06850   0.25111   0.00000  Uiso   1.00
C13    C     0.23181   0.15574   0.04059   0.00000  Uiso   1.00
C14    C     0.06995   0.19149   0.49347   0.00000  Uiso   1.00
C15    C     0.26322   0.12500   0.00939   0.00000  Uiso   1.00
C16    C     0.15929   0.15573   0.47455   0.00000  Uiso   1.00
C17    C     0.17746   0.16831   0.02490   0.00000  Uiso   1.00
C18    C     0.03735   0.03597   0.08154   0.00000  Uiso   1.00
C19    C     0.08031   0.02276   0.04310   0.00000  Uiso   1.00
C20    C     0.28227   0.27871   0.45720   0.00000  Uiso   1.00
C21    C     0.25393   0.32557   0.44404   0.00000  Uiso   1.00
C22    C     0.15328   0.25281   0.12175   0.00000  Uiso   1.00
C23    C     0.13948   0.19062   0.05815   0.00000  Uiso   1.00
C24    C     0.17412   0.26297   0.17427   0.00000  Uiso   1.00
C25    C     0.18922   0.07762   0.37194   0.00000  Uiso   1.00
C26    C     0.16041   0.06975   0.32163   0.00000  Uiso   1.00
C27    C     0.14392   0.08479   0.18270   0.00000  Uiso   1.00
C28    C     0.17636   0.06287   0.14032   0.00000  Uiso   1.00
C29    C     0.17405   0.25409   0.30552   0.00000  Uiso   1.00
C30    C     0.21877   0.27315   0.34306   0.00000  Uiso   1.00
C31    C     0.19766   0.13298   0.44181   0.00000  Uiso   1.00
C32    C     0.08622   0.19973   0.04189   0.00000  Uiso   1.00
C33    C     0.24850   0.11776   0.46024   0.00000  Uiso   1.00
C34    C     0.02264   0.31945   0.24796   0.00000  Uiso   1.00
C35    C     0.31067   0.01387   0.25159   0.00000  Uiso   1.00
C36    C     0.02121   0.17369   0.34163   0.00000  Uiso   1.00
H37    H     0.05704   0.21455   0.06792   0.00000  Uiso   1.00
H38    H     0.04806   0.01666   0.11447   0.00000  Uiso   1.00
H39    H     0.11860   0.05011   0.04768   0.00000  Uiso   1.00
H40    H     0.09264   0.31639   0.04606   0.00000  Uiso   1.00
H41    H     0.06257   0.02410   0.00578   0.00000  Uiso   1.00
H42    H     0.32071   0.29594   0.47858   0.00000  Uiso   1.00
H43    H     0.25294   0.25727   0.48045   0.00000  Uiso   1.00
H44    H     0.25429   0.01925   0.47721   0.00000  Uiso   1.00
H45    H     0.27766   0.01116   0.41566   0.00000  Uiso   1.00
H46    H     0.20863   0.31626   0.43406   0.00000  Uiso   1.00
H47    H     0.18261   0.27499   0.09896   0.00000  Uiso   1.00
H48    H     0.27822   0.10154   0.43564   0.00000  Uiso   1.00
H49    H     0.11077   0.26740   0.11952   0.00000  Uiso   1.00
H50    H     0.21805   0.25252   0.17875   0.00000  Uiso   1.00
H51    H     0.17273   0.30415   0.18723   0.00000  Uiso   1.00
H52    H     0.14598   0.23975   0.19645   0.00000  Uiso   1.00
H53    H     0.16686   0.05014   0.39501   0.00000  Uiso   1.00
H54    H     0.23359   0.06851   0.36736   0.00000  Uiso   1.00
H55    H     0.16103   0.02924   0.30628   0.00000  Uiso   1.00
H56    H     0.11582   0.07881   0.32241   0.00000  Uiso   1.00
H57    H     0.18380   0.09425   0.29744   0.00000  Uiso   1.00
H58    H     0.09843   0.08254   0.17231   0.00000  Uiso   1.00
H59    H     0.24458   0.20684   0.10676   0.00000  Uiso   1.00
H60    H     0.15037   0.06142   0.21396   0.00000  Uiso   1.00
H61    H     0.17744   0.08942   0.11110   0.00000  Uiso   1.00
H62    H     0.22040   0.05787   0.15246   0.00000  Uiso   1.00
H63    H     0.15553   0.02524   0.12554   0.00000  Uiso   1.00
H64    H     0.13372   0.26947   0.31654   0.00000  Uiso   1.00
H65    H     0.18541   0.26948   0.27059   0.00000  Uiso   1.00
H66    H     0.22211   0.31548   0.34738   0.00000  Uiso   1.00
H67    H     0.20618   0.25589   0.37665   0.00000  Uiso   1.00
H68    H     0.26016   0.26049   0.33268   0.00000  Uiso   1.00
H69    H     0.09557   0.12797   0.38748   0.00000  Uiso   1.00
H70    H     0.32631   0.22194   0.00867   0.00000  Uiso   1.00
H71    H     0.00269   0.08229   0.00201   0.00000  Uiso   1.00
H72    H     0.06531   0.00336   0.24452   0.00000  Uiso   1.00
H73    H     0.26800   0.32997   0.25492   0.00000  Uiso   1.00
H74    H     0.32759   0.01877   0.06912   0.00000  Uiso   1.00
N75    N     0.14695   0.15216   0.23739   0.00000  Uiso   1.00
N76    N     0.18638   0.18117   0.26260   0.00000  Uiso   1.00
O77    O     0.29719   0.24631   0.25309   0.00000  Uiso   1.00
O78    O     0.29718   0.24493   0.41658   0.00000  Uiso   1.00
O79    O     0.15103   0.19909   0.10774   0.00000  Uiso   1.00
O80    O     0.18836   0.12952   0.39166   0.00000  Uiso   1.00
O81    O     0.16458   0.13626   0.19346   0.00000  Uiso   1.00
O82    O     0.16778   0.20032   0.30494   0.00000  Uiso   1.00
O83    O     0.03614   0.08702   0.24691   0.00000  Uiso   1.00
O84    O     0.05822   0.23702   0.24501   0.00000  Uiso   1.00
O85    O     0.27512   0.09632   0.25499   0.00000  Uiso   1.00
O86    O     0.30328   0.17397   0.32247   0.00000  Uiso   1.00
O87    O     0.03005   0.15937   0.17753   0.00000  Uiso   1.00
O88    O     0.06431   0.16467   0.31439   0.00000  Uiso   1.00
O89    O     0.26902   0.16866   0.18561   0.00000  Uiso   1.00
O90    O     0.04076   0.08992   0.09527   0.00000  Uiso   1.00
Zn91   Zn    0.27033   0.17287   0.25539   0.00000  Uiso   1.00
Zn92   Zn    0.06300   0.16046   0.24460   0.00000  Uiso   1.00
C93    C     0.34837   0.26483   0.24872   0.00000  Uiso   1.00
C94    C     0.64579   0.16036   0.15882   0.00000  Uiso   1.00
C95    C     0.36598   0.18028   0.39552   0.00000  Uiso   1.00
C96    C     0.63504   0.14994   0.10592   0.00000  Uiso   1.00
C97    C     0.35201   0.20777   0.47966   0.00000  Uiso   1.00
C98    C     0.64509   0.10469   0.02700   0.00000  Uiso   1.00
C99    C     0.33676   0.21106   0.43029   0.00000  Uiso   1.00
C100   C     0.66188   0.11296   0.07656   0.00000  Uiso   1.00
C101   C     0.41306   0.15632   0.41215   0.00000  Uiso   1.00
C102   C     0.59055   0.17355   0.08605   0.00000  Uiso   1.00
C103   C     0.43745   0.16798   0.45934   0.00000  Uiso   1.00
C104   C     0.65161   0.06850   0.25111   0.00000  Uiso   1.00
C105   C     0.56514   0.15574   0.04059   0.00000  Uiso   1.00
C106   C     0.40328   0.19149   0.49347   0.00000  Uiso   1.00
C107   C     0.59655   0.12500   0.00939   0.00000  Uiso   1.00
C108   C     0.49262   0.15573   0.47455   0.00000  Uiso   1.00
C109   C     0.51080   0.16831   0.02490   0.00000  Uiso   1.00
C110   C     0.37069   0.03597   0.08154   0.00000  Uiso   1.00
C111   C     0.41364   0.02276   0.04310   0.00000  Uiso   1.00
C112   C     0.61560   0.27871   0.45720   0.00000  Uiso   1.00
C113   C     0.58727   0.32557   0.44404   0.00000  Uiso   1.00
C114   C     0.48661   0.25281   0.12175   0.00000  Uiso   1.00
C115   C     0.47281   0.19062   0.05815   0.00000  Uiso   1.00
C116   C     0.50745   0.26297   0.17427   0.00000  Uiso   1.00
C117   C     0.52256   0.07762   0.37194   0.00000  Uiso   1.00
C118   C     0.49374   0.06975   0.32163   0.00000  Uiso   1.00
C119   C     0.47725   0.08479   0.18270   0.00000  Uiso   1.00
C120   C     0.50970   0.06287   0.14032   0.00000  Uiso   1.00
C121   C     0.50739   0.25409   0.30552   0.00000  Uiso   1.00
C122   C     0.55210   0.27315   0.34306   0.00000  Uiso   1.00
C123   C     0.53099   0.13298   0.44181   0.00000  Uiso   1.00
C124   C     0.41955   0.19973   0.04189   0.00000  Uiso   1.00
C125   C     0.58184   0.11776   0.46024   0.00000  Uiso   1.00
C126   C     0.35597   0.31945   0.24796   0.00000  Uiso   1.00
C127   C     0.64400   0.01387   0.25159   0.00000  Uiso   1.00
C128   C     0.35455   0.17369   0.34163   0.00000  Uiso   1.00
H129   H     0.39038   0.21455   0.06792   0.00000  Uiso   1.00
H130   H     0.38139   0.01666   0.11447   0.00000  Uiso   1.00
H131   H     0.45193   0.05011   0.04768   0.00000  Uiso   1.00
H132   H     0.42597   0.31639   0.04606   0.00000  Uiso   1.00
H133   H     0.39590   0.02410   0.00578   0.00000  Uiso   1.00
H134   H     0.65405   0.29594   0.47858   0.00000  Uiso   1.00
H135   H     0.58627   0.25727   0.48045   0.00000  Uiso   1.00
H136   H     0.58762   0.01925   0.47721   0.00000  Uiso   1.00
H137   H     0.61100   0.01116   0.41566   0.00000  Uiso   1.00
H138   H     0.54196   0.31626   0.43406   0.00000  Uiso   1.00
H139   H     0.51594   0.27499   0.09896   0.00000  Uiso   1.00
H140   H     0.61155   0.10154   0.43564   0.00000  Uiso   1.00
H141   H     0.44410   0.26740   0.11952   0.00000  Uiso   1.00
H142   H     0.55139   0.25252   0.17875   0.00000  Uiso   1.00
H143   H     0.50606   0.30415   0.18723   0.00000  Uiso   1.00
H144   H     0.47931   0.23975   0.19645   0.00000  Uiso   1.00
H145   H     0.50019   0.05014   0.39501   0.00000  Uiso   1.00
H146   H     0.56692   0.06851   0.36736   0.00000  Uiso   1.00
H147   H     0.49437   0.02924   0.30628   0.00000  Uiso   1.00
H148   H     0.44915   0.07881   0.32241   0.00000  Uiso   1.00
H149   H     0.51713   0.09425   0.29744   0.00000  Uiso   1.00
H150   H     0.43177   0.08254   0.17231   0.00000  Uiso   1.00
H151   H     0.57791   0.20684   0.10676   0.00000  Uiso   1.00
H152   H     0.48370   0.06142   0.21396   0.00000  Uiso   1.00
H153   H     0.51077   0.08942   0.11110   0.00000  Uiso   1.00
H154   H     0.55374   0.05787   0.15246   0.00000  Uiso   1.00
H155   H     0.48887   0.02524   0.12554   0.00000  Uiso   1.00
H156   H     0.46706   0.26947   0.31654   0.00000  Uiso   1.00
H157   H     0.51875   0.26948   0.27059   0.00000  Uiso   1.00
H158   H     0.55545   0.31548   0.34738   0.00000  Uiso   1.00
H159   H     0.53952   0.25589   0.37665   0.00000  Uiso   1.00
H160   H     0.59349   0.26049   0.33268   0.00000  Uiso   1.00
H161   H     0.42890   0.12797   0.38748   0.00000  Uiso   1.00
H162   H     0.65965   0.22194   0.00867   0.00000  Uiso   1.00
H163   H     0.33602   0.08229   0.00201   0.00000  Uiso   1.00
H164   H     0.39865   0.00336   0.24452   0.00000  Uiso   1.00
H165   H     0.60134   0.32997   0.25492   0.00000  Uiso   1.00
H166   H     0.66092   0.01877   0.06912   0.00000  Uiso   1.00
N167   N     0.48029   0.15216   0.23739   0.00000  Uiso   1.00
N168   N     0.51971   0.18117   0.26260   0.00000  Uiso   1.00
O169   O     0.63052   0.24631   0.25309   0.00000  Uiso   1.00
O170   O     0.63052   0.24493   0.41658   0.00000  Uiso   1.00
O171   O     0.48436   0.19909   0.10774   0.00000  Uiso   1.00
O172   O     0.52169   0.12952   0.39166   0.00000  Uiso   1.00
O173   O     0.49791   0.13626   0.19346   0.00000  Uiso   1.00
O174   O     0.50111   0.20032   0.30494   0.00000  Uiso   1.00
O175   O     0.36948   0.08702   0.24691   0.00000  Uiso   1.00
O176   O     0.39155   0.23702   0.24501   0.00000  Uiso   1.00
O177   O     0.60845   0.09632   0.25499   0.00000  Uiso   1.00
O178   O     0.63662   0.17397   0.32247   0.00000  Uiso   1.00
O179   O     0.36338   0.15937   0.17753   0.00000  Uiso   1.00
O180   O     0.39764   0.16467   0.31439   0.00000  Uiso   1.00
O181   O     0.60236   0.16866   0.18561   0.00000  Uiso   1.00
O182   O     0.37409   0.08992   0.09527   0.00000  Uiso   1.00
Zn183  Zn    0.60366   0.17287   0.25539   0.00000  Uiso   1.00
Zn184  Zn    0.39634   0.16046   0.24460   0.00000  Uiso   1.00
C185   C     0.68171   0.26483   0.24872   0.00000  Uiso   1.00
C186   C     0.97912   0.16036   0.15882   0.00000  Uiso   1.00
C187   C     0.69931   0.18028   0.39552   0.00000  Uiso   1.00
C188   C     0.96838   0.14994   0.10592   0.00000  Uiso   1.00
C189   C     0.68535   0.20777   0.47966   0.00000  Uiso   1.00
C190   C     0.97842   0.10469   0.02700   0.00000  Uiso   1.00
C191   C     0.67010   0.21106   0.43029   0.00000  Uiso   1.00
C192   C     0.99521   0.11296   0.07656   0.00000  Uiso   1.00
C193   C     0.74639   0.15632   0.41215   0.00000  Uiso   1.00
C194   C     0.92388   0.17355   0.08605   0.00000  Uiso   1.00
C195   C     0.77079   0.16798   0.45934   0.00000  Uiso   1.00
C196   C     0.98494   0.06850   0.25111   0.00000  Uiso   1.00
C197   C     0.89847   0.15574   0.04059   0.00000  Uiso   1.00
C198   C     0.73662   0.19149   0.49347   0.00000  Uiso   1.00
C199   C     0.92988   0.12500   0.00939   0.00000  Uiso   1.00
C200   C     0.82595   0.15573   0.47455   0.00000  Uiso   1.00
C201   C     0.84413   0.16831   0.02490   0.00000  Uiso   1.00
C202   C     0.70402   0.03597   0.08154   0.00000  Uiso   1.00
C203   C     0.74697   0.02276   0.04310   0.00000  Uiso   1.00
C204   C     0.94893   0.27871   0.45720   0.00000  Uiso   1.00
C205   C     0.92060   0.32557   0.44404   0.00000  Uiso   1.00
C206   C     0.81995   0.25281   0.12175   0.00000  Uiso   1.00
C207   C     0.80614   0.19062   0.05815   0.00000  Uiso   1.00
C208   C     0.84078   0.26297   0.17427   0.00000  Uiso   1.00
C209   C     0.85589   0.07762   0.37194   0.00000  Uiso   1.00
C210   C     0.82708   0.06975   0.32163   0.00000  Uiso   1.00
C211   C     0.81058   0.08479   0.18270   0.00000  Uiso   1.00
C212   C     0.84303   0.06287   0.14032   0.00000  Uiso   1.00
C213   C     0.84072   0.25409   0.30552   0.00000  Uiso   1.00
C214   C     0.88543   0.27315   0.34306   0.00000  Uiso   1.00
C215   C     0.86432   0.13298   0.44181   0.00000  Uiso   1.00
C216   C     0.75288   0.19973   0.04189   0.00000  Uiso   1.00
C217   C     0.91517   0.11776   0.46024   0.00000  Uiso   1.00
C218   C     0.68931   0.31945   0.24796   0.00000  Uiso   1.00
C219   C     0.97734   0.01387   0.25159   0.00000  Uiso   1.00
C220   C     0.68788   0.17369   0.34163   0.00000  Uiso   1.00
H221   H     0.72371   0.21455   0.06792   0.00000  Uiso   1.00
H222   H     0.71473   0.01666   0.11447   0.00000  Uiso   1.00
H223   H     0.78527   0.05011   0.04768   0.00000  Uiso   1.00
H224   H     0.75931   0.31639   0.04606   0.00000  Uiso   1.00
H225   H     0.72923   0.02410   0.00578   0.00000  Uiso   1.00
H226   H     0.98738   0.29594   0.47858   0.00000  Uiso   1.00
H227   H     0.91961   0.25727   0.48045   0.00000  Uiso   1.00
H228   H     0.92095   0.01925   0.47721   0.00000  Uiso   1.00
H229   H     0.94433   0.01116   0.41566   0.00000  Uiso   1.00
H230   H     0.87530   0.31626   0.43406   0.00000  Uiso   1.00
H231   H     0.84927   0.27499   0.09896   0.00000  Uiso   1.00
H232   H     0.94488   0.10154   0.43564   0.00000  Uiso   1.00
H233   H     0.77743   0.26740   0.11952   0.00000  Uiso   1.00
H234   H     0.88472   0.25252   0.17875   0.00000  Uiso   1.00
H235   H     0.83940   0.30415   0.18723   0.00000  Uiso   1.00
H236   H     0.81264   0.23975   0.19645   0.00000  Uiso   1.00
H237   H     0.83353   0.05014   0.39501   0.00000  Uiso   1.00
H238   H     0.90025   0.06851   0.36736   0.00000  Uiso   1.00
H239   H     0.82770   0.02924   0.30628   0.00000  Uiso   1.00
H240   H     0.78248   0.07881   0.32241   0.00000  Uiso   1.00
H241   H     0.85046   0.09425   0.29744   0.00000  Uiso   1.00
H242   H     0.76510   0.08254   0.17231   0.00000  Uiso   1.00
H243   H     0.91124   0.20684   0.10676   0.00000  Uiso   1.00
H244   H     0.81703   0.06142   0.21396   0.00000  Uiso   1.00
H245   H     0.84410   0.08942   0.11110   0.00000  Uiso   1.00
H246   H     0.88707   0.05787   0.15246   0.00000  Uiso   1.00
H247   H     0.82220   0.02524   0.12554   0.00000  Uiso   1.00
H248   H     0.80039   0.26947   0.31654   0.00000  Uiso   1.00
H249   H     0.85208   0.26948   0.27059   0.00000  Uiso   1.00
H250   H     0.88878   0.31548   0.34738   0.00000  Uiso   1.00
H251   H     0.87285   0.25589   0.37665   0.00000  Uiso   1.00
H252   H     0.92682   0.26049   0.33268   0.00000  Uiso   1.00
H253   H     0.76223   0.12797   0.38748   0.00000  Uiso   1.00
H254   H     0.99298   0.22194   0.00867   0.00000  Uiso   1.00
H255   H     0.66936   0.08229   0.00201   0.00000  Uiso   1.00
H256   H     0.73198   0.00336   0.24452   0.00000  Uiso   1.00
H257   H     0.93467   0.32997   0.25492   0.00000  Uiso   1.00
H258   H     0.99425   0.01877   0.06912   0.00000  Uiso   1.00
N259   N     0.81362   0.15216   0.23739   0.00000  Uiso   1.00
N260   N     0.85305   0.18117   0.26260   0.00000  Uiso   1.00
O261   O     0.96386   0.24631   0.25309   0.00000  Uiso   1.00
O262   O     0.96385   0.24493   0.41658   0.00000  Uiso   1.00
O263   O     0.81770   0.19909   0.10774   0.00000  Uiso   1.00
O264   O     0.85502   0.12952   0.39166   0.00000  Uiso   1.00
O265   O     0.83124   0.13626   0.19346   0.00000  Uiso   1.00
O266   O     0.83445   0.20032   0.30494   0.00000  Uiso   1.00
O267   O     0.70281   0.08702   0.24691   0.00000  Uiso   1.00
O268   O     0.72488   0.23702   0.24501   0.00000  Uiso   1.00
O269   O     0.94178   0.09632   0.25499   0.00000  Uiso   1.00
O270   O     0.96995   0.17397   0.32247   0.00000  Uiso   1.00
O271   O     0.69672   0.15937   0.17753   0.00000  Uiso   1.00
O272   O     0.73098   0.16467   0.31439   0.00000  Uiso   1.00
O273   O     0.93569   0.16866   0.18561   0.00000  Uiso   1.00
O274   O     0.70743   0.08992   0.09527   0.00000  Uiso   1.00
Zn275  Zn    0.93700   0.17287   0.25539   0.00000  Uiso   1.00
Zn276  Zn    0.72967   0.16046   0.24460   0.00000  Uiso   1.00
C277   C     0.01504   0.59816   0.24872   0.00000  Uiso   1.00
C278   C     0.31245   0.49369   0.15882   0.00000  Uiso   1.00
C279   C     0.03265   0.51362   0.39552   0.00000  Uiso   1.00
C280   C     0.30171   0.48327   0.10592   0.00000  Uiso   1.00
C281   C     0.01868   0.54111   0.47966   0.00000  Uiso   1.00
C282   C     0.31175   0.43802   0.02700   0.00000  Uiso   1.00
C283   C     0.00343   0.54439   0.43029   0.00000  Uiso   1.00
C284   C     0.32854   0.44630   0.07656   0.00000  Uiso   1.00
C285   C     0.07972   0.48965   0.41215   0.00000  Uiso   1.00
C286   C     0.25721   0.50688   0.08605   0.00000  Uiso   1.00
C287   C     0.10412   0.50131   0.45934   0.00000  Uiso   1.00
C288   C     0.31828   0.40183   0.25111   0.00000  Uiso   1.00
C289   C     0.23181   0.48907   0.04059   0.00000  Uiso   1.00
C290   C     0.06995   0.52483   0.49347   0.00000  Uiso   1.00
C291   C     0.26322   0.45833   0.00939   0.00000  Uiso   1.00
C292   C     0.15929   0.48907   0.47455   0.00000  Uiso   1.00
C293   C     0.17746   0.50164   0.02490   0.00000  Uiso   1.00
C294   C     0.03735   0.36930   0.08154   0.00000  Uiso   1.00
C295   C     0.08031   0.35610   0.04310   0.00000  Uiso   1.00
C296   C     0.28227   0.61204   0.45720   0.00000  Uiso   1.00
C297   C     0.25393   0.65890   0.44404   0.00000  Uiso   1.00
C298   C     0.15328   0.58615   0.12175   0.00000  Uiso   1.00
C299   C     0.13948   0.52395   0.05815   0.00000  Uiso   1.00
C300   C     0.17412   0.59630   0.17427   0.00000  Uiso   1.00
C301   C     0.18922   0.41095   0.37194   0.00000  Uiso   1.00
C302   C     0.16041   0.40309   0.32163   0.00000  Uiso   1.00
C303   C     0.14392   0.41812   0.18270   0.00000  Uiso   1.00
C304   C     0.17636   0.39621   0.14032   0.00000  Uiso   1.00
C305   C     0.17405   0.58743   0.30552   0.00000  Uiso   1.00
C306   C     0.21877   0.60648   0.34306   0.00000  Uiso   1.00
C307   C     0.19766   0.46631   0.44181   0.00000  Uiso   1.00
C308   C     0.08622   0.53307   0.04189   0.00000  Uiso   1.00
C309   C     0.24850   0.45110   0.46024   0.00000  Uiso   1.00
C310   C     0.02264   0.65278   0.24796   0.00000  Uiso   1.00
C311   C     0.31067   0.34720   0.25159   0.00000  Uiso   1.00
C312   C     0.02121   0.50702   0.34163   0.00000  Uiso   1.00
H313   H     0.05704   0.54789   0.06792   0.00000  Uiso   1.00
H314   H     0.04806   0.34999   0.11447   0.00000  Uiso   1.00
H315   H     0.11860   0.38344   0.04768   0.00000  Uiso   1.00
H316   H     0.09264   0.64972   0.04606   0.00000  Uiso   1.00
H317   H     0.06257   0.35743   0.00578   0.00000  Uiso   1.00
H318   H     0.32071   0.62927   0.47858   0.00000  Uiso   1.00
H319   H     0.25294   0.59060   0.48045   0.00000  Uiso   1.00
H320   H     0.25429   0.35258   0.47721   0.00000  Uiso   1.00
H321   H     0.27766   0.34449   0.41566   0.00000  Uiso   1.00
H322   H     0.20863   0.64959   0.43406   0.00000  Uiso   1.00
H323   H     0.18261   0.60832   0.09896   0.00000  Uiso   1.00
H324   H     0.27822   0.43487   0.43564   0.00000  Uiso   1.00
H325   H     0.11077   0.60073   0.11952   0.00000  Uiso   1.00
H326   H     0.21805   0.58585   0.17875   0.00000  Uiso   1.00
H327   H     0.17273   0.63749   0.18723   0.00000  Uiso   1.00
H328   H     0.14598   0.57308   0.19645   0.00000  Uiso   1.00
H329   H     0.16686   0.38347   0.39501   0.00000  Uiso   1.00
H330   H     0.23359   0.40184   0.36736   0.00000  Uiso   1.00
H331   H     0.16103   0.36257   0.30628   0.00000  Uiso   1.00
H332   H     0.11582   0.41215   0.32241   0.00000  Uiso   1.00
H333   H     0.18380   0.42758   0.29744   0.00000  Uiso   1.00
H334   H     0.09843   0.41587   0.17231   0.00000  Uiso   1.00
H335   H     0.24458   0.54018   0.10676   0.00000  Uiso   1.00
H336   H     0.15037   0.39476   0.21396   0.00000  Uiso   1.00
H337   H     0.17744   0.42276   0.11110   0.00000  Uiso   1.00
H338   H     0.22040   0.39121   0.15246   0.00000  Uiso   1.00
H339   H     0.15553   0.35858   0.12554   0.00000  Uiso   1.00
H340   H     0.13372   0.60280   0.31654   0.00000  Uiso   1.00
H341   H     0.18541   0.60281   0.27059   0.00000  Uiso   1.00
H342   H     0.22211   0.64881   0.34738   0.00000  Uiso   1.00
H343   H     0.20618   0.58923   0.37665   0.00000  Uiso   1.00
H344   H     0.26016   0.59383   0.33268   0.00000  Uiso   1.00
H345   H     0.09557   0.46131   0.38748   0.00000  Uiso   1.00
H346   H     0.32631   0.55528   0.00867   0.00000  Uiso   1.00
H347   H     0.00269   0.41563   0.00201   0.00000  Uiso   1.00
H348   H     0.06531   0.33669   0.24452   0.00000  Uiso   1.00
H349   H     0.26800   0.66331   0.25492   0.00000  Uiso   1.00
H350   H     0.32759   0.35211   0.06912   0.00000  Uiso   1.00
N351   N     0.14695   0.48550   0.23739   0.00000  Uiso   1.00
N352   N     0.18638   0.51450   0.26260   0.00000  Uiso   1.00
O353   O     0.29719   0.57964   0.25309   0.00000  Uiso   1.00
O354   O     0.29718   0.57827   0.41658   0.00000  Uiso   1.00
O355   O     0.15103   0.53242   0.10774   0.00000  Uiso   1.00
O356   O     0.18836   0.46285   0.39166   0.00000  Uiso   1.00
O357   O     0.16458   0.46959   0.19346   0.00000  Uiso   1.00
O358   O     0.16778   0.53365   0.30494   0.00000  Uiso   1.00
O359   O     0.03614   0.42036   0.24691   0.00000  Uiso   1.00
O360   O     0.05822   0.57035   0.24501   0.00000  Uiso   1.00
O361   O     0.27512   0.42965   0.25499   0.00000  Uiso   1.00
O362   O     0.30328   0.50730   0.32247   0.00000  Uiso   1.00
O363   O     0.03005   0.49270   0.17753   0.00000  Uiso   1.00
O364   O     0.06431   0.49801   0.31439   0.00000  Uiso   1.00
O365   O     0.26902   0.50199   0.18561   0.00000  Uiso   1.00
O366   O     0.04076   0.42325   0.09527   0.00000  Uiso   1.00
Zn367  Zn    0.27033   0.50621   0.25539   0.00000  Uiso   1.00
Zn368  Zn    0.06300   0.49379   0.24460   0.00000  Uiso   1.00
C369   C     0.34837   0.59816   0.24872   0.00000  Uiso   1.00
C370   C     0.64579   0.49369   0.15882   0.00000  Uiso   1.00
C371   C     0.36598   0.51362   0.39552   0.00000  Uiso   1.00
C372   C     0.63504   0.48327   0.10592   0.00000  Uiso   1.00
C373   C     0.35201   0.54111   0.47966   0.00000  Uiso   1.00
C374   C     0.64509   0.43802   0.02700   0.00000  Uiso   1.00
C375   C     0.33676   0.54439   0.43029   0.00000  Uiso   1.00
C376   C     0.66188   0.44630   0.07656   0.00000  Uiso   1.00
C377   C     0.41306   0.48965   0.41215   0.00000  Uiso   1.00
C378   C     0.59055   0.50688   0.08605   0.00000  Uiso   1.00
C379   C     0.43745   0.50131   0.45934   0.00000  Uiso   1.00
C380   C     0.65161   0.40183   0.25111   0.00000  Uiso   1.00
C381   C     0.56514   0.48907   0.04059   0.00000  Uiso   1.00
C382   C     0.40328   0.52483   0.49347   0.00000  Uiso   1.00
C383   C     0.59655   0.45833   0.00939   0.00000  Uiso   1.00
C384   C     0.49262   0.48907   0.47455   0.00000  Uiso   1.00
C385   C     0.51080   0.50164   0.02490   0.00000  Uiso   1.00
C386   C     0.37069   0.36930   0.08154   0.00000  Uiso   1.00
C387   C     0.41364   0.35610   0.04310   0.00000  Uiso   1.00
C388   C     0.61560   0.61204   0.45720   0.00000  Uiso   1.00
C389   C     0.58727   0.65890   0.44404   0.00000  Uiso   1.00
C390   C     0.48661   0.58615   0.12175   0.00000  Uiso   1.00
C391   C     0.47281   0.52395   0.05815   0.00000  Uiso   1.00
C392   C     0.50745   0.59630   0.17427   0.00000  Uiso   1.00
C393   C     0.52256   0.41095   0.37194   0.00000  Uiso   1.00
C394   C     0.49374   0.40309   0.32163   0.00000  Uiso   1.00
C395   C     0.47725   0.41812   0.18270   0.00000  Uiso   1.00
C396   C     0.50970   0.39621   0.14032   0.00000  Uiso   1.00
C397   C     0.50739   0.58743   0.30552   0.00000  Uiso   1.00
C398   C     0.55210   0.60648   0.34306   0.00000  Uiso   1.00
C399   C     0.53099   0.46631   0.44181   0.00000  Uiso   1.00
C400   C     0.41955   0.53307   0.04189   0.00000  Uiso   1.00
C401   C     0.58184   0.45110   0.46024   0.00000  Uiso   1.00
C402   C     0.35597   0.65278   0.24796   0.00000  Uiso   1.00
C403   C     0.64400   0.34720   0.25159   0.00000  Uiso   1.00
C404   C     0.35455   0.50702   0.34163   0.00000  Uiso   1.00
H405   H     0.39038   0.54789   0.06792   0.00000  Uiso   1.00
H406   H     0.38139   0.34999   0.11447   0.00000  Uiso   1.00
H407   H     0.45193   0.38344   0.04768   0.00000  Uiso   1.00
H408   H     0.42597   0.64972   0.04606   0.00000  Uiso   1.00
H409   H     0.39590   0.35743   0.00578   0.00000  Uiso   1.00
H410   H     0.65405   0.62927   0.47858   0.00000  Uiso   1.00
H411   H     0.58627   0.59060   0.48045   0.00000  Uiso   1.00
H412   H     0.58762   0.35258   0.47721   0.00000  Uiso   1.00
H413   H     0.61100   0.34449   0.41566   0.00000  Uiso   1.00
H414   H     0.54196   0.64959   0.43406   0.00000  Uiso   1.00
H415   H     0.51594   0.60832   0.09896   0.00000  Uiso   1.00
H416   H     0.61155   0.43487   0.43564   0.00000  Uiso   1.00
H417   H     0.44410   0.60073   0.11952   0.00000  Uiso   1.00
H418   H     0.55139   0.58585   0.17875   0.00000  Uiso   1.00
H419   H     0.50606   0.63749   0.18723   0.00000  Uiso   1.00
H420   H     0.47931   0.57308   0.19645   0.00000  Uiso   1.00
H421   H     0.50019   0.38347   0.39501   0.00000  Uiso   1.00
H422   H     0.56692   0.40184   0.36736   0.00000  Uiso   1.00
H423   H     0.49437   0.36257   0.30628   0.00000  Uiso   1.00
H424   H     0.44915   0.41215   0.32241   0.00000  Uiso   1.00
H425   H     0.51713   0.42758   0.29744   0.00000  Uiso   1.00
H426   H     0.43177   0.41587   0.17231   0.00000  Uiso   1.00
H427   H     0.57791   0.54018   0.10676   0.00000  Uiso   1.00
H428   H     0.48370   0.39476   0.21396   0.00000  Uiso   1.00
H429   H     0.51077   0.42276   0.11110   0.00000  Uiso   1.00
H430   H     0.55374   0.39121   0.15246   0.00000  Uiso   1.00
H431   H     0.48887   0.35858   0.12554   0.00000  Uiso   1.00
H432   H     0.46706   0.60280   0.31654   0.00000  Uiso   1.00
H433   H     0.51875   0.60281   0.27059   0.00000  Uiso   1.00
H434   H     0.55545   0.64881   0.34738   0.00000  Uiso   1.00
H435   H     0.53952   0.58923   0.37665   0.00000  Uiso   1.00
H436   H     0.59349   0.59383   0.33268   0.00000  Uiso   1.00
H437   H     0.42890   0.46131   0.38748   0.00000  Uiso   1.00
H438   H     0.65965   0.55528   0.00867   0.00000  Uiso   1.00
H439   H     0.33602   0.41563   0.00201   0.00000  Uiso   1.00
H440   H     0.39865   0.33669   0.24452   0.00000  Uiso   1.00
H441   H     0.60134   0.66331   0.25492   0.00000  Uiso   1.00
H442   H     0.66092   0.35211   0.06912   0.00000  Uiso   1.00
N443   N     0.48029   0.48550   0.23739   0.00000  Uiso   1.00
N444   N     0.51971   0.51450   0.26260   0.00000  Uiso   1.00
O445   O     0.63052   0.57964   0.25309   0.00000  Uiso   1.00
O446   O     0.63052   0.57827   0.41658   0.00000  Uiso   1.00
O447   O     0.48436   0.53242   0.10774   0.00000  Uiso   1.00
O448   O     0.52169   0.46285   0.39166   0.00000  Uiso   1.00
O449   O     0.49791   0.46959   0.19346   0.00000  Uiso   1.00
O450   O     0.50111   0.53365   0.30494   0.00000  Uiso   1.00
O451   O     0.36948   0.42036   0.24691   0.00000  Uiso   1.00
O452   O     0.39155   0.57035   0.24501   0.00000  Uiso   1.00
O453   O     0.60845   0.42965   0.25499   0.00000  Uiso   1.00
O454   O     0.63662   0.50730   0.32247   0.00000  Uiso   1.00
O455   O     0.36338   0.49270   0.17753   0.00000  Uiso   1.00
O456   O     0.39764   0.49801   0.31439   0.00000  Uiso   1.00
O457   O     0.60236   0.50199   0.18561   0.00000  Uiso   1.00
O458   O     0.37409   0.42325   0.09527   0.00000  Uiso   1.00
Zn459  Zn    0.60366   0.50621   0.25539   0.00000  Uiso   1.00
Zn460  Zn    0.39634   0.49379   0.24460   0.00000  Uiso   1.00
C461   C     0.68171   0.59816   0.24872   0.00000  Uiso   1.00
C462   C     0.97912   0.49369   0.15882   0.00000  Uiso   1.00
C463   C     0.69931   0.51362   0.39552   0.00000  Uiso   1.00
C464   C     0.96838   0.48327   0.10592   0.00000  Uiso   1.00
C465   C     0.68535   0.54111   0.47966   0.00000  Uiso   1.00
C466   C     0.97842   0.43802   0.02700   0.00000  Uiso   1.00
C467   C     0.67010   0.54439   0.43029   0.00000  Uiso   1.00
C468   C     0.99521   0.44630   0.07656   0.00000  Uiso   1.00
C469   C     0.74639   0.48965   0.41215   0.00000  Uiso   1.00
C470   C     0.92388   0.50688   0.08605   0.00000  Uiso   1.00
C471   C     0.77079   0.50131   0.45934   0.00000  Uiso   1.00
C472   C     0.98494   0.40183   0.25111   0.00000  Uiso   1.00
C473   C     0.89847   0.48907   0.04059   0.00000  Uiso   1.00
C474   C     0.73662   0.52483   0.49347   0.00000  Uiso   1.00
C475   C     0.92988   0.45833   0.00939   0.00000  Uiso   1.00
C476   C     0.82595   0.48907   0.47455   0.00000  Uiso   1.00
C477   C     0.84413   0.50164   0.02490   0.00000  Uiso   1.00
C478   C     0.70402   0.36930   0.08154   0.00000  Uiso   1.00
C479   C     0.74697   0.35610   0.04310   0.00000  Uiso   1.00
C480   C     0.94893   0.61204   0.45720   0.00000  Uiso   1.00
C481   C     0.92060   0.65890   0.44404   0.00000  Uiso   1.00
C482   C     0.81995   0.58615   0.12175   0.00000  Uiso   1.00
C483   C     0.80614   0.52395   0.05815   0.00000  Uiso   1.00
C484   C     0.84078   0.59630   0.17427   0.00000  Uiso   1.00
C485   C     0.85589   0.41095   0.37194   0.00000  Uiso   1.00
C486   C     0.82708   0.40309   0.32163   0.00000  Uiso   1.00
C487   C     0.81058   0.41812   0.18270   0.00000  Uiso   1.00
C488   C     0.84303   0.39621   0.14032   0.00000  Uiso   1.00
C489   C     0.84072   0.58743   0.30552   0.00000  Uiso   1.00
C490   C     0.88543   0.60648   0.34306   0.00000  Uiso   1.00
C491   C     0.86432   0.46631   0.44181   0.00000  Uiso   1.00
C492   C     0.75288   0.53307   0.04189   0.00000  Uiso   1.00
C493   C     0.91517   0.45110   0.46024   0.00000  Uiso   1.00
C494   C     0.68931   0.65278   0.24796   0.00000  Uiso   1.00
C495   C     0.97734   0.34720   0.25159   0.00000  Uiso   1.00
C496   C     0.68788   0.50702   0.34163   0.00000  Uiso   1.00
H497   H     0.72371   0.54789   0.06792   0.00000  Uiso   1.00
H498   H     0.71473   0.34999   0.11447   0.00000  Uiso   1.00
H499   H     0.78527   0.38344   0.04768   0.00000  Uiso   1.00
H500   H     0.75931   0.64972   0.04606   0.00000  Uiso   1.00
H501   H     0.72923   0.35743   0.00578   0.00000  Uiso   1.00
H502   H     0.98738   0.62927   0.47858   0.00000  Uiso   1.00
H503   H     0.91961   0.59060   0.48045   0.00000  Uiso   1.00
H504   H     0.92095   0.35258   0.47721   0.00000  Uiso   1.00
H505   H     0.94433   0.34449   0.41566   0.00000  Uiso   1.00
H506   H     0.87530   0.64959   0.43406   0.00000  Uiso   1.00
H507   H     0.84927   0.60832   0.09896   0.00000  Uiso   1.00
H508   H     0.94488   0.43487   0.43564   0.00000  Uiso   1.00
H509   H     0.77743   0.60073   0.11952   0.00000  Uiso   1.00
H510   H     0.88472   0.58585   0.17875   0.00000  Uiso   1.00
H511   H     0.83940   0.63749   0.18723   0.00000  Uiso   1.00
H512   H     0.81264   0.57308   0.19645   0.00000  Uiso   1.00
H513   H     0.83353   0.38347   0.39501   0.00000  Uiso   1.00
H514   H     0.90025   0.40184   0.36736   0.00000  Uiso   1.00
H515   H     0.82770   0.36257   0.30628   0.00000  Uiso   1.00
H516   H     0.78248   0.41215   0.32241   0.00000  Uiso   1.00
H517   H     0.85046   0.42758   0.29744   0.00000  Uiso   1.00
H518   H     0.76510   0.41587   0.17231   0.00000  Uiso   1.00
H519   H     0.91124   0.54018   0.10676   0.00000  Uiso   1.00
H520   H     0.81703   0.39476   0.21396   0.00000  Uiso   1.00
H521   H     0.84410   0.42276   0.11110   0.00000  Uiso   1.00
H522   H     0.88707   0.39121   0.15246   0.00000  Uiso   1.00
H523   H     0.82220   0.35858   0.12554   0.00000  Uiso   1.00
H524   H     0.80039   0.60280   0.31654   0.00000  Uiso   1.00
H525   H     0.85208   0.60281   0.27059   0.00000  Uiso   1.00
H526   H     0.88878   0.64881   0.34738   0.00000  Uiso   1.00
H527   H     0.87285   0.58923   0.37665   0.00000  Uiso   1.00
H528   H     0.92682   0.59383   0.33268   0.00000  Uiso   1.00
H529   H     0.76223   0.46131   0.38748   0.00000  Uiso   1.00
H530   H     0.99298   0.55528   0.00867   0.00000  Uiso   1.00
H531   H     0.66936   0.41563   0.00201   0.00000  Uiso   1.00
H532   H     0.73198   0.33669   0.24452   0.00000  Uiso   1.00
H533   H     0.93467   0.66331   0.25492   0.00000  Uiso   1.00
H534   H     0.99425   0.35211   0.06912   0.00000  Uiso   1.00
N535   N     0.81362   0.48550   0.23739   0.00000  Uiso   1.00
N536   N     0.85305   0.51450   0.26260   0.00000  Uiso   1.00
O537   O     0.96386   0.57964   0.25309   0.00000  Uiso   1.00
O538   O     0.96385   0.57827   0.41658   0.00000  Uiso   1.00
O539   O     0.81770   0.53242   0.10774   0.00000  Uiso   1.00
O540   O     0.85502   0.46285   0.39166   0.00000  Uiso   1.00
O541   O     0.83124   0.46959   0.19346   0.00000  Uiso   1.00
O542   O     0.83445   0.53365   0.30494   0.00000  Uiso   1.00
O543   O     0.70281   0.42036   0.24691   0.00000  Uiso   1.00
O544   O     0.72488   0.57035   0.24501   0.00000  Uiso   1.00
O545   O     0.94178   0.42965   0.25499   0.00000  Uiso   1.00
O546   O     0.96995   0.50730   0.32247   0.00000  Uiso   1.00
O547   O     0.69672   0.49270   0.17753   0.00000  Uiso   1.00
O548   O     0.73098   0.49801   0.31439   0.00000  Uiso   1.00
O549   O     0.93569   0.50199   0.18561   0.00000  Uiso   1.00
O550   O     0.70743   0.42325   0.09527   0.00000  Uiso   1.00
Zn551  Zn    0.93700   0.50621   0.25539   0.00000  Uiso   1.00
Zn552  Zn    0.72967   0.49379   0.24460   0.00000  Uiso   1.00
C553   C     0.01504   0.93149   0.24872   0.00000  Uiso   1.00
C554   C     0.31245   0.82702   0.15882   0.00000  Uiso   1.00
C555   C     0.03265   0.84695   0.39552   0.00000  Uiso   1.00
C556   C     0.30171   0.81661   0.10592   0.00000  Uiso   1.00
C557   C     0.01868   0.87444   0.47966   0.00000  Uiso   1.00
C558   C     0.31175   0.77135   0.02700   0.00000  Uiso   1.00
C559   C     0.00343   0.87772   0.43029   0.00000  Uiso   1.00
C560   C     0.32854   0.77963   0.07656   0.00000  Uiso   1.00
C561   C     0.07972   0.82299   0.41215   0.00000  Uiso   1.00
C562   C     0.25721   0.84022   0.08605   0.00000  Uiso   1.00
C563   C     0.10412   0.83464   0.45934   0.00000  Uiso   1.00
C564   C     0.31828   0.73516   0.25111   0.00000  Uiso   1.00
C565   C     0.23181   0.82240   0.04059   0.00000  Uiso   1.00
C566   C     0.06995   0.85816   0.49347   0.00000  Uiso   1.00
C567   C     0.26322   0.79167   0.00939   0.00000  Uiso   1.00
C568   C     0.15929   0.82240   0.47455   0.00000  Uiso   1.00
C569   C     0.17746   0.83497   0.02490   0.00000  Uiso   1.00
C570   C     0.03735   0.70264   0.08154   0.00000  Uiso   1.00
C571   C     0.08031   0.68943   0.04310   0.00000  Uiso   1.00
C572   C     0.28227   0.94537   0.45720   0.00000  Uiso   1.00
C573   C     0.25393   0.99224   0.44404   0.00000  Uiso   1.00
C574   C     0.15328   0.91948   0.12175   0.00000  Uiso   1.00
C575   C     0.13948   0.85729   0.05815   0.00000  Uiso   1.00
C576   C     0.17412   0.92963   0.17427   0.00000  Uiso   1.00
C577   C     0.18922   0.74429   0.37194   0.00000  Uiso   1.00
C578   C     0.16041   0.73642   0.32163   0.00000  Uiso   1.00
C579   C     0.14392   0.75145   0.18270   0.00000  Uiso   1.00
C580   C     0.17636   0.72954   0.14032   0.00000  Uiso   1.00
C581   C     0.17405   0.92076   0.30552   0.00000  Uiso   1.00
C582   C     0.21877   0.93982   0.34306   0.00000  Uiso   1.00
C583   C     0.19766   0.79965   0.44181   0.00000  Uiso   1.00
C584   C     0.08622   0.86640   0.04189   0.00000  Uiso   1.00
C585   C     0.24850   0.78443   0.46024   0.00000  Uiso   1.00
C586   C     0.02264   0.98611   0.24796   0.00000  Uiso   1.00
C587   C     0.31067   0.68053   0.25159   0.00000  Uiso   1.00
C588   C     0.02121   0.84035   0.34163   0.00000  Uiso   1.00
H589   H     0.05704   0.88122   0.06792   0.00000  Uiso   1.00
H590   H     0.04806   0.68332   0.11447   0.00000  Uiso   1.00
H591   H     0.11860   0.71677   0.04768   0.00000  Uiso   1.00
H592   H     0.09264   0.98305   0.04606   0.00000  Uiso   1.00
H593   H     0.06257   0.69077   0.00578   0.00000  Uiso   1.00
H594   H     0.32071   0.96260   0.47858   0.00000  Uiso   1.00
H595   H     0.25294   0.92394   0.48045   0.00000  Uiso   1.00
H596   H     0.25429   0.68591   0.47721   0.00000  Uiso   1.00
H597   H     0.27766   0.67783   0.41566   0.00000  Uiso   1.00
H598   H     0.20863   0.98293   0.43406   0.00000  Uiso   1.00
H599   H     0.18261   0.94166   0.09896   0.00000  Uiso   1.00
H600   H     0.27822   0.76820   0.43564   0.00000  Uiso   1.00
H601   H     0.11077   0.93407   0.11952   0.00000  Uiso   1.00
H602   H     0.21805   0.91919   0.17875   0.00000  Uiso   1.00
H603   H     0.17273   0.97082   0.18723   0.00000  Uiso   1.00
H604   H     0.14598   0.90642   0.19645   0.00000  Uiso   1.00
H605   H     0.16686   0.71680   0.39501   0.00000  Uiso   1.00
H606   H     0.23359   0.73517   0.36736   0.00000  Uiso   1.00
H607   H     0.16103   0.69591   0.30628   0.00000  Uiso   1.00
H608   H     0.11582   0.74548   0.32241   0.00000  Uiso   1.00
H609   H     0.18380   0.76091   0.29744   0.00000  Uiso   1.00
H610   H     0.09843   0.74920   0.17231   0.00000  Uiso   1.00
H611   H     0.24458   0.87351   0.10676   0.00000  Uiso   1.00
H612   H     0.15037   0.72809   0.21396   0.00000  Uiso   1.00
H613   H     0.17744   0.75609   0.11110   0.00000  Uiso   1.00
H614   H     0.22040   0.72454   0.15246   0.00000  Uiso   1.00
H615   H     0.15553   0.69191   0.12554   0.00000  Uiso   1.00
H616   H     0.13372   0.93613   0.31654   0.00000  Uiso   1.00
H617   H     0.18541   0.93615   0.27059   0.00000  Uiso   1.00
H618   H     0.22211   0.98215   0.34738   0.00000  Uiso   1.00
H619   H     0.20618   0.92256   0.37665   0.00000  Uiso   1.00
H620   H     0.26016   0.92716   0.33268   0.00000  Uiso   1.00
H621   H     0.09557   0.79464   0.38748   0.00000  Uiso   1.00
H622   H     0.32631   0.88861   0.00867   0.00000  Uiso   1.00
H623   H     0.00269   0.74896   0.00201   0.00000  Uiso   1.00
H624   H     0.06531   0.67002   0.24452   0.00000  Uiso   1.00
H625   H     0.26800   0.99664   0.25492   0.00000  Uiso   1.00
H626   H     0.32759   0.68544   0.06912   0.00000  Uiso   1.00
N627   N     0.14695   0.81883   0.23739   0.00000  Uiso   1.00
N628   N     0.18638   0.84784   0.26260   0.00000  Uiso   1.00
O629   O     0.29719   0.91298   0.25309   0.00000  Uiso   1.00
O630   O     0.29718   0.91160   0.41658   0.00000  Uiso   1.00
O631   O     0.15103   0.86575   0.10774   0.00000  Uiso   1.00
O632   O     0.18836   0.79618   0.39166   0.00000  Uiso   1.00
O633   O     0.16458   0.80292   0.19346   0.00000  Uiso   1.00
O634   O     0.16778   0.86698   0.30494   0.00000  Uiso   1.00
O635   O     0.03614   0.75369   0.24691   0.00000  Uiso   1.00
O636   O     0.05822   0.90368   0.24501   0.00000  Uiso   1.00
O637   O     0.27512   0.76298   0.25499   0.00000  Uiso   1.00
O638   O     0.30328   0.84063   0.32247   0.00000  Uiso   1.00
O639   O     0.03005   0.82603   0.17753   0.00000  Uiso   1.00
O640   O     0.06431   0.83134   0.31439   0.00000  Uiso   1.00
O641   O     0.26902   0.83533   0.18561   0.00000  Uiso   1.00
O642   O     0.04076   0.75658   0.09527   0.00000  Uiso   1.00
Zn643  Zn    0.27033   0.83954   0.25539   0.00000  Uiso   1.00
Zn644  Zn    0.06300   0.82713   0.24460   0.00000  Uiso   1.00
C645   C     0.34837   0.93149   0.24872   0.00000  Uiso   1.00
C646   C     0.64579   0.82702   0.15882   0.00000  Uiso   1.00
C647   C     0.36598   0.84695   0.39552   0.00000  Uiso   1.00
C648   C     0.63504   0.81661   0.10592   0.00000  Uiso   1.00
C649   C     0.35201   0.87444   0.47966   0.00000  Uiso   1.00
C650   C     0.64509   0.77135   0.02700   0.00000  Uiso   1.00
C651   C     0.33676   0.87772   0.43029   0.00000  Uiso   1.00
C652   C     0.66188   0.77963   0.07656   0.00000  Uiso   1.00
C653   C     0.41306   0.82299   0.41215   0.00000  Uiso   1.00
C654   C     0.59055   0.84022   0.08605   0.00000  Uiso   1.00
C655   C     0.43745   0.83464   0.45934   0.00000  Uiso   1.00
C656   C     0.65161   0.73516   0.25111   0.00000  Uiso   1.00
C657   C     0.56514   0.82240   0.04059   0.00000  Uiso   1.00
C658   C     0.40328   0.85816   0.49347   0.00000  Uiso   1.00
C659   C     0.59655   0.79167   0.00939   0.00000  Uiso   1.00
C660   C     0.49262   0.82240   0.47455   0.00000  Uiso   1.00
C661   C     0.51080   0.83497   0.02490   0.00000  Uiso   1.00
C662   C     0.37069   0.70264   0.08154   0.00000  Uiso   1.00
C663   C     0.41364   0.68943   0.04310   0.00000  Uiso   1.00
C664   C     0.61560   0.94537   0.45720   0.00000  Uiso   1.00
C665   C     0.58727   0.99224   0.44404   0.00000  Uiso   1.00
C666   C     0.48661   0.91948   0.12175   0.00000  Uiso   1.00
C667   C     0.47281   0.85729   0.05815   0.00000  Uiso   1.00
C668   C     0.50745   0.92963   0.17427   0.00000  Uiso   1.00
C669   C     0.52256   0.74429   0.37194   0.00000  Uiso   1.00
C670   C     0.49374   0.73642   0.32163   0.00000  Uiso   1.00
C671   C     0.47725   0.75145   0.18270   0.00000  Uiso   1.00
C672   C     0.50970   0.72954   0.14032   0.00000  Uiso   1.00
C673   C     0.50739   0.92076   0.30552   0.00000  Uiso   1.00
C674   C     0.55210   0.93982   0.34306   0.00000  Uiso   1.00
C675   C     0.53099   0.79965   0.44181   0.00000  Uiso   1.00
C676   C     0.41955   0.86640   0.04189   0.00000  Uiso   1.00
C677   C     0.58184   0.78443   0.46024   0.00000  Uiso   1.00
C678   C     0.35597   0.98611   0.24796   0.00000  Uiso   1.00
C679   C     0.64400   0.68053   0.25159   0.00000  Uiso   1.00
C680   C     0.35455   0.84035   0.34163   0.00000  Uiso   1.00
H681   H     0.39038   0.88122   0.06792   0.00000  Uiso   1.00
H682   H     0.38139   0.68332   0.11447   0.00000  Uiso   1.00
H683   H     0.45193   0.71677   0.04768   0.00000  Uiso   1.00
H684   H     0.42597   0.98305   0.04606   0.00000  Uiso   1.00
H685   H     0.39590   0.69077   0.00578   0.00000  Uiso   1.00
H686   H     0.65405   0.96260   0.47858   0.00000  Uiso   1.00
H687   H     0.58627   0.92394   0.48045   0.00000  Uiso   1.00
H688   H     0.58762   0.68591   0.47721   0.00000  Uiso   1.00
H689   H     0.61100   0.67783   0.41566   0.00000  Uiso   1.00
H690   H     0.54196   0.98293   0.43406   0.00000  Uiso   1.00
H691   H     0.51594   0.94166   0.09896   0.00000  Uiso   1.00
H692   H     0.61155   0.76820   0.43564   0.00000  Uiso   1.00
H693   H     0.44410   0.93407   0.11952   0.00000  Uiso   1.00
H694   H     0.55139   0.91919   0.17875   0.00000  Uiso   1.00
H695   H     0.50606   0.97082   0.18723   0.00000  Uiso   1.00
H696   H     0.47931   0.90642   0.19645   0.00000  Uiso   1.00
H697   H     0.50019   0.71680   0.39501   0.00000  Uiso   1.00
H698   H     0.56692   0.73517   0.36736   0.00000  Uiso   1.00
H699   H     0.49437   0.69591   0.30628   0.00000  Uiso   1.00
H700   H     0.44915   0.74548   0.32241   0.00000  Uiso   1.00
H701   H     0.51713   0.76091   0.29744   0.00000  Uiso   1.00
H702   H     0.43177   0.74920   0.17231   0.00000  Uiso   1.00
H703   H     0.57791   0.87351   0.10676   0.00000  Uiso   1.00
H704   H     0.48370   0.72809   0.21396   0.00000  Uiso   1.00
H705   H     0.51077   0.75609   0.11110   0.00000  Uiso   1.00
H706   H     0.55374   0.72454   0.15246   0.00000  Uiso   1.00
H707   H     0.48887   0.69191   0.12554   0.00000  Uiso   1.00
H708   H     0.46706   0.93613   0.31654   0.00000  Uiso   1.00
H709   H     0.51875   0.93615   0.27059   0.00000  Uiso   1.00
H710   H     0.55545   0.98215   0.34738   0.00000  Uiso   1.00
H711   H     0.53952   0.92256   0.37665   0.00000  Uiso   1.00
H712   H     0.59349   0.92716   0.33268   0.00000  Uiso   1.00
H713   H     0.42890   0.79464   0.38748   0.00000  Uiso   1.00
H714   H     0.65965   0.88861   0.00867   0.00000  Uiso   1.00
H715   H     0.33602   0.74896   0.00201   0.00000  Uiso   1.00
H716   H     0.39865   0.67002   0.24452   0.00000  Uiso   1.00
H717   H     0.60134   0.99664   0.25492   0.00000  Uiso   1.00
H718   H     0.66092   0.68544   0.06912   0.00000  Uiso   1.00
N719   N     0.48029   0.81883   0.23739   0.00000  Uiso   1.00
N720   N     0.51971   0.84784   0.26260   0.00000  Uiso   1.00
O721   O     0.63052   0.91298   0.25309   0.00000  Uiso   1.00
O722   O     0.63052   0.91160   0.41658   0.00000  Uiso   1.00
O723   O     0.48436   0.86575   0.10774   0.00000  Uiso   1.00
O724   O     0.52169   0.79618   0.39166   0.00000  Uiso   1.00
O725   O     0.49791   0.80292   0.19346   0.00000  Uiso   1.00
O726   O     0.50111   0.86698   0.30494   0.00000  Uiso   1.00
O727   O     0.36948   0.75369   0.24691   0.00000  Uiso   1.00
O728   O     0.39155   0.90368   0.24501   0.00000  Uiso   1.00
O729   O     0.60845   0.76298   0.25499   0.00000  Uiso   1.00
O730   O     0.63662   0.84063   0.32247   0.00000  Uiso   1.00
O731   O     0.36338   0.82603   0.17753   0.00000  Uiso   1.00
O732   O     0.39764   0.83134   0.31439   0.00000  Uiso   1.00
O733   O     0.60236   0.83533   0.18561   0.00000  Uiso   1.00
O734   O     0.37409   0.75658   0.09527   0.00000  Uiso   1.00
Zn735  Zn    0.60366   0.83954   0.25539   0.00000  Uiso   1.00
Zn736  Zn    0.39634   0.82713   0.24460   0.00000  Uiso   1.00
C737   C     0.68171   0.93149   0.24872   0.00000  Uiso   1.00
C738   C     0.97912   0.82702   0.15882   0.00000  Uiso   1.00
C739   C     0.69931   0.84695   0.39552   0.00000  Uiso   1.00
C740   C     0.96838   0.81661   0.10592   0.00000  Uiso   1.00
C741   C     0.68535   0.87444   0.47966   0.00000  Uiso   1.00
C742   C     0.97842   0.77135   0.02700   0.00000  Uiso   1.00
C743   C     0.67010   0.87772   0.43029   0.00000  Uiso   1.00
C744   C     0.99521   0.77963   0.07656   0.00000  Uiso   1.00
C745   C     0.74639   0.82299   0.41215   0.00000  Uiso   1.00
C746   C     0.92388   0.84022   0.08605   0.00000  Uiso   1.00
C747   C     0.77079   0.83464   0.45934   0.00000  Uiso   1.00
C748   C     0.98494   0.73516   0.25111   0.00000  Uiso   1.00
C749   C     0.89847   0.82240   0.04059   0.00000  Uiso   1.00
C750   C     0.73662   0.85816   0.49347   0.00000  Uiso   1.00
C751   C     0.92988   0.79167   0.00939   0.00000  Uiso   1.00
C752   C     0.82595   0.82240   0.47455   0.00000  Uiso   1.00
C753   C     0.84413   0.83497   0.02490   0.00000  Uiso   1.00
C754   C     0.70402   0.70264   0.08154   0.00000  Uiso   1.00
C755   C     0.74697   0.68943   0.04310   0.00000  Uiso   1.00
C756   C     0.94893   0.94537   0.45720   0.00000  Uiso   1.00
C757   C     0.92060   0.99224   0.44404   0.00000  Uiso   1.00
C758   C     0.81995   0.91948   0.12175   0.00000  Uiso   1.00
C759   C     0.80614   0.85729   0.05815   0.00000  Uiso   1.00
C760   C     0.84078   0.92963   0.17427   0.00000  Uiso   1.00
C761   C     0.85589   0.74429   0.37194   0.00000  Uiso   1.00
C762   C     0.82708   0.73642   0.32163   0.00000  Uiso   1.00
C763   C     0.81058   0.75145   0.18270   0.00000  Uiso   1.00
C764   C     0.84303   0.72954   0.14032   0.00000  Uiso   1.00
C765   C     0.84072   0.92076   0.30552   0.00000  Uiso   1.00
C766   C     0.88543   0.93982   0.34306   0.00000  Uiso   1.00
C767   C     0.86432   0.79965   0.44181   0.00000  Uiso   1.00
C768   C     0.75288   0.86640   0.04189   0.00000  Uiso   1.00
C769   C     0.91517   0.78443   0.46024   0.00000  Uiso   1.00
C770   C     0.68931   0.98611   0.24796   0.00000  Uiso   1.00
C771   C     0.97734   0.68053   0.25159   0.00000  Uiso   1.00
C772   C     0.68788   0.84035   0.34163   0.00000  Uiso   1.00
H773   H     0.72371   0.88122   0.06792   0.00000  Uiso   1.00
H774   H     0.71473   0.68332   0.11447   0.00000  Uiso   1.00
H775   H     0.78527   0.71677   0.04768   0.00000  Uiso   1.00
H776   H     0.75931   0.98305   0.04606   0.00000  Uiso   1.00
H777   H     0.72923   0.69077   0.00578   0.00000  Uiso   1.00
H778   H     0.98738   0.96260   0.47858   0.00000  Uiso   1.00
H779   H     0.91961   0.92394   0.48045   0.00000  Uiso   1.00
H780   H     0.92095   0.68591   0.47721   0.00000  Uiso   1.00
H781   H     0.94433   0.67783   0.41566   0.00000  Uiso   1.00
H782   H     0.87530   0.98293   0.43406   0.00000  Uiso   1.00
H783   H     0.84927   0.94166   0.09896   0.00000  Uiso   1.00
H784   H     0.94488   0.76820   0.43564   0.00000  Uiso   1.00
H785   H     0.77743   0.93407   0.11952   0.00000  Uiso   1.00
H786   H     0.88472   0.91919   0.17875   0.00000  Uiso   1.00
H787   H     0.83940   0.97082   0.18723   0.00000  Uiso   1.00
H788   H     0.81264   0.90642   0.19645   0.00000  Uiso   1.00
H789   H     0.83353   0.71680   0.39501   0.00000  Uiso   1.00
H790   H     0.90025   0.73517   0.36736   0.00000  Uiso   1.00
H791   H     0.82770   0.69591   0.30628   0.00000  Uiso   1.00
H792   H     0.78248   0.74548   0.32241   0.00000  Uiso   1.00
H793   H     0.85046   0.76091   0.29744   0.00000  Uiso   1.00
H794   H     0.76510   0.74920   0.17231   0.00000  Uiso   1.00
H795   H     0.91124   0.87351   0.10676   0.00000  Uiso   1.00
H796   H     0.81703   0.72809   0.21396   0.00000  Uiso   1.00
H797   H     0.84410   0.75609   0.11110   0.00000  Uiso   1.00
H798   H     0.88707   0.72454   0.15246   0.00000  Uiso   1.00
H799   H     0.82220   0.69191   0.12554   0.00000  Uiso   1.00
H800   H     0.80039   0.93613   0.31654   0.00000  Uiso   1.00
H801   H     0.85208   0.93615   0.27059   0.00000  Uiso   1.00
H802   H     0.88878   0.98215   0.34738   0.00000  Uiso   1.00
H803   H     0.87285   0.92256   0.37665   0.00000  Uiso   1.00
H804   H     0.92682   0.92716   0.33268   0.00000  Uiso   1.00
H805   H     0.76223   0.79464   0.38748   0.00000  Uiso   1.00
H806   H     0.99298   0.88861   0.00867   0.00000  Uiso   1.00
H807   H     0.66936   0.74896   0.00201   0.00000  Uiso   1.00
H808   H     0.73198   0.67002   0.24452   0.00000  Uiso   1.00
H809   H     0.93467   0.99664   0.25492   0.00000  Uiso   1.00
H810   H     0.99425   0.68544   0.06912   0.00000  Uiso   1.00
N811   N     0.81362   0.81883   0.23739   0.00000  Uiso   1.00
N812   N     0.85305   0.84784   0.26260   0.00000  Uiso   1.00
O813   O     0.96386   0.91298   0.25309   0.00000  Uiso   1.00
O814   O     0.96385   0.91160   0.41658   0.00000  Uiso   1.00
O815   O     0.81770   0.86575   0.10774   0.00000  Uiso   1.00
O816   O     0.85502   0.79618   0.39166   0.00000  Uiso   1.00
O817   O     0.83124   0.80292   0.19346   0.00000  Uiso   1.00
O818   O     0.83445   0.86698   0.30494   0.00000  Uiso   1.00
O819   O     0.70281   0.75369   0.24691   0.00000  Uiso   1.00
O820   O     0.72488   0.90368   0.24501   0.00000  Uiso   1.00
O821   O     0.94178   0.76298   0.25499   0.00000  Uiso   1.00
O822   O     0.96995   0.84063   0.32247   0.00000  Uiso   1.00
O823   O     0.69672   0.82603   0.17753   0.00000  Uiso   1.00
O824   O     0.73098   0.83134   0.31439   0.00000  Uiso   1.00
O825   O     0.93569   0.83533   0.18561   0.00000  Uiso   1.00
O826   O     0.70743   0.75658   0.09527   0.00000  Uiso   1.00
Zn827  Zn    0.93700   0.83954   0.25539   0.00000  Uiso   1.00
Zn828  Zn    0.72967   0.82713   0.24460   0.00000  Uiso   1.00
C829   C     0.01504   0.26483   0.74872   0.00000  Uiso   1.00
C830   C     0.31245   0.16036   0.65882   0.00000  Uiso   1.00
C831   C     0.03265   0.18028   0.89552   0.00000  Uiso   1.00
C832   C     0.30171   0.14994   0.60592   0.00000  Uiso   1.00
C833   C     0.01868   0.20777   0.97966   0.00000  Uiso   1.00
C834   C     0.31175   0.10469   0.52700   0.00000  Uiso   1.00
C835   C     0.00343   0.21106   0.93029   0.00000  Uiso   1.00
C836   C     0.32854   0.11296   0.57656   0.00000  Uiso   1.00
C837   C     0.07972   0.15632   0.91215   0.00000  Uiso   1.00
C838   C     0.25721   0.17355   0.58605   0.00000  Uiso   1.00
C839   C     0.10412   0.16798   0.95934   0.00000  Uiso   1.00
C840   C     0.31828   0.06850   0.75111   0.00000  Uiso   1.00
C841   C     0.23181   0.15574   0.54059   0.00000  Uiso   1.00
C842   C     0.06995   0.19149   0.99347   0.00000  Uiso   1.00
C843   C     0.26322   0.12500   0.50939   0.00000  Uiso   1.00
C844   C     0.15929   0.15573   0.97455   0.00000  Uiso   1.00
C845   C     0.17746   0.16831   0.52490   0.00000  Uiso   1.00
C846   C     0.03735   0.03597   0.58154   0.00000  Uiso   1.00
C847   C     0.08031   0.02276   0.54310   0.00000  Uiso   1.00
C848   C     0.28227   0.27871   0.95720   0.00000  Uiso   1.00
C849   C     0.25393   0.32557   0.94404   0.00000  Uiso   1.00
C850   C     0.15328   0.25281   0.62175   0.00000  Uiso   1.00
C851   C     0.13948   0.19062   0.55815   0.00000  Uiso   1.00
C852   C     0.17412   0.26297   0.67427   0.00000  Uiso   1.00
C853   C     0.18922   0.07762   0.87194   0.00000  Uiso   1.00
C854   C     0.16041   0.06975   0.82163   0.00000  Uiso   1.00
C855   C     0.14392   0.08479   0.68270   0.00000  Uiso   1.00
C856   C     0.17636   0.06287   0.64032   0.00000  Uiso   1.00
C857   C     0.17405   0.25409   0.80552   0.00000  Uiso   1.00
C858   C     0.21877   0.27315   0.84306   0.00000  Uiso   1.00
C859   C     0.19766   0.13298   0.94181   0.00000  Uiso   1.00
C860   C     0.08622   0.19973   0.54189   0.00000  Uiso   1.00
C861   C     0.24850   0.11776   0.96024   0.00000  Uiso   1.00
C862   C     0.02264   0.31945   0.74796   0.00000  Uiso   1.00
C863   C     0.31067   0.01387   0.75159   0.00000  Uiso   1.00
C864   C     0.02121   0.17369   0.84163   0.00000  Uiso   1.00
H865   H     0.05704   0.21455   0.56792   0.00000  Uiso   1.00
H866   H     0.04806   0.01666   0.61447   0.00000  Uiso   1.00
H867   H     0.11860   0.05011   0.54768   0.00000  Uiso   1.00
H868   H     0.09264   0.31639   0.54606   0.00000  Uiso   1.00
H869   H     0.06257   0.02410   0.50578   0.00000  Uiso   1.00
H870   H     0.32071   0.29594   0.97858   0.00000  Uiso   1.00
H871   H     0.25294   0.25727   0.98045   0.00000  Uiso   1.00
H872   H     0.25429   0.01925   0.97721   0.00000  Uiso   1.00
H873   H     0.27766   0.01116   0.91566   0.00000  Uiso   1.00
H874   H     0.20863   0.31626   0.93406   0.00000  Uiso   1.00
H875   H     0.18261   0.27499   0.59896   0.00000  Uiso   1.00
H876   H     0.27822   0.10154   0.93564   0.00000  Uiso   1.00
H877   H     0.11077   0.26740   0.61952   0.00000  Uiso   1.00
H878   H     0.21805   0.25252   0.67875   0.00000  Uiso   1.00
H879   H     0.17273   0.30415   0.68723   0.00000  Uiso   1.00
H880   H     0.14598   0.23975   0.69645   0.00000  Uiso   1.00
H881   H     0.16686   0.05014   0.89501   0.00000  Uiso   1.00
H882   H     0.23359   0.06851   0.86736   0.00000  Uiso   1.00
H883   H     0.16103   0.02924   0.80628   0.00000  Uiso   1.00
H884   H     0.11582   0.07881   0.82241   0.00000  Uiso   1.00
H885   H     0.18380   0.09425   0.79744   0.00000  Uiso   1.00
H886   H     0.09843   0.08254   0.67231   0.00000  Uiso   1.00
H887   H     0.24458   0.20684   0.60676   0.00000  Uiso   1.00
H888   H     0.15037   0.06142   0.71396   0.00000  Uiso   1.00
H889   H     0.17744   0.08942   0.61110   0.00000  Uiso   1.00
H890   H     0.22040   0.05787   0.65246   0.00000  Uiso   1.00
H891   H     0.15553   0.02524   0.62554   0.00000  Uiso   1.00
H892   H     0.13372   0.26947   0.81654   0.00000  Uiso   1.00
H893   H     0.18541   0.26948   0.77059   0.00000  Uiso   1.00
H894   H     0.22211   0.31548   0.84738   0.00000  Uiso   1.00
H895   H     0.20618   0.25589   0.87665   0.00000  Uiso   1.00
H896   H     0.26016   0.26049   0.83268   0.00000  Uiso   1.00
H897   H     0.09557   0.12797   0.88748   0.00000  Uiso   1.00
H898   H     0.32631   0.22194   0.50867   0.00000  Uiso   1.00
H899   H     0.00269   0.08229   0.50201   0.00000  Uiso   1.00
H900   H     0.06531   0.00336   0.74452   0.00000  Uiso   1.00
H901   H     0.26800   0.32997   0.75492   0.00000  Uiso   1.00
H902   H     0.32759   0.01877   0.56912   0.00000  Uiso   1.00
N903   N     0.14695   0.15216   0.73739   0.00000  Uiso   1.00
N904   N     0.18638   0.18117   0.76260   0.00000  Uiso   1.00
O905   O     0.29719   0.24631   0.75309   0.00000  Uiso   1.00
O906   O     0.29718   0.24493   0.91658   0.00000  Uiso   1.00
O907   O     0.15103   0.19909   0.60774   0.00000  Uiso   1.00
O908   O     0.18836   0.12952   0.89166   0.00000  Uiso   1.00
O909   O     0.16458   0.13626   0.69346   0.00000  Uiso   1.00
O910   O     0.16778   0.20032   0.80494   0.00000  Uiso   1.00
O911   O     0.03614   0.08702   0.74691   0.00000  Uiso   1.00
O912   O     0.05822   0.23702   0.74501   0.00000  Uiso   1.00
O913   O     0.27512   0.09632   0.75499   0.00000  Uiso   1.00
O914   O     0.30328   0.17397   0.82247   0.00000  Uiso   1.00
O915   O     0.03005   0.15937   0.67753   0.00000  Uiso   1.00
O916   O     0.06431   0.16467   0.81439   0.00000  Uiso   1.00
O917   O     0.26902   0.16866   0.68561   0.00000  Uiso   1.00
O918   O     0.04076   0.08992   0.59527   0.00000  Uiso   1.00
Zn919  Zn    0.27033   0.17287   0.75539   0.00000  Uiso   1.00
Zn920  Zn    0.06300   0.16046   0.74460   0.00000  Uiso   1.00
C921   C     0.34837   0.26483   0.74872   0.00000  Uiso   1.00
C922   C     0.64579   0.16036   0.65882   0.00000  Uiso   1.00
C923   C     0.36598   0.18028   0.89552   0.00000  Uiso   1.00
C924   C     0.63504   0.14994   0.60592   0.00000  Uiso   1.00
C925   C     0.35201   0.20777   0.97966   0.00000  Uiso   1.00
C926   C     0.64509   0.10469   0.52700   0.00000  Uiso   1.00
C927   C     0.33676   0.21106   0.93029   0.00000  Uiso   1.00
C928   C     0.66188   0.11296   0.57656   0.00000  Uiso   1.00
C929   C     0.41306   0.15632   0.91215   0.00000  Uiso   1.00
C930   C     0.59055   0.17355   0.58605   0.00000  Uiso   1.00
C931   C     0.43745   0.16798   0.95934   0.00000  Uiso   1.00
C932   C     0.65161   0.06850   0.75111   0.00000  Uiso   1.00
C933   C     0.56514   0.15574   0.54059   0.00000  Uiso   1.00
C934   C     0.40328   0.19149   0.99347   0.00000  Uiso   1.00
C935   C     0.59655   0.12500   0.50939   0.00000  Uiso   1.00
C936   C     0.49262   0.15573   0.97455   0.00000  Uiso   1.00
C937   C     0.51080   0.16831   0.52490   0.00000  Uiso   1.00
C938   C     0.37069   0.03597   0.58154   0.00000  Uiso   1.00
C939   C     0.41364   0.02276   0.54310   0.00000  Uiso   1.00
C940   C     0.61560   0.27871   0.95720   0.00000  Uiso   1.00
C941   C     0.58727   0.32557   0.94404   0.00000  Uiso   1.00
C942   C     0.48661   0.25281   0.62175   0.00000  Uiso   1.00
C943   C     0.47281   0.19062   0.55815   0.00000  Uiso   1.00
C944   C     0.50745   0.26297   0.67427   0.00000  Uiso   1.00
C945   C     0.52256   0.07762   0.87194   0.00000  Uiso   1.00
C946   C     0.49374   0.06975   0.82163   0.00000  Uiso   1.00
C947   C     0.47725   0.08479   0.68270   0.00000  Uiso   1.00
C948   C     0.50970   0.06287   0.64032   0.00000  Uiso   1.00
C949   C     0.50739   0.25409   0.80552   0.00000  Uiso   1.00
C950   C     0.55210   0.27315   0.84306   0.00000  Uiso   1.00
C951   C     0.53099   0.13298   0.94181   0.00000  Uiso   1.00
C952   C     0.41955   0.19973   0.54189   0.00000  Uiso   1.00
C953   C     0.58184   0.11776   0.96024   0.00000  Uiso   1.00
C954   C     0.35597   0.31945   0.74796   0.00000  Uiso   1.00
C955   C     0.64400   0.01387   0.75159   0.00000  Uiso   1.00
C956   C     0.35455   0.17369   0.84163   0.00000  Uiso   1.00
H957   H     0.39038   0.21455   0.56792   0.00000  Uiso   1.00
H958   H     0.38139   0.01666   0.61447   0.00000  Uiso   1.00
H959   H     0.45193   0.05011   0.54768   0.00000  Uiso   1.00
H960   H     0.42597   0.31639   0.54606   0.00000  Uiso   1.00
H961   H     0.39590   0.02410   0.50578   0.00000  Uiso   1.00
H962   H     0.65405   0.29594   0.97858   0.00000  Uiso   1.00
H963   H     0.58627   0.25727   0.98045   0.00000  Uiso   1.00
H964   H     0.58762   0.01925   0.97721   0.00000  Uiso   1.00
H965   H     0.61100   0.01116   0.91566   0.00000  Uiso   1.00
H966   H     0.54196   0.31626   0.93406   0.00000  Uiso   1.00
H967   H     0.51594   0.27499   0.59896   0.00000  Uiso   1.00
H968   H     0.61155   0.10154   0.93564   0.00000  Uiso   1.00
H969   H     0.44410   0.26740   0.61952   0.00000  Uiso   1.00
H970   H     0.55139   0.25252   0.67875   0.00000  Uiso   1.00
H971   H     0.50606   0.30415   0.68723   0.00000  Uiso   1.00
H972   H     0.47931   0.23975   0.69645   0.00000  Uiso   1.00
H973   H     0.50019   0.05014   0.89501   0.00000  Uiso   1.00
H974   H     0.56692   0.06851   0.86736   0.00000  Uiso   1.00
H975   H     0.49437   0.02924   0.80628   0.00000  Uiso   1.00
H976   H     0.44915   0.07881   0.82241   0.00000  Uiso   1.00
H977   H     0.51713   0.09425   0.79744   0.00000  Uiso   1.00
H978   H     0.43177   0.08254   0.67231   0.00000  Uiso   1.00
H979   H     0.57791   0.20684   0.60676   0.00000  Uiso   1.00
H980   H     0.48370   0.06142   0.71396   0.00000  Uiso   1.00
H981   H     0.51077   0.08942   0.61110   0.00000  Uiso   1.00
H982   H     0.55374   0.05787   0.65246   0.00000  Uiso   1.00
H983   H     0.48887   0.02524   0.62554   0.00000  Uiso   1.00
H984   H     0.46706   0.26947   0.81654   0.00000  Uiso   1.00
H985   H     0.51875   0.26948   0.77059   0.00000  Uiso   1.00
H986   H     0.55545   0.31548   0.84738   0.00000  Uiso   1.00
H987   H     0.53952   0.25589   0.87665   0.00000  Uiso   1.00
H988   H     0.59349   0.26049   0.83268   0.00000  Uiso   1.00
H989   H     0.42890   0.12797   0.88748   0.00000  Uiso   1.00
H990   H     0.65965   0.22194   0.50867   0.00000  Uiso   1.00
H991   H     0.33602   0.08229   0.50201   0.00000  Uiso   1.00
H992   H     0.39865   0.00336   0.74452   0.00000  Uiso   1.00
H993   H     0.60134   0.32997   0.75492   0.00000  Uiso   1.00
H994   H     0.66092   0.01877   0.56912   0.00000  Uiso   1.00
N995   N     0.48029   0.15216   0.73739   0.00000  Uiso   1.00
N996   N     0.51971   0.18117   0.76260   0.00000  Uiso   1.00
O997   O     0.63052   0.24631   0.75309   0.00000  Uiso   1.00
O998   O     0.63052   0.24493   0.91658   0.00000  Uiso   1.00
O999   O     0.48436   0.19909   0.60774   0.00000  Uiso   1.00
O1000  O     0.52169   0.12952   0.89166   0.00000  Uiso   1.00
O1001  O     0.49791   0.13626   0.69346   0.00000  Uiso   1.00
O1002  O     0.50111   0.20032   0.80494   0.00000  Uiso   1.00
O1003  O     0.36948   0.08702   0.74691   0.00000  Uiso   1.00
O1004  O     0.39155   0.23702   0.74501   0.00000  Uiso   1.00
O1005  O     0.60845   0.09632   0.75499   0.00000  Uiso   1.00
O1006  O     0.63662   0.17397   0.82247   0.00000  Uiso   1.00
O1007  O     0.36338   0.15937   0.67753   0.00000  Uiso   1.00
O1008  O     0.39764   0.16467   0.81439   0.00000  Uiso   1.00
O1009  O     0.60236   0.16866   0.68561   0.00000  Uiso   1.00
O1010  O     0.37409   0.08992   0.59527   0.00000  Uiso   1.00
Zn1011 Zn    0.60366   0.17287   0.75539   0.00000  Uiso   1.00
Zn1012 Zn    0.39634   0.16046   0.74460   0.00000  Uiso   1.00
C1013  C     0.68171   0.26483   0.74872   0.00000  Uiso   1.00
C1014  C     0.97912   0.16036   0.65882   0.00000  Uiso   1.00
C1015  C     0.69931   0.18028   0.89552   0.00000  Uiso   1.00
C1016  C     0.96838   0.14994   0.60592   0.00000  Uiso   1.00
C1017  C     0.68535   0.20777   0.97966   0.00000  Uiso   1.00
C1018  C     0.97842   0.10469   0.52700   0.00000  Uiso   1.00
C1019  C     0.67010   0.21106   0.93029   0.00000  Uiso   1.00
C1020  C     0.99521   0.11296   0.57656   0.00000  Uiso   1.00
C1021  C     0.74639   0.15632   0.91215   0.00000  Uiso   1.00
C1022  C     0.92388   0.17355   0.58605   0.00000  Uiso   1.00
C1023  C     0.77079   0.16798   0.95934   0.00000  Uiso   1.00
C1024  C     0.98494   0.06850   0.75111   0.00000  Uiso   1.00
C1025  C     0.89847   0.15574   0.54059   0.00000  Uiso   1.00
C1026  C     0.73662   0.19149   0.99347   0.00000  Uiso   1.00
C1027  C     0.92988   0.12500   0.50939   0.00000  Uiso   1.00
C1028  C     0.82595   0.15573   0.97455   0.00000  Uiso   1.00
C1029  C     0.84413   0.16831   0.52490   0.00000  Uiso   1.00
C1030  C     0.70402   0.03597   0.58154   0.00000  Uiso   1.00
C1031  C     0.74697   0.02276   0.54310   0.00000  Uiso   1.00
C1032  C     0.94893   0.27871   0.95720   0.00000  Uiso   1.00
C1033  C     0.92060   0.32557   0.94404   0.00000  Uiso   1.00
C1034  C     0.81995   0.25281   0.62175   0.00000  Uiso   1.00
C1035  C     0.80614   0.19062   0.55815   0.00000  Uiso   1.00
C1036  C     0.84078   0.26297   0.67427   0.00000  Uiso   1.00
C1037  C     0.85589   0.07762   0.87194   0.00000  Uiso   1.00
C1038  C     0.82708   0.06975   0.82163   0.00000  Uiso   1.00
C1039  C     0.81058   0.08479   0.68270   0.00000  Uiso   1.00
C1040  C     0.84303   0.06287   0.64032   0.00000  Uiso   1.00
C1041  C     0.84072   0.25409   0.80552   0.00000  Uiso   1.00
C1042  C     0.88543   0.27315   0.84306   0.00000  Uiso   1.00
C1043  C     0.86432   0.13298   0.94181   0.00000  Uiso   1.00
C1044  C     0.75288   0.19973   0.54189   0.00000  Uiso   1.00
C1045  C     0.91517   0.11776   0.96024   0.00000  Uiso   1.00
C1046  C     0.68931   0.31945   0.74796   0.00000  Uiso   1.00
C1047  C     0.97734   0.01387   0.75159   0.00000  Uiso   1.00
C1048  C     0.68788   0.17369   0.84163   0.00000  Uiso   1.00
H1049  H     0.72371   0.21455   0.56792   0.00000  Uiso   1.00
H1050  H     0.71473   0.01666   0.61447   0.00000  Uiso   1.00
H1051  H     0.78527   0.05011   0.54768   0.00000  Uiso   1.00
H1052  H     0.75931   0.31639   0.54606   0.00000  Uiso   1.00
H1053  H     0.72923   0.02410   0.50578   0.00000  Uiso   1.00
H1054  H     0.98738   0.29594   0.97858   0.00000  Uiso   1.00
H1055  H     0.91961   0.25727   0.98045   0.00000  Uiso   1.00
H1056  H     0.92095   0.01925   0.97721   0.00000  Uiso   1.00
H1057  H     0.94433   0.01116   0.91566   0.00000  Uiso   1.00
H1058  H     0.87530   0.31626   0.93406   0.00000  Uiso   1.00
H1059  H     0.84927   0.27499   0.59896   0.00000  Uiso   1.00
H1060  H     0.94488   0.10154   0.93564   0.00000  Uiso   1.00
H1061  H     0.77743   0.26740   0.61952   0.00000  Uiso   1.00
H1062  H     0.88472   0.25252   0.67875   0.00000  Uiso   1.00
H1063  H     0.83940   0.30415   0.68723   0.00000  Uiso   1.00
H1064  H     0.81264   0.23975   0.69645   0.00000  Uiso   1.00
H1065  H     0.83353   0.05014   0.89501   0.00000  Uiso   1.00
H1066  H     0.90025   0.06851   0.86736   0.00000  Uiso   1.00
H1067  H     0.82770   0.02924   0.80628   0.00000  Uiso   1.00
H1068  H     0.78248   0.07881   0.82241   0.00000  Uiso   1.00
H1069  H     0.85046   0.09425   0.79744   0.00000  Uiso   1.00
H1070  H     0.76510   0.08254   0.67231   0.00000  Uiso   1.00
H1071  H     0.91124   0.20684   0.60676   0.00000  Uiso   1.00
H1072  H     0.81703   0.06142   0.71396   0.00000  Uiso   1.00
H1073  H     0.84410   0.08942   0.61110   0.00000  Uiso   1.00
H1074  H     0.88707   0.05787   0.65246   0.00000  Uiso   1.00
H1075  H     0.82220   0.02524   0.62554   0.00000  Uiso   1.00
H1076  H     0.80039   0.26947   0.81654   0.00000  Uiso   1.00
H1077  H     0.85208   0.26948   0.77059   0.00000  Uiso   1.00
H1078  H     0.88878   0.31548   0.84738   0.00000  Uiso   1.00
H1079  H     0.87285   0.25589   0.87665   0.00000  Uiso   1.00
H1080  H     0.92682   0.26049   0.83268   0.00000  Uiso   1.00
H1081  H     0.76223   0.12797   0.88748   0.00000  Uiso   1.00
H1082  H     0.99298   0.22194   0.50867   0.00000  Uiso   1.00
H1083  H     0.66936   0.08229   0.50201   0.00000  Uiso   1.00
H1084  H     0.73198   0.00336   0.74452   0.00000  Uiso   1.00
H1085  H     0.93467   0.32997   0.75492   0.00000  Uiso   1.00
H1086  H     0.99425   0.01877   0.56912   0.00000  Uiso   1.00
N1087  N     0.81362   0.15216   0.73739   0.00000  Uiso   1.00
N1088  N     0.85305   0.18117   0.76260   0.00000  Uiso   1.00
O1089  O     0.96386   0.24631   0.75309   0.00000  Uiso   1.00
O1090  O     0.96385   0.24493   0.91658   0.00000  Uiso   1.00
O1091  O     0.81770   0.19909   0.60774   0.00000  Uiso   1.00
O1092  O     0.85502   0.12952   0.89166   0.00000  Uiso   1.00
O1093  O     0.83124   0.13626   0.69346   0.00000  Uiso   1.00
O1094  O     0.83445   0.20032   0.80494   0.00000  Uiso   1.00
O1095  O     0.70281   0.08702   0.74691   0.00000  Uiso   1.00
O1096  O     0.72488   0.23702   0.74501   0.00000  Uiso   1.00
O1097  O     0.94178   0.09632   0.75499   0.00000  Uiso   1.00
O1098  O     0.96995   0.17397   0.82247   0.00000  Uiso   1.00
O1099  O     0.69672   0.15937   0.67753   0.00000  Uiso   1.00
O1100  O     0.73098   0.16467   0.81439   0.00000  Uiso   1.00
O1101  O     0.93569   0.16866   0.68561   0.00000  Uiso   1.00
O1102  O     0.70743   0.08992   0.59527   0.00000  Uiso   1.00
Zn1103 Zn    0.93700   0.17287   0.75539   0.00000  Uiso   1.00
Zn1104 Zn    0.72967   0.16046   0.74460   0.00000  Uiso   1.00
C1105  C     0.01504   0.59816   0.74872   0.00000  Uiso   1.00
C1106  C     0.31245   0.49369   0.65882   0.00000  Uiso   1.00
C1107  C     0.03265   0.51362   0.89552   0.00000  Uiso   1.00
C1108  C     0.30171   0.48327   0.60592   0.00000  Uiso   1.00
C1109  C     0.01868   0.54111   0.97966   0.00000  Uiso   1.00
C1110  C     0.31175   0.43802   0.52700   0.00000  Uiso   1.00
C1111  C     0.00343   0.54439   0.93029   0.00000  Uiso   1.00
C1112  C     0.32854   0.44630   0.57656   0.00000  Uiso   1.00
C1113  C     0.07972   0.48965   0.91215   0.00000  Uiso   1.00
C1114  C     0.25721   0.50688   0.58605   0.00000  Uiso   1.00
C1115  C     0.10412   0.50131   0.95934   0.00000  Uiso   1.00
C1116  C     0.31828   0.40183   0.75111   0.00000  Uiso   1.00
C1117  C     0.23181   0.48907   0.54059   0.00000  Uiso   1.00
C1118  C     0.06995   0.52483   0.99347   0.00000  Uiso   1.00
C1119  C     0.26322   0.45833   0.50939   0.00000  Uiso   1.00
C1120  C     0.15929   0.48907   0.97455   0.00000  Uiso   1.00
C1121  C     0.17746   0.50164   0.52490   0.00000  Uiso   1.00
C1122  C     0.03735   0.36930   0.58154   0.00000  Uiso   1.00
C1123  C     0.08031   0.35610   0.54310   0.00000  Uiso   1.00
C1124  C     0.28227   0.61204   0.95720   0.00000  Uiso   1.00
C1125  C     0.25393   0.65890   0.94404   0.00000  Uiso   1.00
C1126  C     0.15328   0.58615   0.62175   0.00000  Uiso   1.00
C1127  C     0.13948   0.52395   0.55815   0.00000  Uiso   1.00
C1128  C     0.17412   0.59630   0.67427   0.00000  Uiso   1.00
C1129  C     0.18922   0.41095   0.87194   0.00000  Uiso   1.00
C1130  C     0.16041   0.40309   0.82163   0.00000  Uiso   1.00
C1131  C     0.14392   0.41812   0.68270   0.00000  Uiso   1.00
C1132  C     0.17636   0.39621   0.64032   0.00000  Uiso   1.00
C1133  C     0.17405   0.58743   0.80552   0.00000  Uiso   1.00
C1134  C     0.21877   0.60648   0.84306   0.00000  Uiso   1.00
C1135  C     0.19766   0.46631   0.94181   0.00000  Uiso   1.00
C1136  C     0.08622   0.53307   0.54189   0.00000  Uiso   1.00
C1137  C     0.24850   0.45110   0.96024   0.00000  Uiso   1.00
C1138  C     0.02264   0.65278   0.74796   0.00000  Uiso   1.00
C1139  C     0.31067   0.34720   0.75159   0.00000  Uiso   1.00
C1140  C     0.02121   0.50702   0.84163   0.00000  Uiso   1.00
H1141  H     0.05704   0.54789   0.56792   0.00000  Uiso   1.00
H1142  H     0.04806   0.34999   0.61447   0.00000  Uiso   1.00
H1143  H     0.11860   0.38344   0.54768   0.00000  Uiso   1.00
H1144  H     0.09264   0.64972   0.54606   0.00000  Uiso   1.00
H1145  H     0.06257   0.35743   0.50578   0.00000  Uiso   1.00
H1146  H     0.32071   0.62927   0.97858   0.00000  Uiso   1.00
H1147  H     0.25294   0.59060   0.98045   0.00000  Uiso   1.00
H1148  H     0.25429   0.35258   0.97721   0.00000  Uiso   1.00
H1149  H     0.27766   0.34449   0.91566   0.00000  Uiso   1.00
H1150  H     0.20863   0.64959   0.93406   0.00000  Uiso   1.00
H1151  H     0.18261   0.60832   0.59896   0.00000  Uiso   1.00
H1152  H     0.27822   0.43487   0.93564   0.00000  Uiso   1.00
H1153  H     0.11077   0.60073   0.61952   0.00000  Uiso   1.00
H1154  H     0.21805   0.58585   0.67875   0.00000  Uiso   1.00
H1155  H     0.17273   0.63749   0.68723   0.00000  Uiso   1.00
H1156  H     0.14598   0.57308   0.69645   0.00000  Uiso   1.00
H1157  H     0.16686   0.38347   0.89501   0.00000  Uiso   1.00
H1158  H     0.23359   0.40184   0.86736   0.00000  Uiso   1.00
H1159  H     0.16103   0.36257   0.80628   0.00000  Uiso   1.00
H1160  H     0.11582   0.41215   0.82241   0.00000  Uiso   1.00
H1161  H     0.18380   0.42758   0.79744   0.00000  Uiso   1.00
H1162  H     0.09843   0.41587   0.67231   0.00000  Uiso   1.00
H1163  H     0.24458   0.54018   0.60676   0.00000  Uiso   1.00
H1164  H     0.15037   0.39476   0.71396   0.00000  Uiso   1.00
H1165  H     0.17744   0.42276   0.61110   0.00000  Uiso   1.00
H1166  H     0.22040   0.39121   0.65246   0.00000  Uiso   1.00
H1167  H     0.15553   0.35858   0.62554   0.00000  Uiso   1.00
H1168  H     0.13372   0.60280   0.81654   0.00000  Uiso   1.00
H1169  H     0.18541   0.60281   0.77059   0.00000  Uiso   1.00
H1170  H     0.22211   0.64881   0.84738   0.00000  Uiso   1.00
H1171  H     0.20618   0.58923   0.87665   0.00000  Uiso   1.00
H1172  H     0.26016   0.59383   0.83268   0.00000  Uiso   1.00
H1173  H     0.09557   0.46131   0.88748   0.00000  Uiso   1.00
H1174  H     0.32631   0.55528   0.50867   0.00000  Uiso   1.00
H1175  H     0.00269   0.41563   0.50201   0.00000  Uiso   1.00
H1176  H     0.06531   0.33669   0.74452   0.00000  Uiso   1.00
H1177  H     0.26800   0.66331   0.75492   0.00000  Uiso   1.00
H1178  H     0.32759   0.35211   0.56912   0.00000  Uiso   1.00
N1179  N     0.14695   0.48550   0.73739   0.00000  Uiso   1.00
N1180  N     0.18638   0.51450   0.76260   0.00000  Uiso   1.00
O1181  O     0.29719   0.57964   0.75309   0.00000  Uiso   1.00
O1182  O     0.29718   0.57827   0.91658   0.00000  Uiso   1.00
O1183  O     0.15103   0.53242   0.60774   0.00000  Uiso   1.00
O1184  O     0.18836   0.46285   0.89166   0.00000  Uiso   1.00
O1185  O     0.16458   0.46959   0.69346   0.00000  Uiso   1.00
O1186  O     0.16778   0.53365   0.80494   0.00000  Uiso   1.00
O1187  O     0.03614   0.42036   0.74691   0.00000  Uiso   1.00
O1188  O     0.05822   0.57035   0.74501   0.00000  Uiso   1.00
O1189  O     0.27512   0.42965   0.75499   0.00000  Uiso   1.00
O1190  O     0.30328   0.50730   0.82247   0.00000  Uiso   1.00
O1191  O     0.03005   0.49270   0.67753   0.00000  Uiso   1.00
O1192  O     0.06431   0.49801   0.81439   0.00000  Uiso   1.00
O1193  O     0.26902   0.50199   0.68561   0.00000  Uiso   1.00
O1194  O     0.04076   0.42325   0.59527   0.00000  Uiso   1.00
Zn1195 Zn    0.27033   0.50621   0.75539   0.00000  Uiso   1.00
Zn1196 Zn    0.06300   0.49379   0.74460   0.00000  Uiso   1.00
C1197  C     0.34837   0.59816   0.74872   0.00000  Uiso   1.00
C1198  C     0.64579   0.49369   0.65882   0.00000  Uiso   1.00
C1199  C     0.36598   0.51362   0.89552   0.00000  Uiso   1.00
C1200  C     0.63504   0.48327   0.60592   0.00000  Uiso   1.00
C1201  C     0.35201   0.54111   0.97966   0.00000  Uiso   1.00
C1202  C     0.64509   0.43802   0.52700   0.00000  Uiso   1.00
C1203  C     0.33676   0.54439   0.93029   0.00000  Uiso   1.00
C1204  C     0.66188   0.44630   0.57656   0.00000  Uiso   1.00
C1205  C     0.41306   0.48965   0.91215   0.00000  Uiso   1.00
C1206  C     0.59055   0.50688   0.58605   0.00000  Uiso   1.00
C1207  C     0.43745   0.50131   0.95934   0.00000  Uiso   1.00
C1208  C     0.65161   0.40183   0.75111   0.00000  Uiso   1.00
C1209  C     0.56514   0.48907   0.54059   0.00000  Uiso   1.00
C1210  C     0.40328   0.52483   0.99347   0.00000  Uiso   1.00
C1211  C     0.59655   0.45833   0.50939   0.00000  Uiso   1.00
C1212  C     0.49262   0.48907   0.97455   0.00000  Uiso   1.00
C1213  C     0.51080   0.50164   0.52490   0.00000  Uiso   1.00
C1214  C     0.37069   0.36930   0.58154   0.00000  Uiso   1.00
C1215  C     0.41364   0.35610   0.54310   0.00000  Uiso   1.00
C1216  C     0.61560   0.61204   0.95720   0.00000  Uiso   1.00
C1217  C     0.58727   0.65890   0.94404   0.00000  Uiso   1.00
C1218  C     0.48661   0.58615   0.62175   0.00000  Uiso   1.00
C1219  C     0.47281   0.52395   0.55815   0.00000  Uiso   1.00
C1220  C     0.50745   0.59630   0.67427   0.00000  Uiso   1.00
C1221  C     0.52256   0.41095   0.87194   0.00000  Uiso   1.00
C1222  C     0.49374   0.40309   0.82163   0.00000  Uiso   1.00
C1223  C     0.47725   0.41812   0.68270   0.00000  Uiso   1.00
C1224  C     0.50970   0.39621   0.64032   0.00000  Uiso   1.00
C1225  C     0.50739   0.58743   0.80552   0.00000  Uiso   1.00
C1226  C     0.55210   0.60648   0.84306   0.00000  Uiso   1.00
C1227  C     0.53099   0.46631   0.94181   0.00000  Uiso   1.00
C1228  C     0.41955   0.53307   0.54189   0.00000  Uiso   1.00
C1229  C     0.58184   0.45110   0.96024   0.00000  Uiso   1.00
C1230  C     0.35597   0.65278   0.74796   0.00000  Uiso   1.00
C1231  C     0.64400   0.34720   0.75159   0.00000  Uiso   1.00
C1232  C     0.35455   0.50702   0.84163   0.00000  Uiso   1.00
H1233  H     0.39038   0.54789   0.56792   0.00000  Uiso   1.00
H1234  H     0.38139   0.34999   0.61447   0.00000  Uiso   1.00
H1235  H     0.45193   0.38344   0.54768   0.00000  Uiso   1.00
H1236  H     0.42597   0.64972   0.54606   0.00000  Uiso   1.00
H1237  H     0.39590   0.35743   0.50578   0.00000  Uiso   1.00
H1238  H     0.65405   0.62927   0.97858   0.00000  Uiso   1.00
H1239  H     0.58627   0.59060   0.98045   0.00000  Uiso   1.00
H1240  H     0.58762   0.35258   0.97721   0.00000  Uiso   1.00
H1241  H     0.61100   0.34449   0.91566   0.00000  Uiso   1.00
H1242  H     0.54196   0.64959   0.93406   0.00000  Uiso   1.00
H1243  H     0.51594   0.60832   0.59896   0.00000  Uiso   1.00
H1244  H     0.61155   0.43487   0.93564   0.00000  Uiso   1.00
H1245  H     0.44410   0.60073   0.61952   0.00000  Uiso   1.00
H1246  H     0.55139   0.58585   0.67875   0.00000  Uiso   1.00
H1247  H     0.50606   0.63749   0.68723   0.00000  Uiso   1.00
H1248  H     0.47931   0.57308   0.69645   0.00000  Uiso   1.00
H1249  H     0.50019   0.38347   0.89501   0.00000  Uiso   1.00
H1250  H     0.56692   0.40184   0.86736   0.00000  Uiso   1.00
H1251  H     0.49437   0.36257   0.80628   0.00000  Uiso   1.00
H1252  H     0.44915   0.41215   0.82241   0.00000  Uiso   1.00
H1253  H     0.51713   0.42758   0.79744   0.00000  Uiso   1.00
H1254  H     0.43177   0.41587   0.67231   0.00000  Uiso   1.00
H1255  H     0.57791   0.54018   0.60676   0.00000  Uiso   1.00
H1256  H     0.48370   0.39476   0.71396   0.00000  Uiso   1.00
H1257  H     0.51077   0.42276   0.61110   0.00000  Uiso   1.00
H1258  H     0.55374   0.39121   0.65246   0.00000  Uiso   1.00
H1259  H     0.48887   0.35858   0.62554   0.00000  Uiso   1.00
H1260  H     0.46706   0.60280   0.81654   0.00000  Uiso   1.00
H1261  H     0.51875   0.60281   0.77059   0.00000  Uiso   1.00
H1262  H     0.55545   0.64881   0.84738   0.00000  Uiso   1.00
H1263  H     0.53952   0.58923   0.87665   0.00000  Uiso   1.00
H1264  H     0.59349   0.59383   0.83268   0.00000  Uiso   1.00
H1265  H     0.42890   0.46131   0.88748   0.00000  Uiso   1.00
H1266  H     0.65965   0.55528   0.50867   0.00000  Uiso   1.00
H1267  H     0.33602   0.41563   0.50201   0.00000  Uiso   1.00
H1268  H     0.39865   0.33669   0.74452   0.00000  Uiso   1.00
H1269  H     0.60134   0.66331   0.75492   0.00000  Uiso   1.00
H1270  H     0.66092   0.35211   0.56912   0.00000  Uiso   1.00
N1271  N     0.48029   0.48550   0.73739   0.00000  Uiso   1.00
N1272  N     0.51971   0.51450   0.76260   0.00000  Uiso   1.00
O1273  O     0.63052   0.57964   0.75309   0.00000  Uiso   1.00
O1274  O     0.63052   0.57827   0.91658   0.00000  Uiso   1.00
O1275  O     0.48436   0.53242   0.60774   0.00000  Uiso   1.00
O1276  O     0.52169   0.46285   0.89166   0.00000  Uiso   1.00
O1277  O     0.49791   0.46959   0.69346   0.00000  Uiso   1.00
O1278  O     0.50111   0.53365   0.80494   0.00000  Uiso   1.00
O1279  O     0.36948   0.42036   0.74691   0.00000  Uiso   1.00
O1280  O     0.39155   0.57035   0.74501   0.00000  Uiso   1.00
O1281  O     0.60845   0.42965   0.75499   0.00000  Uiso   1.00
O1282  O     0.63662   0.50730   0.82247   0.00000  Uiso   1.00
O1283  O     0.36338   0.49270   0.67753   0.00000  Uiso   1.00
O1284  O     0.39764   0.49801   0.81439   0.00000  Uiso   1.00
O1285  O     0.60236   0.50199   0.68561   0.00000  Uiso   1.00
O1286  O     0.37409   0.42325   0.59527   0.00000  Uiso   1.00
Zn1287 Zn    0.60366   0.50621   0.75539   0.00000  Uiso   1.00
Zn1288 Zn    0.39634   0.49379   0.74460   0.00000  Uiso   1.00
C1289  C     0.68171   0.59816   0.74872   0.00000  Uiso   1.00
C1290  C     0.97912   0.49369   0.65882   0.00000  Uiso   1.00
C1291  C     0.69931   0.51362   0.89552   0.00000  Uiso   1.00
C1292  C     0.96838   0.48327   0.60592   0.00000  Uiso   1.00
C1293  C     0.68535   0.54111   0.97966   0.00000  Uiso   1.00
C1294  C     0.97842   0.43802   0.52700   0.00000  Uiso   1.00
C1295  C     0.67010   0.54439   0.93029   0.00000  Uiso   1.00
C1296  C     0.99521   0.44630   0.57656   0.00000  Uiso   1.00
C1297  C     0.74639   0.48965   0.91215   0.00000  Uiso   1.00
C1298  C     0.92388   0.50688   0.58605   0.00000  Uiso   1.00
C1299  C     0.77079   0.50131   0.95934   0.00000  Uiso   1.00
C1300  C     0.98494   0.40183   0.75111   0.00000  Uiso   1.00
C1301  C     0.89847   0.48907   0.54059   0.00000  Uiso   1.00
C1302  C     0.73662   0.52483   0.99347   0.00000  Uiso   1.00
C1303  C     0.92988   0.45833   0.50939   0.00000  Uiso   1.00
C1304  C     0.82595   0.48907   0.97455   0.00000  Uiso   1.00
C1305  C     0.84413   0.50164   0.52490   0.00000  Uiso   1.00
C1306  C     0.70402   0.36930   0.58154   0.00000  Uiso   1.00
C1307  C     0.74697   0.35610   0.54310   0.00000  Uiso   1.00
C1308  C     0.94893   0.61204   0.95720   0.00000  Uiso   1.00
C1309  C     0.92060   0.65890   0.94404   0.00000  Uiso   1.00
C1310  C     0.81995   0.58615   0.62175   0.00000  Uiso   1.00
C1311  C     0.80614   0.52395   0.55815   0.00000  Uiso   1.00
C1312  C     0.84078   0.59630   0.67427   0.00000  Uiso   1.00
C1313  C     0.85589   0.41095   0.87194   0.00000  Uiso   1.00
C1314  C     0.82708   0.40309   0.82163   0.00000  Uiso   1.00
C1315  C     0.81058   0.41812   0.68270   0.00000  Uiso   1.00
C1316  C     0.84303   0.39621   0.64032   0.00000  Uiso   1.00
C1317  C     0.84072   0.58743   0.80552   0.00000  Uiso   1.00
C1318  C     0.88543   0.60648   0.84306   0.00000  Uiso   1.00
C1319  C     0.86432   0.46631   0.94181   0.00000  Uiso   1.00
C1320  C     0.75288   0.53307   0.54189   0.00000  Uiso   1.00
C1321  C     0.91517   0.45110   0.96024   0.00000  Uiso   1.00
C1322  C     0.68931   0.65278   0.74796   0.00000  Uiso   1.00
C1323  C     0.97734   0.34720   0.75159   0.00000  Uiso   1.00
C1324  C     0.68788   0.50702   0.84163   0.00000  Uiso   1.00
H1325  H     0.72371   0.54789   0.56792   0.00000  Uiso   1.00
H1326  H     0.71473   0.34999   0.61447   0.00000  Uiso   1.00
H1327  H     0.78527   0.38344   0.54768   0.00000  Uiso   1.00
H1328  H     0.75931   0.64972   0.54606   0.00000  Uiso   1.00
H1329  H     0.72923   0.35743   0.50578   0.00000  Uiso   1.00
H1330  H     0.98738   0.62927   0.97858   0.00000  Uiso   1.00
H1331  H     0.91961   0.59060   0.98045   0.00000  Uiso   1.00
H1332  H     0.92095   0.35258   0.97721   0.00000  Uiso   1.00
H1333  H     0.94433   0.34449   0.91566   0.00000  Uiso   1.00
H1334  H     0.87530   0.64959   0.93406   0.00000  Uiso   1.00
H1335  H     0.84927   0.60832   0.59896   0.00000  Uiso   1.00
H1336  H     0.94488   0.43487   0.93564   0.00000  Uiso   1.00
H1337  H     0.77743   0.60073   0.61952   0.00000  Uiso   1.00
H1338  H     0.88472   0.58585   0.67875   0.00000  Uiso   1.00
H1339  H     0.83940   0.63749   0.68723   0.00000  Uiso   1.00
H1340  H     0.81264   0.57308   0.69645   0.00000  Uiso   1.00
H1341  H     0.83353   0.38347   0.89501   0.00000  Uiso   1.00
H1342  H     0.90025   0.40184   0.86736   0.00000  Uiso   1.00
H1343  H     0.82770   0.36257   0.80628   0.00000  Uiso   1.00
H1344  H     0.78248   0.41215   0.82241   0.00000  Uiso   1.00
H1345  H     0.85046   0.42758   0.79744   0.00000  Uiso   1.00
H1346  H     0.76510   0.41587   0.67231   0.00000  Uiso   1.00
H1347  H     0.91124   0.54018   0.60676   0.00000  Uiso   1.00
H1348  H     0.81703   0.39476   0.71396   0.00000  Uiso   1.00
H1349  H     0.84410   0.42276   0.61110   0.00000  Uiso   1.00
H1350  H     0.88707   0.39121   0.65246   0.00000  Uiso   1.00
H1351  H     0.82220   0.35858   0.62554   0.00000  Uiso   1.00
H1352  H     0.80039   0.60280   0.81654   0.00000  Uiso   1.00
H1353  H     0.85208   0.60281   0.77059   0.00000  Uiso   1.00
H1354  H     0.88878   0.64881   0.84738   0.00000  Uiso   1.00
H1355  H     0.87285   0.58923   0.87665   0.00000  Uiso   1.00
H1356  H     0.92682   0.59383   0.83268   0.00000  Uiso   1.00
H1357  H     0.76223   0.46131   0.88748   0.00000  Uiso   1.00
H1358  H     0.99298   0.55528   0.50867   0.00000  Uiso   1.00
H1359  H     0.66936   0.41563   0.50201   0.00000  Uiso   1.00
H1360  H     0.73198   0.33669   0.74452   0.00000  Uiso   1.00
H1361  H     0.93467   0.66331   0.75492   0.00000  Uiso   1.00
H1362  H     0.99425   0.35211   0.56912   0.00000  Uiso   1.00
N1363  N     0.81362   0.48550   0.73739   0.00000  Uiso   1.00
N1364  N     0.85305   0.51450   0.76260   0.00000  Uiso   1.00
O1365  O     0.96386   0.57964   0.75309   0.00000  Uiso   1.00
O1366  O     0.96385   0.57827   0.91658   0.00000  Uiso   1.00
O1367  O     0.81770   0.53242   0.60774   0.00000  Uiso   1.00
O1368  O     0.85502   0.46285   0.89166   0.00000  Uiso   1.00
O1369  O     0.83124   0.46959   0.69346   0.00000  Uiso   1.00
O1370  O     0.83445   0.53365   0.80494   0.00000  Uiso   1.00
O1371  O     0.70281   0.42036   0.74691   0.00000  Uiso   1.00
O1372  O     0.72488   0.57035   0.74501   0.00000  Uiso   1.00
O1373  O     0.94178   0.42965   0.75499   0.00000  Uiso   1.00
O1374  O     0.96995   0.50730   0.82247   0.00000  Uiso   1.00
O1375  O     0.69672   0.49270   0.67753   0.00000  Uiso   1.00
O1376  O     0.73098   0.49801   0.81439   0.00000  Uiso   1.00
O1377  O     0.93569   0.50199   0.68561   0.00000  Uiso   1.00
O1378  O     0.70743   0.42325   0.59527   0.00000  Uiso   1.00
Zn1379 Zn    0.93700   0.50621   0.75539   0.00000  Uiso   1.00
Zn1380 Zn    0.72967   0.49379   0.74460   0.00000  Uiso   1.00
C1381  C     0.01504   0.93149   0.74872   0.00000  Uiso   1.00
C1382  C     0.31245   0.82702   0.65882   0.00000  Uiso   1.00
C1383  C     0.03265   0.84695   0.89552   0.00000  Uiso   1.00
C1384  C     0.30171   0.81661   0.60592   0.00000  Uiso   1.00
C1385  C     0.01868   0.87444   0.97966   0.00000  Uiso   1.00
C1386  C     0.31175   0.77135   0.52700   0.00000  Uiso   1.00
C1387  C     0.00343   0.87772   0.93029   0.00000  Uiso   1.00
C1388  C     0.32854   0.77963   0.57656   0.00000  Uiso   1.00
C1389  C     0.07972   0.82299   0.91215   0.00000  Uiso   1.00
C1390  C     0.25721   0.84022   0.58605   0.00000  Uiso   1.00
C1391  C     0.10412   0.83464   0.95934   0.00000  Uiso   1.00
C1392  C     0.31828   0.73516   0.75111   0.00000  Uiso   1.00
C1393  C     0.23181   0.82240   0.54059   0.00000  Uiso   1.00
C1394  C     0.06995   0.85816   0.99347   0.00000  Uiso   1.00
C1395  C     0.26322   0.79167   0.50939   0.00000  Uiso   1.00
C1396  C     0.15929   0.82240   0.97455   0.00000  Uiso   1.00
C1397  C     0.17746   0.83497   0.52490   0.00000  Uiso   1.00
C1398  C     0.03735   0.70264   0.58154   0.00000  Uiso   1.00
C1399  C     0.08031   0.68943   0.54310   0.00000  Uiso   1.00
C1400  C     0.28227   0.94537   0.95720   0.00000  Uiso   1.00
C1401  C     0.25393   0.99224   0.94404   0.00000  Uiso   1.00
C1402  C     0.15328   0.91948   0.62175   0.00000  Uiso   1.00
C1403  C     0.13948   0.85729   0.55815   0.00000  Uiso   1.00
C1404  C     0.17412   0.92963   0.67427   0.00000  Uiso   1.00
C1405  C     0.18922   0.74429   0.87194   0.00000  Uiso   1.00
C1406  C     0.16041   0.73642   0.82163   0.00000  Uiso   1.00
C1407  C     0.14392   0.75145   0.68270   0.00000  Uiso   1.00
C1408  C     0.17636   0.72954   0.64032   0.00000  Uiso   1.00
C1409  C     0.17405   0.92076   0.80552   0.00000  Uiso   1.00
C1410  C     0.21877   0.93982   0.84306   0.00000  Uiso   1.00
C1411  C     0.19766   0.79965   0.94181   0.00000  Uiso   1.00
C1412  C     0.08622   0.86640   0.54189   0.00000  Uiso   1.00
C1413  C     0.24850   0.78443   0.96024   0.00000  Uiso   1.00
C1414  C     0.02264   0.98611   0.74796   0.00000  Uiso   1.00
C1415  C     0.31067   0.68053   0.75159   0.00000  Uiso   1.00
C1416  C     0.02121   0.84035   0.84163   0.00000  Uiso   1.00
H1417  H     0.05704   0.88122   0.56792   0.00000  Uiso   1.00
H1418  H     0.04806   0.68332   0.61447   0.00000  Uiso   1.00
H1419  H     0.11860   0.71677   0.54768   0.00000  Uiso   1.00
H1420  H     0.09264   0.98305   0.54606   0.00000  Uiso   1.00
H1421  H     0.06257   0.69077   0.50578   0.00000  Uiso   1.00
H1422  H     0.32071   0.96260   0.97858   0.00000  Uiso   1.00
H1423  H     0.25294   0.92394   0.98045   0.00000  Uiso   1.00
H1424  H     0.25429   0.68591   0.97721   0.00000  Uiso   1.00
H1425  H     0.27766   0.67783   0.91566   0.00000  Uiso   1.00
H1426  H     0.20863   0.98293   0.93406   0.00000  Uiso   1.00
H1427  H     0.18261   0.94166   0.59896   0.00000  Uiso   1.00
H1428  H     0.27822   0.76820   0.93564   0.00000  Uiso   1.00
H1429  H     0.11077   0.93407   0.61952   0.00000  Uiso   1.00
H1430  H     0.21805   0.91919   0.67875   0.00000  Uiso   1.00
H1431  H     0.17273   0.97082   0.68723   0.00000  Uiso   1.00
H1432  H     0.14598   0.90642   0.69645   0.00000  Uiso   1.00
H1433  H     0.16686   0.71680   0.89501   0.00000  Uiso   1.00
H1434  H     0.23359   0.73517   0.86736   0.00000  Uiso   1.00
H1435  H     0.16103   0.69591   0.80628   0.00000  Uiso   1.00
H1436  H     0.11582   0.74548   0.82241   0.00000  Uiso   1.00
H1437  H     0.18380   0.76091   0.79744   0.00000  Uiso   1.00
H1438  H     0.09843   0.74920   0.67231   0.00000  Uiso   1.00
H1439  H     0.24458   0.87351   0.60676   0.00000  Uiso   1.00
H1440  H     0.15037   0.72809   0.71396   0.00000  Uiso   1.00
H1441  H     0.17744   0.75609   0.61110   0.00000  Uiso   1.00
H1442  H     0.22040   0.72454   0.65246   0.00000  Uiso   1.00
H1443  H     0.15553   0.69191   0.62554   0.00000  Uiso   1.00
H1444  H     0.13372   0.93613   0.81654   0.00000  Uiso   1.00
H1445  H     0.18541   0.93615   0.77059   0.00000  Uiso   1.00
H1446  H     0.22211   0.98215   0.84738   0.00000  Uiso   1.00
H1447  H     0.20618   0.92256   0.87665   0.00000  Uiso   1.00
H1448  H     0.26016   0.92716   0.83268   0.00000  Uiso   1.00
H1449  H     0.09557   0.79464   0.88748   0.00000  Uiso   1.00
H1450  H     0.32631   0.88861   0.50867   0.00000  Uiso   1.00
H1451  H     0.00269   0.74896   0.50201   0.00000  Uiso   1.00
H1452  H     0.06531   0.67002   0.74452   0.00000  Uiso   1.00
H1453  H     0.26800   0.99664   0.75492   0.00000  Uiso   1.00
H1454  H     0.32759   0.68544   0.56912   0.00000  Uiso   1.00
N1455  N     0.14695   0.81883   0.73739   0.00000  Uiso   1.00
N1456  N     0.18638   0.84784   0.76260   0.00000  Uiso   1.00
O1457  O     0.29719   0.91298   0.75309   0.00000  Uiso   1.00
O1458  O     0.29718   0.91160   0.91658   0.00000  Uiso   1.00
O1459  O     0.15103   0.86575   0.60774   0.00000  Uiso   1.00
O1460  O     0.18836   0.79618   0.89166   0.00000  Uiso   1.00
O1461  O     0.16458   0.80292   0.69346   0.00000  Uiso   1.00
O1462  O     0.16778   0.86698   0.80494   0.00000  Uiso   1.00
O1463  O     0.03614   0.75369   0.74691   0.00000  Uiso   1.00
O1464  O     0.05822   0.90368   0.74501   0.00000  Uiso   1.00
O1465  O     0.27512   0.76298   0.75499   0.00000  Uiso   1.00
O1466  O     0.30328   0.84063   0.82247   0.00000  Uiso   1.00
O1467  O     0.03005   0.82603   0.67753   0.00000  Uiso   1.00
O1468  O     0.06431   0.83134   0.81439   0.00000  Uiso   1.00
O1469  O     0.26902   0.83533   0.68561   0.00000  Uiso   1.00
O1470  O     0.04076   0.75658   0.59527   0.00000  Uiso   1.00
Zn1471 Zn    0.27033   0.83954   0.75539   0.00000  Uiso   1.00
Zn1472 Zn    0.06300   0.82713   0.74460   0.00000  Uiso   1.00
C1473  C     0.34837   0.93149   0.74872   0.00000  Uiso   1.00
C1474  C     0.64579   0.82702   0.65882   0.00000  Uiso   1.00
C1475  C     0.36598   0.84695   0.89552   0.00000  Uiso   1.00
C1476  C     0.63504   0.81661   0.60592   0.00000  Uiso   1.00
C1477  C     0.35201   0.87444   0.97966   0.00000  Uiso   1.00
C1478  C     0.64509   0.77135   0.52700   0.00000  Uiso   1.00
C1479  C     0.33676   0.87772   0.93029   0.00000  Uiso   1.00
C1480  C     0.66188   0.77963   0.57656   0.00000  Uiso   1.00
C1481  C     0.41306   0.82299   0.91215   0.00000  Uiso   1.00
C1482  C     0.59055   0.84022   0.58605   0.00000  Uiso   1.00
C1483  C     0.43745   0.83464   0.95934   0.00000  Uiso   1.00
C1484  C     0.65161   0.73516   0.75111   0.00000  Uiso   1.00
C1485  C     0.56514   0.82240   0.54059   0.00000  Uiso   1.00
C1486  C     0.40328   0.85816   0.99347   0.00000  Uiso   1.00
C1487  C     0.59655   0.79167   0.50939   0.00000  Uiso   1.00
C1488  C     0.49262   0.82240   0.97455   0.00000  Uiso   1.00
C1489  C     0.51080   0.83497   0.52490   0.00000  Uiso   1.00
C1490  C     0.37069   0.70264   0.58154   0.00000  Uiso   1.00
C1491  C     0.41364   0.68943   0.54310   0.00000  Uiso   1.00
C1492  C     0.61560   0.94537   0.95720   0.00000  Uiso   1.00
C1493  C     0.58727   0.99224   0.94404   0.00000  Uiso   1.00
C1494  C     0.48661   0.91948   0.62175   0.00000  Uiso   1.00
C1495  C     0.47281   0.85729   0.55815   0.00000  Uiso   1.00
C1496  C     0.50745   0.92963   0.67427   0.00000  Uiso   1.00
C1497  C     0.52256   0.74429   0.87194   0.00000  Uiso   1.00
C1498  C     0.49374   0.73642   0.82163   0.00000  Uiso   1.00
C1499  C     0.47725   0.75145   0.68270   0.00000  Uiso   1.00
C1500  C     0.50970   0.72954   0.64032   0.00000  Uiso   1.00
C1501  C     0.50739   0.92076   0.80552   0.00000  Uiso   1.00
C1502  C     0.55210   0.93982   0.84306   0.00000  Uiso   1.00
C1503  C     0.53099   0.79965   0.94181   0.00000  Uiso   1.00
C1504  C     0.41955   0.86640   0.54189   0.00000  Uiso   1.00
C1505  C     0.58184   0.78443   0.96024   0.00000  Uiso   1.00
C1506  C     0.35597   0.98611   0.74796   0.00000  Uiso   1.00
C1507  C     0.64400   0.68053   0.75159   0.00000  Uiso   1.00
C1508  C     0.35455   0.84035   0.84163   0.00000  Uiso   1.00
H1509  H     0.39038   0.88122   0.56792   0.00000  Uiso   1.00
H1510  H     0.38139   0.68332   0.61447   0.00000  Uiso   1.00
H1511  H     0.45193   0.71677   0.54768   0.00000  Uiso   1.00
H1512  H     0.42597   0.98305   0.54606   0.00000  Uiso   1.00
H1513  H     0.39590   0.69077   0.50578   0.00000  Uiso   1.00
H1514  H     0.65405   0.96260   0.97858   0.00000  Uiso   1.00
H1515  H     0.58627   0.92394   0.98045   0.00000  Uiso   1.00
H1516  H     0.58762   0.68591   0.97721   0.00000  Uiso   1.00
H1517  H     0.61100   0.67783   0.91566   0.00000  Uiso   1.00
H1518  H     0.54196   0.98293   0.93406   0.00000  Uiso   1.00
H1519  H     0.51594   0.94166   0.59896   0.00000  Uiso   1.00
H1520  H     0.61155   0.76820   0.93564   0.00000  Uiso   1.00
H1521  H     0.44410   0.93407   0.61952   0.00000  Uiso   1.00
H1522  H     0.55139   0.91919   0.67875   0.00000  Uiso   1.00
H1523  H     0.50606   0.97082   0.68723   0.00000  Uiso   1.00
H1524  H     0.47931   0.90642   0.69645   0.00000  Uiso   1.00
H1525  H     0.50019   0.71680   0.89501   0.00000  Uiso   1.00
H1526  H     0.56692   0.73517   0.86736   0.00000  Uiso   1.00
H1527  H     0.49437   0.69591   0.80628   0.00000  Uiso   1.00
H1528  H     0.44915   0.74548   0.82241   0.00000  Uiso   1.00
H1529  H     0.51713   0.76091   0.79744   0.00000  Uiso   1.00
H1530  H     0.43177   0.74920   0.67231   0.00000  Uiso   1.00
H1531  H     0.57791   0.87351   0.60676   0.00000  Uiso   1.00
H1532  H     0.48370   0.72809   0.71396   0.00000  Uiso   1.00
H1533  H     0.51077   0.75609   0.61110   0.00000  Uiso   1.00
H1534  H     0.55374   0.72454   0.65246   0.00000  Uiso   1.00
H1535  H     0.48887   0.69191   0.62554   0.00000  Uiso   1.00
H1536  H     0.46706   0.93613   0.81654   0.00000  Uiso   1.00
H1537  H     0.51875   0.93615   0.77059   0.00000  Uiso   1.00
H1538  H     0.55545   0.98215   0.84738   0.00000  Uiso   1.00
H1539  H     0.53952   0.92256   0.87665   0.00000  Uiso   1.00
H1540  H     0.59349   0.92716   0.83268   0.00000  Uiso   1.00
H1541  H     0.42890   0.79464   0.88748   0.00000  Uiso   1.00
H1542  H     0.65965   0.88861   0.50867   0.00000  Uiso   1.00
H1543  H     0.33602   0.74896   0.50201   0.00000  Uiso   1.00
H1544  H     0.39865   0.67002   0.74452   0.00000  Uiso   1.00
H1545  H     0.60134   0.99664   0.75492   0.00000  Uiso   1.00
H1546  H     0.66092   0.68544   0.56912   0.00000  Uiso   1.00
N1547  N     0.48029   0.81883   0.73739   0.00000  Uiso   1.00
N1548  N     0.51971   0.84784   0.76260   0.00000  Uiso   1.00
O1549  O     0.63052   0.91298   0.75309   0.00000  Uiso   1.00
O1550  O     0.63052   0.91160   0.91658   0.00000  Uiso   1.00
O1551  O     0.48436   0.86575   0.60774   0.00000  Uiso   1.00
O1552  O     0.52169   0.79618   0.89166   0.00000  Uiso   1.00
O1553  O     0.49791   0.80292   0.69346   0.00000  Uiso   1.00
O1554  O     0.50111   0.86698   0.80494   0.00000  Uiso   1.00
O1555  O     0.36948   0.75369   0.74691   0.00000  Uiso   1.00
O1556  O     0.39155   0.90368   0.74501   0.00000  Uiso   1.00
O1557  O     0.60845   0.76298   0.75499   0.00000  Uiso   1.00
O1558  O     0.63662   0.84063   0.82247   0.00000  Uiso   1.00
O1559  O     0.36338   0.82603   0.67753   0.00000  Uiso   1.00
O1560  O     0.39764   0.83134   0.81439   0.00000  Uiso   1.00
O1561  O     0.60236   0.83533   0.68561   0.00000  Uiso   1.00
O1562  O     0.37409   0.75658   0.59527   0.00000  Uiso   1.00
Zn1563 Zn    0.60366   0.83954   0.75539   0.00000  Uiso   1.00
Zn1564 Zn    0.39634   0.82713   0.74460   0.00000  Uiso   1.00
C1565  C     0.68171   0.93149   0.74872   0.00000  Uiso   1.00
C1566  C     0.97912   0.82702   0.65882   0.00000  Uiso   1.00
C1567  C     0.69931   0.84695   0.89552   0.00000  Uiso   1.00
C1568  C     0.96838   0.81661   0.60592   0.00000  Uiso   1.00
C1569  C     0.68535   0.87444   0.97966   0.00000  Uiso   1.00
C1570  C     0.97842   0.77135   0.52700   0.00000  Uiso   1.00
C1571  C     0.67010   0.87772   0.93029   0.00000  Uiso   1.00
C1572  C     0.99521   0.77963   0.57656   0.00000  Uiso   1.00
C1573  C     0.74639   0.82299   0.91215   0.00000  Uiso   1.00
C1574  C     0.92388   0.84022   0.58605   0.00000  Uiso   1.00
C1575  C     0.77079   0.83464   0.95934   0.00000  Uiso   1.00
C1576  C     0.98494   0.73516   0.75111   0.00000  Uiso   1.00
C1577  C     0.89847   0.82240   0.54059   0.00000  Uiso   1.00
C1578  C     0.73662   0.85816   0.99347   0.00000  Uiso   1.00
C1579  C     0.92988   0.79167   0.50939   0.00000  Uiso   1.00
C1580  C     0.82595   0.82240   0.97455   0.00000  Uiso   1.00
C1581  C     0.84413   0.83497   0.52490   0.00000  Uiso   1.00
C1582  C     0.70402   0.70264   0.58154   0.00000  Uiso   1.00
C1583  C     0.74697   0.68943   0.54310   0.00000  Uiso   1.00
C1584  C     0.94893   0.94537   0.95720   0.00000  Uiso   1.00
C1585  C     0.92060   0.99224   0.94404   0.00000  Uiso   1.00
C1586  C     0.81995   0.91948   0.62175   0.00000  Uiso   1.00
C1587  C     0.80614   0.85729   0.55815   0.00000  Uiso   1.00
C1588  C     0.84078   0.92963   0.67427   0.00000  Uiso   1.00
C1589  C     0.85589   0.74429   0.87194   0.00000  Uiso   1.00
C1590  C     0.82708   0.73642   0.82163   0.00000  Uiso   1.00
C1591  C     0.81058   0.75145   0.68270   0.00000  Uiso   1.00
C1592  C     0.84303   0.72954   0.64032   0.00000  Uiso   1.00
C1593  C     0.84072   0.92076   0.80552   0.00000  Uiso   1.00
C1594  C     0.88543   0.93982   0.84306   0.00000  Uiso   1.00
C1595  C     0.86432   0.79965   0.94181   0.00000  Uiso   1.00
C1596  C     0.75288   0.86640   0.54189   0.00000  Uiso   1.00
C1597  C     0.91517   0.78443   0.96024   0.00000  Uiso   1.00
C1598  C     0.68931   0.98611   0.74796   0.00000  Uiso   1.00
C1599  C     0.97734   0.68053   0.75159   0.00000  Uiso   1.00
C1600  C     0.68788   0.84035   0.84163   0.00000  Uiso   1.00
H1601  H     0.72371   0.88122   0.56792   0.00000  Uiso   1.00
H1602  H     0.71473   0.68332   0.61447   0.00000  Uiso   1.00
H1603  H     0.78527   0.71677   0.54768   0.00000  Uiso   1.00
H1604  H     0.75931   0.98305   0.54606   0.00000  Uiso   1.00
H1605  H     0.72923   0.69077   0.50578   0.00000  Uiso   1.00
H1606  H     0.98738   0.96260   0.97858   0.00000  Uiso   1.00
H1607  H     0.91961   0.92394   0.98045   0.00000  Uiso   1.00
H1608  H     0.92095   0.68591   0.97721   0.00000  Uiso   1.00
H1609  H     0.94433   0.67783   0.91566   0.00000  Uiso   1.00
H1610  H     0.87530   0.98293   0.93406   0.00000  Uiso   1.00
H1611  H     0.84927   0.94166   0.59896   0.00000  Uiso   1.00
H1612  H     0.94488   0.76820   0.93564   0.00000  Uiso   1.00
H1613  H     0.77743   0.93407   0.61952   0.00000  Uiso   1.00
H1614  H     0.88472   0.91919   0.67875   0.00000  Uiso   1.00
H1615  H     0.83940   0.97082   0.68723   0.00000  Uiso   1.00
H1616  H     0.81264   0.90642   0.69645   0.00000  Uiso   1.00
H1617  H     0.83353   0.71680   0.89501   0.00000  Uiso   1.00
H1618  H     0.90025   0.73517   0.86736   0.00000  Uiso   1.00
H1619  H     0.82770   0.69591   0.80628   0.00000  Uiso   1.00
H1620  H     0.78248   0.74548   0.82241   0.00000  Uiso   1.00
H1621  H     0.85046   0.76091   0.79744   0.00000  Uiso   1.00
H1622  H     0.76510   0.74920   0.67231   0.00000  Uiso   1.00
H1623  H     0.91124   0.87351   0.60676   0.00000  Uiso   1.00
H1624  H     0.81703   0.72809   0.71396   0.00000  Uiso   1.00
H1625  H     0.84410   0.75609   0.61110   0.00000  Uiso   1.00
H1626  H     0.88707   0.72454   0.65246   0.00000  Uiso   1.00
H1627  H     0.82220   0.69191   0.62554   0.00000  Uiso   1.00
H1628  H     0.80039   0.93613   0.81654   0.00000  Uiso   1.00
H1629  H     0.85208   0.93615   0.77059   0.00000  Uiso   1.00
H1630  H     0.88878   0.98215   0.84738   0.00000  Uiso   1.00
H1631  H     0.87285   0.92256   0.87665   0.00000  Uiso   1.00
H1632  H     0.92682   0.92716   0.83268   0.00000  Uiso   1.00
H1633  H     0.76223   0.79464   0.88748   0.00000  Uiso   1.00
H1634  H     0.99298   0.88861   0.50867   0.00000  Uiso   1.00
H1635  H     0.66936   0.74896   0.50201   0.00000  Uiso   1.00
H1636  H     0.73198   0.67002   0.74452   0.00000  Uiso   1.00
H1637  H     0.93467   0.99664   0.75492   0.00000  Uiso   1.00
H1638  H     0.99425   0.68544   0.56912   0.00000  Uiso   1.00
N1639  N     0.81362   0.81883   0.73739   0.00000  Uiso   1.00
N1640  N     0.85305   0.84784   0.76260   0.00000  Uiso   1.00
O1641  O     0.96386   0.91298   0.75309   0.00000  Uiso   1.00
O1642  O     0.96385   0.91160   0.91658   0.00000  Uiso   1.00
O1643  O     0.81770   0.86575   0.60774   0.00000  Uiso   1.00
O1644  O     0.85502   0.79618   0.89166   0.00000  Uiso   1.00
O1645  O     0.83124   0.80292   0.69346   0.00000  Uiso   1.00
O1646  O     0.83445   0.86698   0.80494   0.00000  Uiso   1.00
O1647  O     0.70281   0.75369   0.74691   0.00000  Uiso   1.00
O1648  O     0.72488   0.90368   0.74501   0.00000  Uiso   1.00
O1649  O     0.94178   0.76298   0.75499   0.00000  Uiso   1.00
O1650  O     0.96995   0.84063   0.82247   0.00000  Uiso   1.00
O1651  O     0.69672   0.82603   0.67753   0.00000  Uiso   1.00
O1652  O     0.73098   0.83134   0.81439   0.00000  Uiso   1.00
O1653  O     0.93569   0.83533   0.68561   0.00000  Uiso   1.00
O1654  O     0.70743   0.75658   0.59527   0.00000  Uiso   1.00
Zn1655 Zn    0.93700   0.83954   0.75539   0.00000  Uiso   1.00
Zn1656 Zn    0.72967   0.82713   0.74460   0.00000  Uiso   1.00
loop_
_geom_bond_atom_site_label_1
_geom_bond_atom_site_label_2
_geom_bond_distance
_geom_bond_site_symmetry_2
_ccdc_geom_bond_type
C1     O84     1.307   .     A
C1     C34     1.425   .     S
C1     O261    1.286   1_455 S
C2     O89     1.311   .     A
C2     C4      1.473   .     S
C2     O179    1.305   .     S
C3     C7      1.431   .     A
C3     C9      1.410   .     A
C3     C36     1.497   .     S
C4     C8      1.412   .     A
C4     C10     1.389   .     A
C5     C7      1.411   .     A
C5     C14     1.377   .     A
C5     H1082   1.081   1_455 S
C6     C15     1.400   .     A
C6     C8      1.407   .     A
C6     H163    1.077   .     S
C7     O262    1.409   1_455 S
C8     O182    1.389   .     S
C9     C11     1.408   .     A
C9     H69     1.062   .     S
C10    C13     1.401   .     A
C10    H59     1.068   .     S
C11    C14     1.398   .     A
C11    C16     1.434   .     A
C12    O85     1.307   .     A
C12    C35     1.425   .     S
C12    O175    1.286   .     S
C13    C15     1.401   .     A
C13    C17     1.423   .     A
C14    C860    1.374   .     S
C15    C861    1.384   1_554 S
C16    C31     1.432   .     A
C16    C845    1.445   .     S
C17    C23     1.429   .     A
C17    C844    1.445   1_554 S
C18    C19     1.533   .     S
C18    O90     1.422   .     S
C18    H38     1.110   .     S
C18    H258    1.116   1_455 S
C19    H39     1.107   .     S
C19    H41     1.106   .     S
C19    H592    1.110   1_545 S
C20    H43     1.114   .     S
C20    H42     1.113   .     S
C20    O78     1.437   .     S
C20    C21     1.510   .     S
C21    H46     1.106   .     S
C21    H320    1.105   .     S
C21    H321    1.108   .     S
C22    O79     1.419   .     S
C22    H47     1.116   .     S
C22    H49     1.111   .     S
C22    C24     1.512   .     S
C23    C32     1.376   .     A
C23    O79     1.383   .     S
C24    H52     1.103   .     S
C24    H51     1.107   .     S
C24    H50     1.107   .     S
C25    O80     1.418   .     S
C25    H53     1.115   .     S
C25    H54     1.109   .     S
C25    C26     1.520   .     S
C26    H55     1.106   .     S
C26    H56     1.106   .     S
C26    H57     1.098   .     S
C27    O81     1.397   .     S
C27    H58     1.106   .     S
C27    H60     1.114   .     S
C27    C28     1.518   .     S
C28    H61     1.109   .     S
C28    H63     1.103   .     S
C28    H62     1.111   .     S
C29    C30     1.486   .     S
C29    H64     1.111   .     S
C29    H65     1.110   .     S
C29    O82     1.399   .     S
C30    H67     1.105   .     S
C30    H66     1.098   .     S
C30    H68     1.102   .     S
C31    O80     1.390   .     S
C31    C33     1.398   .     A
C32    H37     1.084   .     S
C32    C842    1.374   1_554 S
C33    H48     1.081   .     S
C33    C843    1.384   .     S
C34    C495    1.348   1_455 S
C34    H348    1.087   .     S
C35    C678    1.348   1_545 S
C35    H625    1.086   1_545 S
C36    O88     1.315   .     A
C36    O270    1.314   1_455 S
H40    C295    1.110   .     S
H44    C573    1.105   1_545 S
H45    C573    1.108   1_545 S
H70    C925    1.081   1_554 S
H71    C190    1.077   1_455 S
H72    C586    1.087   1_545 S
H73    C311    1.086   .     S
H74    C110    1.116   .     S
N75    O81     1.339   .     S
N75    N76     1.300   .     D
N75    Zn92    2.040   .     S
N76    O82     1.334   .     S
N76    Zn91    2.040   .     S
O77    Zn91    1.979   .     S
O77    C93     1.286   .     S
O78    C99     1.409   .     S
O83    Zn92    1.979   .     S
O83    C196    1.286   1_455 S
O84    Zn92    2.011   .     S
O85    Zn91    2.011   .     S
O86    Zn91    1.985   .     S
O86    C128    1.314   .     S
O87    Zn92    1.985   .     S
O87    C186    1.305   1_455 S
O88    Zn92    1.920   .     S
O89    Zn91    1.920   .     S
O90    C192    1.389   1_455 S
C93    O176    1.307   .     A
C93    C126    1.425   .     S
C94    O181    1.311   .     A
C94    C96     1.473   .     S
C94    O271    1.305   .     S
C95    C99     1.431   .     A
C95    C101    1.410   .     A
C95    C128    1.497   .     S
C96    C100    1.412   .     A
C96    C102    1.389   .     A
C97    C99     1.411   .     A
C97    C106    1.377   .     A
C97    H898    1.081   .     S
C98    C107    1.400   .     A
C98    C100    1.407   .     A
C98    H255    1.077   .     S
C100   O274    1.389   .     S
C101   C103    1.408   .     A
C101   H161    1.062   .     S
C102   C105    1.401   .     A
C102   H151    1.068   .     S
C103   C106    1.398   .     A
C103   C108    1.434   .     A
C104   O177    1.307   .     A
C104   C127    1.425   .     S
C104   O267    1.286   .     S
C105   C107    1.401   .     A
C105   C109    1.423   .     A
C106   C952    1.374   .     S
C107   C953    1.384   1_554 S
C108   C123    1.432   .     A
C108   C937    1.445   .     S
C109   C115    1.429   .     A
C109   C936    1.445   1_554 S
C110   C111    1.533   .     S
C110   O182    1.422   .     S
C110   H130    1.110   .     S
C111   H131    1.107   .     S
C111   H133    1.106   .     S
C111   H684    1.110   1_545 S
C112   H135    1.114   .     S
C112   H134    1.113   .     S
C112   O170    1.437   .     S
C112   C113    1.510   .     S
C113   H138    1.106   .     S
C113   H412    1.105   .     S
C113   H413    1.108   .     S
C114   O171    1.419   .     S
C114   H139    1.116   .     S
C114   H141    1.111   .     S
C114   C116    1.512   .     S
C115   C124    1.376   .     A
C115   O171    1.383   .     S
C116   H144    1.103   .     S
C116   H143    1.107   .     S
C116   H142    1.107   .     S
C117   O172    1.418   .     S
C117   H145    1.115   .     S
C117   H146    1.109   .     S
C117   C118    1.520   .     S
C118   H147    1.106   .     S
C118   H148    1.106   .     S
C118   H149    1.098   .     S
C119   O173    1.397   .     S
C119   H150    1.106   .     S
C119   H152    1.114   .     S
C119   C120    1.518   .     S
C120   H153    1.109   .     S
C120   H155    1.103   .     S
C120   H154    1.111   .     S
C121   C122    1.486   .     S
C121   H156    1.111   .     S
C121   H157    1.110   .     S
C121   O174    1.399   .     S
C122   H159    1.105   .     S
C122   H158    1.098   .     S
C122   H160    1.102   .     S
C123   O172    1.390   .     S
C123   C125    1.398   .     A
C124   H129    1.084   .     S
C124   C934    1.374   1_554 S
C125   H140    1.081   .     S
C125   C935    1.384   .     S
C126   C311    1.348   .     S
C126   H440    1.087   .     S
C127   C770    1.348   1_545 S
C127   H717    1.086   1_545 S
C128   O180    1.315   .     A
H132   C387    1.110   .     S
H136   C665    1.105   1_545 S
H137   C665    1.108   1_545 S
H162   C1017   1.081   1_554 S
H164   C678    1.087   1_545 S
H165   C403    1.086   .     S
H166   C202    1.116   .     S
N167   O173    1.339   .     S
N167   N168    1.300   .     D
N167   Zn184   2.040   .     S
N168   O174    1.334   .     S
N168   Zn183   2.040   .     S
O169   Zn183   1.979   .     S
O169   C185    1.286   .     S
O170   C191    1.409   .     S
O175   Zn184   1.979   .     S
O176   Zn184   2.011   .     S
O177   Zn183   2.011   .     S
O178   Zn183   1.985   .     S
O178   C220    1.314   .     S
O179   Zn184   1.985   .     S
O180   Zn184   1.920   .     S
O181   Zn183   1.920   .     S
C185   O268    1.307   .     A
C185   C218    1.425   .     S
C186   O273    1.311   .     A
C186   C188    1.473   .     S
C186   O87     1.305   1_655 S
C187   C191    1.431   .     A
C187   C193    1.410   .     A
C187   C220    1.497   .     S
C188   C192    1.412   .     A
C188   C194    1.389   .     A
C189   C191    1.411   .     A
C189   C198    1.377   .     A
C189   H990    1.081   .     S
C190   C199    1.400   .     A
C190   C192    1.407   .     A
C190   H71     1.077   1_655 S
C192   O90     1.389   1_655 S
C193   C195    1.408   .     A
C193   H253    1.062   .     S
C194   C197    1.401   .     A
C194   H243    1.068   .     S
C195   C198    1.398   .     A
C195   C200    1.434   .     A
C196   O269    1.307   .     A
C196   C219    1.425   .     S
C196   O83     1.286   1_655 S
C197   C199    1.401   .     A
C197   C201    1.423   .     A
C198   C1044   1.374   .     S
C199   C1045   1.384   1_554 S
C200   C215    1.432   .     A
C200   C1029   1.445   .     S
C201   C207    1.429   .     A
C201   C1028   1.445   1_554 S
C202   C203    1.533   .     S
C202   O274    1.422   .     S
C202   H222    1.110   .     S
C203   H223    1.107   .     S
C203   H225    1.106   .     S
C203   H776    1.110   1_545 S
C204   H227    1.114   .     S
C204   H226    1.113   .     S
C204   O262    1.437   .     S
C204   C205    1.510   .     S
C205   H230    1.106   .     S
C205   H504    1.105   .     S
C205   H505    1.108   .     S
C206   O263    1.419   .     S
C206   H231    1.116   .     S
C206   H233    1.111   .     S
C206   C208    1.512   .     S
C207   C216    1.376   .     A
C207   O263    1.383   .     S
C208   H236    1.103   .     S
C208   H235    1.107   .     S
C208   H234    1.107   .     S
C209   O264    1.418   .     S
C209   H237    1.115   .     S
C209   H238    1.109   .     S
C209   C210    1.520   .     S
C210   H239    1.106   .     S
C210   H240    1.106   .     S
C210   H241    1.098   .     S
C211   O265    1.397   .     S
C211   H242    1.106   .     S
C211   H244    1.114   .     S
C211   C212    1.518   .     S
C212   H245    1.109   .     S
C212   H247    1.103   .     S
C212   H246    1.111   .     S
C213   C214    1.486   .     S
C213   H248    1.111   .     S
C213   H249    1.110   .     S
C213   O266    1.399   .     S
C214   H251    1.105   .     S
C214   H250    1.098   .     S
C214   H252    1.102   .     S
C215   O264    1.390   .     S
C215   C217    1.398   .     A
C216   H221    1.084   .     S
C216   C1026   1.374   1_554 S
C217   H232    1.081   .     S
C217   C1027   1.384   .     S
C218   C403    1.348   .     S
C218   H532    1.087   .     S
C219   C586    1.348   1_645 S
C219   H809    1.086   1_545 S
C220   O272    1.315   .     A
H224   C479    1.110   .     S
H228   C757    1.105   1_545 S
H229   C757    1.108   1_545 S
H254   C833    1.081   1_654 S
H256   C770    1.087   1_545 S
H257   C495    1.086   .     S
H258   C18     1.116   1_655 S
N259   O265    1.339   .     S
N259   N260    1.300   .     D
N259   Zn276   2.040   .     S
N260   O266    1.334   .     S
N260   Zn275   2.040   .     S
O261   Zn275   1.979   .     S
O261   C1      1.286   1_655 S
O262   C7      1.409   1_655 S
O267   Zn276   1.979   .     S
O268   Zn276   2.011   .     S
O269   Zn275   2.011   .     S
O270   Zn275   1.985   .     S
O270   C36     1.314   1_655 S
O271   Zn276   1.985   .     S
O272   Zn276   1.920   .     S
O273   Zn275   1.920   .     S
C277   O360    1.307   .     A
C277   C310    1.425   .     S
C277   O537    1.286   1_455 S
C278   O365    1.311   .     A
C278   C280    1.473   .     S
C278   O455    1.305   .     S
C279   C283    1.431   .     A
C279   C285    1.410   .     A
C279   C312    1.497   .     S
C280   C284    1.412   .     A
C280   C286    1.389   .     A
C281   C283    1.411   .     A
C281   C290    1.377   .     A
C281   H1358   1.081   1_455 S
C282   C291    1.400   .     A
C282   C284    1.407   .     A
C282   H439    1.077   .     S
C283   O538    1.409   1_455 S
C284   O458    1.389   .     S
C285   C287    1.408   .     A
C285   H345    1.062   .     S
C286   C289    1.401   .     A
C286   H335    1.068   .     S
C287   C290    1.398   .     A
C287   C292    1.434   .     A
C288   O361    1.307   .     A
C288   C311    1.425   .     S
C288   O451    1.286   .     S
C289   C291    1.401   .     A
C289   C293    1.423   .     A
C290   C1136   1.374   .     S
C291   C1137   1.384   1_554 S
C292   C307    1.432   .     A
C292   C1121   1.445   .     S
C293   C299    1.429   .     A
C293   C1120   1.445   1_554 S
C294   C295    1.533   .     S
C294   O366    1.422   .     S
C294   H314    1.110   .     S
C294   H534    1.116   1_455 S
C295   H315    1.107   .     S
C295   H317    1.106   .     S
C296   H319    1.114   .     S
C296   H318    1.113   .     S
C296   O354    1.437   .     S
C296   C297    1.510   .     S
C297   H322    1.106   .     S
C297   H596    1.105   .     S
C297   H597    1.108   .     S
C298   O355    1.419   .     S
C298   H323    1.116   .     S
C298   H325    1.111   .     S
C298   C300    1.512   .     S
C299   C308    1.376   .     A
C299   O355    1.383   .     S
C300   H328    1.103   .     S
C300   H327    1.107   .     S
C300   H326    1.107   .     S
C301   O356    1.418   .     S
C301   H329    1.115   .     S
C301   H330    1.109   .     S
C301   C302    1.520   .     S
C302   H331    1.106   .     S
C302   H332    1.106   .     S
C302   H333    1.098   .     S
C303   O357    1.397   .     S
C303   H334    1.106   .     S
C303   H336    1.114   .     S
C303   C304    1.518   .     S
C304   H337    1.109   .     S
C304   H339    1.103   .     S
C304   H338    1.111   .     S
C305   C306    1.486   .     S
C305   H340    1.111   .     S
C305   H341    1.110   .     S
C305   O358    1.399   .     S
C306   H343    1.105   .     S
C306   H342    1.098   .     S
C306   H344    1.102   .     S
C307   O356    1.390   .     S
C307   C309    1.398   .     A
C308   H313    1.084   .     S
C308   C1118   1.374   1_554 S
C309   H324    1.081   .     S
C309   C1119   1.384   .     S
C310   C771    1.348   1_455 S
C310   H624    1.087   .     S
C312   O364    1.315   .     A
C312   O546    1.314   1_455 S
H316   C571    1.110   .     S
H346   C1201   1.081   1_554 S
H347   C466    1.077   1_455 S
H349   C587    1.086   .     S
H350   C386    1.116   .     S
N351   O357    1.339   .     S
N351   N352    1.300   .     D
N351   Zn368   2.040   .     S
N352   O358    1.334   .     S
N352   Zn367   2.040   .     S
O353   Zn367   1.979   .     S
O353   C369    1.286   .     S
O354   C375    1.409   .     S
O359   Zn368   1.979   .     S
O359   C472    1.286   1_455 S
O360   Zn368   2.011   .     S
O361   Zn367   2.011   .     S
O362   Zn367   1.985   .     S
O362   C404    1.314   .     S
O363   Zn368   1.985   .     S
O363   C462    1.305   1_455 S
O364   Zn368   1.920   .     S
O365   Zn367   1.920   .     S
O366   C468    1.389   1_455 S
C369   O452    1.307   .     A
C369   C402    1.425   .     S
C370   O457    1.311   .     A
C370   C372    1.473   .     S
C370   O547    1.305   .     S
C371   C375    1.431   .     A
C371   C377    1.410   .     A
C371   C404    1.497   .     S
C372   C376    1.412   .     A
C372   C378    1.389   .     A
C373   C375    1.411   .     A
C373   C382    1.377   .     A
C373   H1174   1.081   .     S
C374   C383    1.400   .     A
C374   C376    1.407   .     A
C374   H531    1.077   .     S
C376   O550    1.389   .     S
C377   C379    1.408   .     A
C377   H437    1.062   .     S
C378   C381    1.401   .     A
C378   H427    1.068   .     S
C379   C382    1.398   .     A
C379   C384    1.434   .     A
C380   O453    1.307   .     A
C380   C403    1.425   .     S
C380   O543    1.286   .     S
C381   C383    1.401   .     A
C381   C385    1.423   .     A
C382   C1228   1.374   .     S
C383   C1229   1.384   1_554 S
C384   C399    1.432   .     A
C384   C1213   1.445   .     S
C385   C391    1.429   .     A
C385   C1212   1.445   1_554 S
C386   C387    1.533   .     S
C386   O458    1.422   .     S
C386   H406    1.110   .     S
C387   H407    1.107   .     S
C387   H409    1.106   .     S
C388   H411    1.114   .     S
C388   H410    1.113   .     S
C388   O446    1.437   .     S
C388   C389    1.510   .     S
C389   H414    1.106   .     S
C389   H688    1.105   .     S
C389   H689    1.108   .     S
C390   O447    1.419   .     S
C390   H415    1.116   .     S
C390   H417    1.111   .     S
C390   C392    1.512   .     S
C391   C400    1.376   .     A
C391   O447    1.383   .     S
C392   H420    1.103   .     S
C392   H419    1.107   .     S
C392   H418    1.107   .     S
C393   O448    1.418   .     S
C393   H421    1.115   .     S
C393   H422    1.109   .     S
C393   C394    1.520   .     S
C394   H423    1.106   .     S
C394   H424    1.106   .     S
C394   H425    1.098   .     S
C395   O449    1.397   .     S
C395   H426    1.106   .     S
C395   H428    1.114   .     S
C395   C396    1.518   .     S
C396   H429    1.109   .     S
C396   H431    1.103   .     S
C396   H430    1.111   .     S
C397   C398    1.486   .     S
C397   H432    1.111   .     S
C397   H433    1.110   .     S
C397   O450    1.399   .     S
C398   H435    1.105   .     S
C398   H434    1.098   .     S
C398   H436    1.102   .     S
C399   O448    1.390   .     S
C399   C401    1.398   .     A
C400   H405    1.084   .     S
C400   C1210   1.374   1_554 S
C401   H416    1.081   .     S
C401   C1211   1.384   .     S
C402   C587    1.348   .     S
C402   H716    1.087   .     S
C404   O456    1.315   .     A
H408   C663    1.110   .     S
H438   C1293   1.081   1_554 S
H441   C679    1.086   .     S
H442   C478    1.116   .     S
N443   O449    1.339   .     S
N443   N444    1.300   .     D
N443   Zn460   2.040   .     S
N444   O450    1.334   .     S
N444   Zn459   2.040   .     S
O445   Zn459   1.979   .     S
O445   C461    1.286   .     S
O446   C467    1.409   .     S
O451   Zn460   1.979   .     S
O452   Zn460   2.011   .     S
O453   Zn459   2.011   .     S
O454   Zn459   1.985   .     S
O454   C496    1.314   .     S
O455   Zn460   1.985   .     S
O456   Zn460   1.920   .     S
O457   Zn459   1.920   .     S
C461   O544    1.307   .     A
C461   C494    1.425   .     S
C462   O549    1.311   .     A
C462   C464    1.473   .     S
C462   O363    1.305   1_655 S
C463   C467    1.431   .     A
C463   C469    1.410   .     A
C463   C496    1.497   .     S
C464   C468    1.412   .     A
C464   C470    1.389   .     A
C465   C467    1.411   .     A
C465   C474    1.377   .     A
C465   H1266   1.081   .     S
C466   C475    1.400   .     A
C466   C468    1.407   .     A
C466   H347    1.077   1_655 S
C468   O366    1.389   1_655 S
C469   C471    1.408   .     A
C469   H529    1.062   .     S
C470   C473    1.401   .     A
C470   H519    1.068   .     S
C471   C474    1.398   .     A
C471   C476    1.434   .     A
C472   O545    1.307   .     A
C472   C495    1.425   .     S
C472   O359    1.286   1_655 S
C473   C475    1.401   .     A
C473   C477    1.423   .     A
C474   C1320   1.374   .     S
C475   C1321   1.384   1_554 S
C476   C491    1.432   .     A
C476   C1305   1.445   .     S
C477   C483    1.429   .     A
C477   C1304   1.445   1_554 S
C478   C479    1.533   .     S
C478   O550    1.422   .     S
C478   H498    1.110   .     S
C479   H499    1.107   .     S
C479   H501    1.106   .     S
C480   H503    1.114   .     S
C480   H502    1.113   .     S
C480   O538    1.437   .     S
C480   C481    1.510   .     S
C481   H506    1.106   .     S
C481   H780    1.105   .     S
C481   H781    1.108   .     S
C482   O539    1.419   .     S
C482   H507    1.116   .     S
C482   H509    1.111   .     S
C482   C484    1.512   .     S
C483   C492    1.376   .     A
C483   O539    1.383   .     S
C484   H512    1.103   .     S
C484   H511    1.107   .     S
C484   H510    1.107   .     S
C485   O540    1.418   .     S
C485   H513    1.115   .     S
C485   H514    1.109   .     S
C485   C486    1.520   .     S
C486   H515    1.106   .     S
C486   H516    1.106   .     S
C486   H517    1.098   .     S
C487   O541    1.397   .     S
C487   H518    1.106   .     S
C487   H520    1.114   .     S
C487   C488    1.518   .     S
C488   H521    1.109   .     S
C488   H523    1.103   .     S
C488   H522    1.111   .     S
C489   C490    1.486   .     S
C489   H524    1.111   .     S
C489   H525    1.110   .     S
C489   O542    1.399   .     S
C490   H527    1.105   .     S
C490   H526    1.098   .     S
C490   H528    1.102   .     S
C491   O540    1.390   .     S
C491   C493    1.398   .     A
C492   H497    1.084   .     S
C492   C1302   1.374   1_554 S
C493   H508    1.081   .     S
C493   C1303   1.384   .     S
C494   C679    1.348   .     S
C494   H808    1.087   .     S
C495   C34     1.348   1_655 S
C496   O548    1.315   .     A
H500   C755    1.110   .     S
H530   C1109   1.081   1_654 S
H533   C771    1.086   .     S
H534   C294    1.116   1_655 S
N535   O541    1.339   .     S
N535   N536    1.300   .     D
N535   Zn552   2.040   .     S
N536   O542    1.334   .     S
N536   Zn551   2.040   .     S
O537   Zn551   1.979   .     S
O537   C277    1.286   1_655 S
O538   C283    1.409   1_655 S
O543   Zn552   1.979   .     S
O544   Zn552   2.011   .     S
O545   Zn551   2.011   .     S
O546   Zn551   1.985   .     S
O546   C312    1.314   1_655 S
O547   Zn552   1.985   .     S
O548   Zn552   1.920   .     S
O549   Zn551   1.920   .     S
C553   O636    1.307   .     A
C553   C586    1.425   .     S
C553   O813    1.286   1_455 S
C554   O641    1.311   .     A
C554   C556    1.473   .     S
C554   O731    1.305   .     S
C555   C559    1.431   .     A
C555   C561    1.410   .     A
C555   C588    1.497   .     S
C556   C560    1.412   .     A
C556   C562    1.389   .     A
C557   C559    1.411   .     A
C557   C566    1.377   .     A
C557   H1634   1.081   1_455 S
C558   C567    1.400   .     A
C558   C560    1.407   .     A
C558   H715    1.077   .     S
C559   O814    1.409   1_455 S
C560   O734    1.389   .     S
C561   C563    1.408   .     A
C561   H621    1.062   .     S
C562   C565    1.401   .     A
C562   H611    1.068   .     S
C563   C566    1.398   .     A
C563   C568    1.434   .     A
C564   O637    1.307   .     A
C564   C587    1.425   .     S
C564   O727    1.286   .     S
C565   C567    1.401   .     A
C565   C569    1.423   .     A
C566   C1412   1.374   .     S
C567   C1413   1.384   1_554 S
C568   C583    1.432   .     A
C568   C1397   1.445   .     S
C569   C575    1.429   .     A
C569   C1396   1.445   1_554 S
C570   C571    1.533   .     S
C570   O642    1.422   .     S
C570   H590    1.110   .     S
C570   H810    1.116   1_455 S
C571   H591    1.107   .     S
C571   H593    1.106   .     S
C572   H595    1.114   .     S
C572   H594    1.113   .     S
C572   O630    1.437   .     S
C572   C573    1.510   .     S
C573   H598    1.106   .     S
C573   H44     1.105   1_565 S
C573   H45     1.108   1_565 S
C574   O631    1.419   .     S
C574   H599    1.116   .     S
C574   H601    1.111   .     S
C574   C576    1.512   .     S
C575   C584    1.376   .     A
C575   O631    1.383   .     S
C576   H604    1.103   .     S
C576   H603    1.107   .     S
C576   H602    1.107   .     S
C577   O632    1.418   .     S
C577   H605    1.115   .     S
C577   H606    1.109   .     S
C577   C578    1.520   .     S
C578   H607    1.106   .     S
C578   H608    1.106   .     S
C578   H609    1.098   .     S
C579   O633    1.397   .     S
C579   H610    1.106   .     S
C579   H612    1.114   .     S
C579   C580    1.518   .     S
C580   H613    1.109   .     S
C580   H615    1.103   .     S
C580   H614    1.111   .     S
C581   C582    1.486   .     S
C581   H616    1.111   .     S
C581   H617    1.110   .     S
C581   O634    1.399   .     S
C582   H619    1.105   .     S
C582   H618    1.098   .     S
C582   H620    1.102   .     S
C583   O632    1.390   .     S
C583   C585    1.398   .     A
C584   H589    1.084   .     S
C584   C1394   1.374   1_554 S
C585   H600    1.081   .     S
C585   C1395   1.384   .     S
C586   C219    1.348   1_465 S
C586   H72     1.087   1_565 S
C588   O640    1.315   .     A
C588   O822    1.314   1_455 S
H592   C19     1.110   1_565 S
H622   C1477   1.081   1_554 S
H623   C742    1.077   1_455 S
H625   C35     1.086   1_565 S
H626   C662    1.116   .     S
N627   O633    1.339   .     S
N627   N628    1.300   .     D
N627   Zn644   2.040   .     S
N628   O634    1.334   .     S
N628   Zn643   2.040   .     S
O629   Zn643   1.979   .     S
O629   C645    1.286   .     S
O630   C651    1.409   .     S
O635   Zn644   1.979   .     S
O635   C748    1.286   1_455 S
O636   Zn644   2.011   .     S
O637   Zn643   2.011   .     S
O638   Zn643   1.985   .     S
O638   C680    1.314   .     S
O639   Zn644   1.985   .     S
O639   C738    1.305   1_455 S
O640   Zn644   1.920   .     S
O641   Zn643   1.920   .     S
O642   C744    1.389   1_455 S
C645   O728    1.307   .     A
C645   C678    1.425   .     S
C646   O733    1.311   .     A
C646   C648    1.473   .     S
C646   O823    1.305   .     S
C647   C651    1.431   .     A
C647   C653    1.410   .     A
C647   C680    1.497   .     S
C648   C652    1.412   .     A
C648   C654    1.389   .     A
C649   C651    1.411   .     A
C649   C658    1.377   .     A
C649   H1450   1.081   .     S
C650   C659    1.400   .     A
C650   C652    1.407   .     A
C650   H807    1.077   .     S
C652   O826    1.389   .     S
C653   C655    1.408   .     A
C653   H713    1.062   .     S
C654   C657    1.401   .     A
C654   H703    1.068   .     S
C655   C658    1.398   .     A
C655   C660    1.434   .     A
C656   O729    1.307   .     A
C656   C679    1.425   .     S
C656   O819    1.286   .     S
C657   C659    1.401   .     A
C657   C661    1.423   .     A
C658   C1504   1.374   .     S
C659   C1505   1.384   1_554 S
C660   C675    1.432   .     A
C660   C1489   1.445   .     S
C661   C667    1.429   .     A
C661   C1488   1.445   1_554 S
C662   C663    1.533   .     S
C662   O734    1.422   .     S
C662   H682    1.110   .     S
C663   H683    1.107   .     S
C663   H685    1.106   .     S
C664   H687    1.114   .     S
C664   H686    1.113   .     S
C664   O722    1.437   .     S
C664   C665    1.510   .     S
C665   H690    1.106   .     S
C665   H136    1.105   1_565 S
C665   H137    1.108   1_565 S
C666   O723    1.419   .     S
C666   H691    1.116   .     S
C666   H693    1.111   .     S
C666   C668    1.512   .     S
C667   C676    1.376   .     A
C667   O723    1.383   .     S
C668   H696    1.103   .     S
C668   H695    1.107   .     S
C668   H694    1.107   .     S
C669   O724    1.418   .     S
C669   H697    1.115   .     S
C669   H698    1.109   .     S
C669   C670    1.520   .     S
C670   H699    1.106   .     S
C670   H700    1.106   .     S
C670   H701    1.098   .     S
C671   O725    1.397   .     S
C671   H702    1.106   .     S
C671   H704    1.114   .     S
C671   C672    1.518   .     S
C672   H705    1.109   .     S
C672   H707    1.103   .     S
C672   H706    1.111   .     S
C673   C674    1.486   .     S
C673   H708    1.111   .     S
C673   H709    1.110   .     S
C673   O726    1.399   .     S
C674   H711    1.105   .     S
C674   H710    1.098   .     S
C674   H712    1.102   .     S
C675   O724    1.390   .     S
C675   C677    1.398   .     A
C676   H681    1.084   .     S
C676   C1486   1.374   1_554 S
C677   H692    1.081   .     S
C677   C1487   1.384   .     S
C678   C35     1.348   1_565 S
C678   H164    1.087   1_565 S
C680   O732    1.315   .     A
H684   C111    1.110   1_565 S
H714   C1569   1.081   1_554 S
H717   C127    1.086   1_565 S
H718   C754    1.116   .     S
N719   O725    1.339   .     S
N719   N720    1.300   .     D
N719   Zn736   2.040   .     S
N720   O726    1.334   .     S
N720   Zn735   2.040   .     S
O721   Zn735   1.979   .     S
O721   C737    1.286   .     S
O722   C743    1.409   .     S
O727   Zn736   1.979   .     S
O728   Zn736   2.011   .     S
O729   Zn735   2.011   .     S
O730   Zn735   1.985   .     S
O730   C772    1.314   .     S
O731   Zn736   1.985   .     S
O732   Zn736   1.920   .     S
O733   Zn735   1.920   .     S
C737   O820    1.307   .     A
C737   C770    1.425   .     S
C738   O825    1.311   .     A
C738   C740    1.473   .     S
C738   O639    1.305   1_655 S
C739   C743    1.431   .     A
C739   C745    1.410   .     A
C739   C772    1.497   .     S
C740   C744    1.412   .     A
C740   C746    1.389   .     A
C741   C743    1.411   .     A
C741   C750    1.377   .     A
C741   H1542   1.081   .     S
C742   C751    1.400   .     A
C742   C744    1.407   .     A
C742   H623    1.077   1_655 S
C744   O642    1.389   1_655 S
C745   C747    1.408   .     A
C745   H805    1.062   .     S
C746   C749    1.401   .     A
C746   H795    1.068   .     S
C747   C750    1.398   .     A
C747   C752    1.434   .     A
C748   O821    1.307   .     A
C748   C771    1.425   .     S
C748   O635    1.286   1_655 S
C749   C751    1.401   .     A
C749   C753    1.423   .     A
C750   C1596   1.374   .     S
C751   C1597   1.384   1_554 S
C752   C767    1.432   .     A
C752   C1581   1.445   .     S
C753   C759    1.429   .     A
C753   C1580   1.445   1_554 S
C754   C755    1.533   .     S
C754   O826    1.422   .     S
C754   H774    1.110   .     S
C755   H775    1.107   .     S
C755   H777    1.106   .     S
C756   H779    1.114   .     S
C756   H778    1.113   .     S
C756   O814    1.437   .     S
C756   C757    1.510   .     S
C757   H782    1.106   .     S
C757   H228    1.105   1_565 S
C757   H229    1.108   1_565 S
C758   O815    1.419   .     S
C758   H783    1.116   .     S
C758   H785    1.111   .     S
C758   C760    1.512   .     S
C759   C768    1.376   .     A
C759   O815    1.383   .     S
C760   H788    1.103   .     S
C760   H787    1.107   .     S
C760   H786    1.107   .     S
C761   O816    1.418   .     S
C761   H789    1.115   .     S
C761   H790    1.109   .     S
C761   C762    1.520   .     S
C762   H791    1.106   .     S
C762   H792    1.106   .     S
C762   H793    1.098   .     S
C763   O817    1.397   .     S
C763   H794    1.106   .     S
C763   H796    1.114   .     S
C763   C764    1.518   .     S
C764   H797    1.109   .     S
C764   H799    1.103   .     S
C764   H798    1.111   .     S
C765   C766    1.486   .     S
C765   H800    1.111   .     S
C765   H801    1.110   .     S
C765   O818    1.399   .     S
C766   H803    1.105   .     S
C766   H802    1.098   .     S
C766   H804    1.102   .     S
C767   O816    1.390   .     S
C767   C769    1.398   .     A
C768   H773    1.084   .     S
C768   C1578   1.374   1_554 S
C769   H784    1.081   .     S
C769   C1579   1.384   .     S
C770   C127    1.348   1_565 S
C770   H256    1.087   1_565 S
C771   C310    1.348   1_655 S
C772   O824    1.315   .     A
H776   C203    1.110   1_565 S
H806   C1385   1.081   1_654 S
H809   C219    1.086   1_565 S
H810   C570    1.116   1_655 S
N811   O817    1.339   .     S
N811   N812    1.300   .     D
N811   Zn828   2.040   .     S
N812   O818    1.334   .     S
N812   Zn827   2.040   .     S
O813   Zn827   1.979   .     S
O813   C553    1.286   1_655 S
O814   C559    1.409   1_655 S
O819   Zn828   1.979   .     S
O820   Zn828   2.011   .     S
O821   Zn827   2.011   .     S
O822   Zn827   1.985   .     S
O822   C588    1.314   1_655 S
O823   Zn828   1.985   .     S
O824   Zn828   1.920   .     S
O825   Zn827   1.920   .     S
C829   O912    1.307   .     A
C829   C862    1.425   .     S
C829   O1089   1.286   1_455 S
C830   O917    1.311   .     A
C830   C832    1.473   .     S
C830   O1007   1.305   .     S
C831   C835    1.431   .     A
C831   C837    1.410   .     A
C831   C864    1.497   .     S
C832   C836    1.412   .     A
C832   C838    1.389   .     A
C833   C835    1.411   .     A
C833   C842    1.377   .     A
C833   H254    1.081   1_456 S
C834   C843    1.400   .     A
C834   C836    1.407   .     A
C834   H991    1.077   .     S
C835   O1090   1.409   1_455 S
C836   O1010   1.389   .     S
C837   C839    1.408   .     A
C837   H897    1.062   .     S
C838   C841    1.401   .     A
C838   H887    1.068   .     S
C839   C842    1.398   .     A
C839   C844    1.434   .     A
C840   O913    1.307   .     A
C840   C863    1.425   .     S
C840   O1003   1.286   .     S
C841   C843    1.401   .     A
C841   C845    1.423   .     A
C842   C32     1.374   1_556 S
C844   C859    1.432   .     A
C844   C17     1.445   1_556 S
C845   C851    1.429   .     A
C846   C847    1.533   .     S
C846   O918    1.422   .     S
C846   H866    1.110   .     S
C846   H1086   1.116   1_455 S
C847   H867    1.107   .     S
C847   H869    1.106   .     S
C847   H1420   1.110   1_545 S
C848   H871    1.114   .     S
C848   H870    1.113   .     S
C848   O906    1.437   .     S
C848   C849    1.510   .     S
C849   H874    1.106   .     S
C849   H1148   1.105   .     S
C849   H1149   1.108   .     S
C850   O907    1.419   .     S
C850   H875    1.116   .     S
C850   H877    1.111   .     S
C850   C852    1.512   .     S
C851   C860    1.376   .     A
C851   O907    1.383   .     S
C852   H880    1.103   .     S
C852   H879    1.107   .     S
C852   H878    1.107   .     S
C853   O908    1.418   .     S
C853   H881    1.115   .     S
C853   H882    1.109   .     S
C853   C854    1.520   .     S
C854   H883    1.106   .     S
C854   H884    1.106   .     S
C854   H885    1.098   .     S
C855   O909    1.397   .     S
C855   H886    1.106   .     S
C855   H888    1.114   .     S
C855   C856    1.518   .     S
C856   H889    1.109   .     S
C856   H891    1.103   .     S
C856   H890    1.111   .     S
C857   C858    1.486   .     S
C857   H892    1.111   .     S
C857   H893    1.110   .     S
C857   O910    1.399   .     S
C858   H895    1.105   .     S
C858   H894    1.098   .     S
C858   H896    1.102   .     S
C859   O908    1.390   .     S
C859   C861    1.398   .     A
C860   H865    1.084   .     S
C861   H876    1.081   .     S
C861   C15     1.384   1_556 S
C862   C1323   1.348   1_455 S
C862   H1176   1.087   .     S
C863   C1506   1.348   1_545 S
C863   H1453   1.086   1_545 S
C864   O916    1.315   .     A
C864   O1098   1.314   1_455 S
H868   C1123   1.110   .     S
H872   C1401   1.105   1_545 S
H873   C1401   1.108   1_545 S
H899   C1018   1.077   1_455 S
H900   C1414   1.087   1_545 S
H901   C1139   1.086   .     S
H902   C938    1.116   .     S
N903   O909    1.339   .     S
N903   N904    1.300   .     D
N903   Zn920   2.040   .     S
N904   O910    1.334   .     S
N904   Zn919   2.040   .     S
O905   Zn919   1.979   .     S
O905   C921    1.286   .     S
O906   C927    1.409   .     S
O911   Zn920   1.979   .     S
O911   C1024   1.286   1_455 S
O912   Zn920   2.011   .     S
O913   Zn919   2.011   .     S
O914   Zn919   1.985   .     S
O914   C956    1.314   .     S
O915   Zn920   1.985   .     S
O915   C1014   1.305   1_455 S
O916   Zn920   1.920   .     S
O917   Zn919   1.920   .     S
O918   C1020   1.389   1_455 S
C921   O1004   1.307   .     A
C921   C954    1.425   .     S
C922   O1009   1.311   .     A
C922   C924    1.473   .     S
C922   O1099   1.305   .     S
C923   C927    1.431   .     A
C923   C929    1.410   .     A
C923   C956    1.497   .     S
C924   C928    1.412   .     A
C924   C930    1.389   .     A
C925   C927    1.411   .     A
C925   C934    1.377   .     A
C925   H70     1.081   1_556 S
C926   C935    1.400   .     A
C926   C928    1.407   .     A
C926   H1083   1.077   .     S
C928   O1102   1.389   .     S
C929   C931    1.408   .     A
C929   H989    1.062   .     S
C930   C933    1.401   .     A
C930   H979    1.068   .     S
C931   C934    1.398   .     A
C931   C936    1.434   .     A
C932   O1005   1.307   .     A
C932   C955    1.425   .     S
C932   O1095   1.286   .     S
C933   C935    1.401   .     A
C933   C937    1.423   .     A
C934   C124    1.374   1_556 S
C936   C951    1.432   .     A
C936   C109    1.445   1_556 S
C937   C943    1.429   .     A
C938   C939    1.533   .     S
C938   O1010   1.422   .     S
C938   H958    1.110   .     S
C939   H959    1.107   .     S
C939   H961    1.106   .     S
C939   H1512   1.110   1_545 S
C940   H963    1.114   .     S
C940   H962    1.113   .     S
C940   O998    1.437   .     S
C940   C941    1.510   .     S
C941   H966    1.106   .     S
C941   H1240   1.105   .     S
C941   H1241   1.108   .     S
C942   O999    1.419   .     S
C942   H967    1.116   .     S
C942   H969    1.111   .     S
C942   C944    1.512   .     S
C943   C952    1.376   .     A
C943   O999    1.383   .     S
C944   H972    1.103   .     S
C944   H971    1.107   .     S
C944   H970    1.107   .     S
C945   O1000   1.418   .     S
C945   H973    1.115   .     S
C945   H974    1.109   .     S
C945   C946    1.520   .     S
C946   H975    1.106   .     S
C946   H976    1.106   .     S
C946   H977    1.098   .     S
C947   O1001   1.397   .     S
C947   H978    1.106   .     S
C947   H980    1.114   .     S
C947   C948    1.518   .     S
C948   H981    1.109   .     S
C948   H983    1.103   .     S
C948   H982    1.111   .     S
C949   C950    1.486   .     S
C949   H984    1.111   .     S
C949   H985    1.110   .     S
C949   O1002   1.399   .     S
C950   H987    1.105   .     S
C950   H986    1.098   .     S
C950   H988    1.102   .     S
C951   O1000   1.390   .     S
C951   C953    1.398   .     A
C952   H957    1.084   .     S
C953   H968    1.081   .     S
C953   C107    1.384   1_556 S
C954   C1139   1.348   .     S
C954   H1268   1.087   .     S
C955   C1598   1.348   1_545 S
C955   H1545   1.086   1_545 S
C956   O1008   1.315   .     A
H960   C1215   1.110   .     S
H964   C1493   1.105   1_545 S
H965   C1493   1.108   1_545 S
H992   C1506   1.087   1_545 S
H993   C1231   1.086   .     S
H994   C1030   1.116   .     S
N995   O1001   1.339   .     S
N995   N996    1.300   .     D
N995   Zn1012  2.040   .     S
N996   O1002   1.334   .     S
N996   Zn1011  2.040   .     S
O997   Zn1011  1.979   .     S
O997   C1013   1.286   .     S
O998   C1019   1.409   .     S
O1003  Zn1012  1.979   .     S
O1004  Zn1012  2.011   .     S
O1005  Zn1011  2.011   .     S
O1006  Zn1011  1.985   .     S
O1006  C1048   1.314   .     S
O1007  Zn1012  1.985   .     S
O1008  Zn1012  1.920   .     S
O1009  Zn1011  1.920   .     S
C1013  O1096   1.307   .     A
C1013  C1046   1.425   .     S
C1014  O1101   1.311   .     A
C1014  C1016   1.473   .     S
C1014  O915    1.305   1_655 S
C1015  C1019   1.431   .     A
C1015  C1021   1.410   .     A
C1015  C1048   1.497   .     S
C1016  C1020   1.412   .     A
C1016  C1022   1.389   .     A
C1017  C1019   1.411   .     A
C1017  C1026   1.377   .     A
C1017  H162    1.081   1_556 S
C1018  C1027   1.400   .     A
C1018  C1020   1.407   .     A
C1018  H899    1.077   1_655 S
C1020  O918    1.389   1_655 S
C1021  C1023   1.408   .     A
C1021  H1081   1.062   .     S
C1022  C1025   1.401   .     A
C1022  H1071   1.068   .     S
C1023  C1026   1.398   .     A
C1023  C1028   1.434   .     A
C1024  O1097   1.307   .     A
C1024  C1047   1.425   .     S
C1024  O911    1.286   1_655 S
C1025  C1027   1.401   .     A
C1025  C1029   1.423   .     A
C1026  C216    1.374   1_556 S
C1028  C1043   1.432   .     A
C1028  C201    1.445   1_556 S
C1029  C1035   1.429   .     A
C1030  C1031   1.533   .     S
C1030  O1102   1.422   .     S
C1030  H1050   1.110   .     S
C1031  H1051   1.107   .     S
C1031  H1053   1.106   .     S
C1031  H1604   1.110   1_545 S
C1032  H1055   1.114   .     S
C1032  H1054   1.113   .     S
C1032  O1090   1.437   .     S
C1032  C1033   1.510   .     S
C1033  H1058   1.106   .     S
C1033  H1332   1.105   .     S
C1033  H1333   1.108   .     S
C1034  O1091   1.419   .     S
C1034  H1059   1.116   .     S
C1034  H1061   1.111   .     S
C1034  C1036   1.512   .     S
C1035  C1044   1.376   .     A
C1035  O1091   1.383   .     S
C1036  H1064   1.103   .     S
C1036  H1063   1.107   .     S
C1036  H1062   1.107   .     S
C1037  O1092   1.418   .     S
C1037  H1065   1.115   .     S
C1037  H1066   1.109   .     S
C1037  C1038   1.520   .     S
C1038  H1067   1.106   .     S
C1038  H1068   1.106   .     S
C1038  H1069   1.098   .     S
C1039  O1093   1.397   .     S
C1039  H1070   1.106   .     S
C1039  H1072   1.114   .     S
C1039  C1040   1.518   .     S
C1040  H1073   1.109   .     S
C1040  H1075   1.103   .     S
C1040  H1074   1.111   .     S
C1041  C1042   1.486   .     S
C1041  H1076   1.111   .     S
C1041  H1077   1.110   .     S
C1041  O1094   1.399   .     S
C1042  H1079   1.105   .     S
C1042  H1078   1.098   .     S
C1042  H1080   1.102   .     S
C1043  O1092   1.390   .     S
C1043  C1045   1.398   .     A
C1044  H1049   1.084   .     S
C1045  H1060   1.081   .     S
C1045  C199    1.384   1_556 S
C1046  C1231   1.348   .     S
C1046  H1360   1.087   .     S
C1047  C1414   1.348   1_645 S
C1047  H1637   1.086   1_545 S
C1048  O1100   1.315   .     A
H1052  C1307   1.110   .     S
H1056  C1585   1.105   1_545 S
H1057  C1585   1.108   1_545 S
H1082  C5      1.081   1_655 S
H1084  C1598   1.087   1_545 S
H1085  C1323   1.086   .     S
H1086  C846    1.116   1_655 S
N1087  O1093   1.339   .     S
N1087  N1088   1.300   .     D
N1087  Zn1104  2.040   .     S
N1088  O1094   1.334   .     S
N1088  Zn1103  2.040   .     S
O1089  Zn1103  1.979   .     S
O1089  C829    1.286   1_655 S
O1090  C835    1.409   1_655 S
O1095  Zn1104  1.979   .     S
O1096  Zn1104  2.011   .     S
O1097  Zn1103  2.011   .     S
O1098  Zn1103  1.985   .     S
O1098  C864    1.314   1_655 S
O1099  Zn1104  1.985   .     S
O1100  Zn1104  1.920   .     S
O1101  Zn1103  1.920   .     S
C1105  O1188   1.307   .     A
C1105  C1138   1.425   .     S
C1105  O1365   1.286   1_455 S
C1106  O1193   1.311   .     A
C1106  C1108   1.473   .     S
C1106  O1283   1.305   .     S
C1107  C1111   1.431   .     A
C1107  C1113   1.410   .     A
C1107  C1140   1.497   .     S
C1108  C1112   1.412   .     A
C1108  C1114   1.389   .     A
C1109  C1111   1.411   .     A
C1109  C1118   1.377   .     A
C1109  H530    1.081   1_456 S
C1110  C1119   1.400   .     A
C1110  C1112   1.407   .     A
C1110  H1267   1.077   .     S
C1111  O1366   1.409   1_455 S
C1112  O1286   1.389   .     S
C1113  C1115   1.408   .     A
C1113  H1173   1.062   .     S
C1114  C1117   1.401   .     A
C1114  H1163   1.068   .     S
C1115  C1118   1.398   .     A
C1115  C1120   1.434   .     A
C1116  O1189   1.307   .     A
C1116  C1139   1.425   .     S
C1116  O1279   1.286   .     S
C1117  C1119   1.401   .     A
C1117  C1121   1.423   .     A
C1118  C308    1.374   1_556 S
C1120  C1135   1.432   .     A
C1120  C293    1.445   1_556 S
C1121  C1127   1.429   .     A
C1122  C1123   1.533   .     S
C1122  O1194   1.422   .     S
C1122  H1142   1.110   .     S
C1122  H1362   1.116   1_455 S
C1123  H1143   1.107   .     S
C1123  H1145   1.106   .     S
C1124  H1147   1.114   .     S
C1124  H1146   1.113   .     S
C1124  O1182   1.437   .     S
C1124  C1125   1.510   .     S
C1125  H1150   1.106   .     S
C1125  H1424   1.105   .     S
C1125  H1425   1.108   .     S
C1126  O1183   1.419   .     S
C1126  H1151   1.116   .     S
C1126  H1153   1.111   .     S
C1126  C1128   1.512   .     S
C1127  C1136   1.376   .     A
C1127  O1183   1.383   .     S
C1128  H1156   1.103   .     S
C1128  H1155   1.107   .     S
C1128  H1154   1.107   .     S
C1129  O1184   1.418   .     S
C1129  H1157   1.115   .     S
C1129  H1158   1.109   .     S
C1129  C1130   1.520   .     S
C1130  H1159   1.106   .     S
C1130  H1160   1.106   .     S
C1130  H1161   1.098   .     S
C1131  O1185   1.397   .     S
C1131  H1162   1.106   .     S
C1131  H1164   1.114   .     S
C1131  C1132   1.518   .     S
C1132  H1165   1.109   .     S
C1132  H1167   1.103   .     S
C1132  H1166   1.111   .     S
C1133  C1134   1.486   .     S
C1133  H1168   1.111   .     S
C1133  H1169   1.110   .     S
C1133  O1186   1.399   .     S
C1134  H1171   1.105   .     S
C1134  H1170   1.098   .     S
C1134  H1172   1.102   .     S
C1135  O1184   1.390   .     S
C1135  C1137   1.398   .     A
C1136  H1141   1.084   .     S
C1137  H1152   1.081   .     S
C1137  C291    1.384   1_556 S
C1138  C1599   1.348   1_455 S
C1138  H1452   1.087   .     S
C1140  O1192   1.315   .     A
C1140  O1374   1.314   1_455 S
H1144  C1399   1.110   .     S
H1175  C1294   1.077   1_455 S
H1177  C1415   1.086   .     S
H1178  C1214   1.116   .     S
N1179  O1185   1.339   .     S
N1179  N1180   1.300   .     D
N1179  Zn1196  2.040   .     S
N1180  O1186   1.334   .     S
N1180  Zn1195  2.040   .     S
O1181  Zn1195  1.979   .     S
O1181  C1197   1.286   .     S
O1182  C1203   1.409   .     S
O1187  Zn1196  1.979   .     S
O1187  C1300   1.286   1_455 S
O1188  Zn1196  2.011   .     S
O1189  Zn1195  2.011   .     S
O1190  Zn1195  1.985   .     S
O1190  C1232   1.314   .     S
O1191  Zn1196  1.985   .     S
O1191  C1290   1.305   1_455 S
O1192  Zn1196  1.920   .     S
O1193  Zn1195  1.920   .     S
O1194  C1296   1.389   1_455 S
C1197  O1280   1.307   .     A
C1197  C1230   1.425   .     S
C1198  O1285   1.311   .     A
C1198  C1200   1.473   .     S
C1198  O1375   1.305   .     S
C1199  C1203   1.431   .     A
C1199  C1205   1.410   .     A
C1199  C1232   1.497   .     S
C1200  C1204   1.412   .     A
C1200  C1206   1.389   .     A
C1201  C1203   1.411   .     A
C1201  C1210   1.377   .     A
C1201  H346    1.081   1_556 S
C1202  C1211   1.400   .     A
C1202  C1204   1.407   .     A
C1202  H1359   1.077   .     S
C1204  O1378   1.389   .     S
C1205  C1207   1.408   .     A
C1205  H1265   1.062   .     S
C1206  C1209   1.401   .     A
C1206  H1255   1.068   .     S
C1207  C1210   1.398   .     A
C1207  C1212   1.434   .     A
C1208  O1281   1.307   .     A
C1208  C1231   1.425   .     S
C1208  O1371   1.286   .     S
C1209  C1211   1.401   .     A
C1209  C1213   1.423   .     A
C1210  C400    1.374   1_556 S
C1212  C1227   1.432   .     A
C1212  C385    1.445   1_556 S
C1213  C1219   1.429   .     A
C1214  C1215   1.533   .     S
C1214  O1286   1.422   .     S
C1214  H1234   1.110   .     S
C1215  H1235   1.107   .     S
C1215  H1237   1.106   .     S
C1216  H1239   1.114   .     S
C1216  H1238   1.113   .     S
C1216  O1274   1.437   .     S
C1216  C1217   1.510   .     S
C1217  H1242   1.106   .     S
C1217  H1516   1.105   .     S
C1217  H1517   1.108   .     S
C1218  O1275   1.419   .     S
C1218  H1243   1.116   .     S
C1218  H1245   1.111   .     S
C1218  C1220   1.512   .     S
C1219  C1228   1.376   .     A
C1219  O1275   1.383   .     S
C1220  H1248   1.103   .     S
C1220  H1247   1.107   .     S
C1220  H1246   1.107   .     S
C1221  O1276   1.418   .     S
C1221  H1249   1.115   .     S
C1221  H1250   1.109   .     S
C1221  C1222   1.520   .     S
C1222  H1251   1.106   .     S
C1222  H1252   1.106   .     S
C1222  H1253   1.098   .     S
C1223  O1277   1.397   .     S
C1223  H1254   1.106   .     S
C1223  H1256   1.114   .     S
C1223  C1224   1.518   .     S
C1224  H1257   1.109   .     S
C1224  H1259   1.103   .     S
C1224  H1258   1.111   .     S
C1225  C1226   1.486   .     S
C1225  H1260   1.111   .     S
C1225  H1261   1.110   .     S
C1225  O1278   1.399   .     S
C1226  H1263   1.105   .     S
C1226  H1262   1.098   .     S
C1226  H1264   1.102   .     S
C1227  O1276   1.390   .     S
C1227  C1229   1.398   .     A
C1228  H1233   1.084   .     S
C1229  H1244   1.081   .     S
C1229  C383    1.384   1_556 S
C1230  C1415   1.348   .     S
C1230  H1544   1.087   .     S
C1232  O1284   1.315   .     A
H1236  C1491   1.110   .     S
H1269  C1507   1.086   .     S
H1270  C1306   1.116   .     S
N1271  O1277   1.339   .     S
N1271  N1272   1.300   .     D
N1271  Zn1288  2.040   .     S
N1272  O1278   1.334   .     S
N1272  Zn1287  2.040   .     S
O1273  Zn1287  1.979   .     S
O1273  C1289   1.286   .     S
O1274  C1295   1.409   .     S
O1279  Zn1288  1.979   .     S
O1280  Zn1288  2.011   .     S
O1281  Zn1287  2.011   .     S
O1282  Zn1287  1.985   .     S
O1282  C1324   1.314   .     S
O1283  Zn1288  1.985   .     S
O1284  Zn1288  1.920   .     S
O1285  Zn1287  1.920   .     S
C1289  O1372   1.307   .     A
C1289  C1322   1.425   .     S
C1290  O1377   1.311   .     A
C1290  C1292   1.473   .     S
C1290  O1191   1.305   1_655 S
C1291  C1295   1.431   .     A
C1291  C1297   1.410   .     A
C1291  C1324   1.497   .     S
C1292  C1296   1.412   .     A
C1292  C1298   1.389   .     A
C1293  C1295   1.411   .     A
C1293  C1302   1.377   .     A
C1293  H438    1.081   1_556 S
C1294  C1303   1.400   .     A
C1294  C1296   1.407   .     A
C1294  H1175   1.077   1_655 S
C1296  O1194   1.389   1_655 S
C1297  C1299   1.408   .     A
C1297  H1357   1.062   .     S
C1298  C1301   1.401   .     A
C1298  H1347   1.068   .     S
C1299  C1302   1.398   .     A
C1299  C1304   1.434   .     A
C1300  O1373   1.307   .     A
C1300  C1323   1.425   .     S
C1300  O1187   1.286   1_655 S
C1301  C1303   1.401   .     A
C1301  C1305   1.423   .     A
C1302  C492    1.374   1_556 S
C1304  C1319   1.432   .     A
C1304  C477    1.445   1_556 S
C1305  C1311   1.429   .     A
C1306  C1307   1.533   .     S
C1306  O1378   1.422   .     S
C1306  H1326   1.110   .     S
C1307  H1327   1.107   .     S
C1307  H1329   1.106   .     S
C1308  H1331   1.114   .     S
C1308  H1330   1.113   .     S
C1308  O1366   1.437   .     S
C1308  C1309   1.510   .     S
C1309  H1334   1.106   .     S
C1309  H1608   1.105   .     S
C1309  H1609   1.108   .     S
C1310  O1367   1.419   .     S
C1310  H1335   1.116   .     S
C1310  H1337   1.111   .     S
C1310  C1312   1.512   .     S
C1311  C1320   1.376   .     A
C1311  O1367   1.383   .     S
C1312  H1340   1.103   .     S
C1312  H1339   1.107   .     S
C1312  H1338   1.107   .     S
C1313  O1368   1.418   .     S
C1313  H1341   1.115   .     S
C1313  H1342   1.109   .     S
C1313  C1314   1.520   .     S
C1314  H1343   1.106   .     S
C1314  H1344   1.106   .     S
C1314  H1345   1.098   .     S
C1315  O1369   1.397   .     S
C1315  H1346   1.106   .     S
C1315  H1348   1.114   .     S
C1315  C1316   1.518   .     S
C1316  H1349   1.109   .     S
C1316  H1351   1.103   .     S
C1316  H1350   1.111   .     S
C1317  C1318   1.486   .     S
C1317  H1352   1.111   .     S
C1317  H1353   1.110   .     S
C1317  O1370   1.399   .     S
C1318  H1355   1.105   .     S
C1318  H1354   1.098   .     S
C1318  H1356   1.102   .     S
C1319  O1368   1.390   .     S
C1319  C1321   1.398   .     A
C1320  H1325   1.084   .     S
C1321  H1336   1.081   .     S
C1321  C475    1.384   1_556 S
C1322  C1507   1.348   .     S
C1322  H1636   1.087   .     S
C1323  C862    1.348   1_655 S
C1324  O1376   1.315   .     A
H1328  C1583   1.110   .     S
H1358  C281    1.081   1_655 S
H1361  C1599   1.086   .     S
H1362  C1122   1.116   1_655 S
N1363  O1369   1.339   .     S
N1363  N1364   1.300   .     D
N1363  Zn1380  2.040   .     S
N1364  O1370   1.334   .     S
N1364  Zn1379  2.040   .     S
O1365  Zn1379  1.979   .     S
O1365  C1105   1.286   1_655 S
O1366  C1111   1.409   1_655 S
O1371  Zn1380  1.979   .     S
O1372  Zn1380  2.011   .     S
O1373  Zn1379  2.011   .     S
O1374  Zn1379  1.985   .     S
O1374  C1140   1.314   1_655 S
O1375  Zn1380  1.985   .     S
O1376  Zn1380  1.920   .     S
O1377  Zn1379  1.920   .     S
C1381  O1464   1.307   .     A
C1381  C1414   1.425   .     S
C1381  O1641   1.286   1_455 S
C1382  O1469   1.311   .     A
C1382  C1384   1.473   .     S
C1382  O1559   1.305   .     S
C1383  C1387   1.431   .     A
C1383  C1389   1.410   .     A
C1383  C1416   1.497   .     S
C1384  C1388   1.412   .     A
C1384  C1390   1.389   .     A
C1385  C1387   1.411   .     A
C1385  C1394   1.377   .     A
C1385  H806    1.081   1_456 S
C1386  C1395   1.400   .     A
C1386  C1388   1.407   .     A
C1386  H1543   1.077   .     S
C1387  O1642   1.409   1_455 S
C1388  O1562   1.389   .     S
C1389  C1391   1.408   .     A
C1389  H1449   1.062   .     S
C1390  C1393   1.401   .     A
C1390  H1439   1.068   .     S
C1391  C1394   1.398   .     A
C1391  C1396   1.434   .     A
C1392  O1465   1.307   .     A
C1392  C1415   1.425   .     S
C1392  O1555   1.286   .     S
C1393  C1395   1.401   .     A
C1393  C1397   1.423   .     A
C1394  C584    1.374   1_556 S
C1396  C1411   1.432   .     A
C1396  C569    1.445   1_556 S
C1397  C1403   1.429   .     A
C1398  C1399   1.533   .     S
C1398  O1470   1.422   .     S
C1398  H1418   1.110   .     S
C1398  H1638   1.116   1_455 S
C1399  H1419   1.107   .     S
C1399  H1421   1.106   .     S
C1400  H1423   1.114   .     S
C1400  H1422   1.113   .     S
C1400  O1458   1.437   .     S
C1400  C1401   1.510   .     S
C1401  H1426   1.106   .     S
C1401  H872    1.105   1_565 S
C1401  H873    1.108   1_565 S
C1402  O1459   1.419   .     S
C1402  H1427   1.116   .     S
C1402  H1429   1.111   .     S
C1402  C1404   1.512   .     S
C1403  C1412   1.376   .     A
C1403  O1459   1.383   .     S
C1404  H1432   1.103   .     S
C1404  H1431   1.107   .     S
C1404  H1430   1.107   .     S
C1405  O1460   1.418   .     S
C1405  H1433   1.115   .     S
C1405  H1434   1.109   .     S
C1405  C1406   1.520   .     S
C1406  H1435   1.106   .     S
C1406  H1436   1.106   .     S
C1406  H1437   1.098   .     S
C1407  O1461   1.397   .     S
C1407  H1438   1.106   .     S
C1407  H1440   1.114   .     S
C1407  C1408   1.518   .     S
C1408  H1441   1.109   .     S
C1408  H1443   1.103   .     S
C1408  H1442   1.111   .     S
C1409  C1410   1.486   .     S
C1409  H1444   1.111   .     S
C1409  H1445   1.110   .     S
C1409  O1462   1.399   .     S
C1410  H1447   1.105   .     S
C1410  H1446   1.098   .     S
C1410  H1448   1.102   .     S
C1411  O1460   1.390   .     S
C1411  C1413   1.398   .     A
C1412  H1417   1.084   .     S
C1413  H1428   1.081   .     S
C1413  C567    1.384   1_556 S
C1414  C1047   1.348   1_465 S
C1414  H900    1.087   1_565 S
C1416  O1468   1.315   .     A
C1416  O1650   1.314   1_455 S
H1420  C847    1.110   1_565 S
H1451  C1570   1.077   1_455 S
H1453  C863    1.086   1_565 S
H1454  C1490   1.116   .     S
N1455  O1461   1.339   .     S
N1455  N1456   1.300   .     D
N1455  Zn1472  2.040   .     S
N1456  O1462   1.334   .     S
N1456  Zn1471  2.040   .     S
O1457  Zn1471  1.979   .     S
O1457  C1473   1.286   .     S
O1458  C1479   1.409   .     S
O1463  Zn1472  1.979   .     S
O1463  C1576   1.286   1_455 S
O1464  Zn1472  2.011   .     S
O1465  Zn1471  2.011   .     S
O1466  Zn1471  1.985   .     S
O1466  C1508   1.314   .     S
O1467  Zn1472  1.985   .     S
O1467  C1566   1.305   1_455 S
O1468  Zn1472  1.920   .     S
O1469  Zn1471  1.920   .     S
O1470  C1572   1.389   1_455 S
C1473  O1556   1.307   .     A
C1473  C1506   1.425   .     S
C1474  O1561   1.311   .     A
C1474  C1476   1.473   .     S
C1474  O1651   1.305   .     S
C1475  C1479   1.431   .     A
C1475  C1481   1.410   .     A
C1475  C1508   1.497   .     S
C1476  C1480   1.412   .     A
C1476  C1482   1.389   .     A
C1477  C1479   1.411   .     A
C1477  C1486   1.377   .     A
C1477  H622    1.081   1_556 S
C1478  C1487   1.400   .     A
C1478  C1480   1.407   .     A
C1478  H1635   1.077   .     S
C1480  O1654   1.389   .     S
C1481  C1483   1.408   .     A
C1481  H1541   1.062   .     S
C1482  C1485   1.401   .     A
C1482  H1531   1.068   .     S
C1483  C1486   1.398   .     A
C1483  C1488   1.434   .     A
C1484  O1557   1.307   .     A
C1484  C1507   1.425   .     S
C1484  O1647   1.286   .     S
C1485  C1487   1.401   .     A
C1485  C1489   1.423   .     A
C1486  C676    1.374   1_556 S
C1488  C1503   1.432   .     A
C1488  C661    1.445   1_556 S
C1489  C1495   1.429   .     A
C1490  C1491   1.533   .     S
C1490  O1562   1.422   .     S
C1490  H1510   1.110   .     S
C1491  H1511   1.107   .     S
C1491  H1513   1.106   .     S
C1492  H1515   1.114   .     S
C1492  H1514   1.113   .     S
C1492  O1550   1.437   .     S
C1492  C1493   1.510   .     S
C1493  H1518   1.106   .     S
C1493  H964    1.105   1_565 S
C1493  H965    1.108   1_565 S
C1494  O1551   1.419   .     S
C1494  H1519   1.116   .     S
C1494  H1521   1.111   .     S
C1494  C1496   1.512   .     S
C1495  C1504   1.376   .     A
C1495  O1551   1.383   .     S
C1496  H1524   1.103   .     S
C1496  H1523   1.107   .     S
C1496  H1522   1.107   .     S
C1497  O1552   1.418   .     S
C1497  H1525   1.115   .     S
C1497  H1526   1.109   .     S
C1497  C1498   1.520   .     S
C1498  H1527   1.106   .     S
C1498  H1528   1.106   .     S
C1498  H1529   1.098   .     S
C1499  O1553   1.397   .     S
C1499  H1530   1.106   .     S
C1499  H1532   1.114   .     S
C1499  C1500   1.518   .     S
C1500  H1533   1.109   .     S
C1500  H1535   1.103   .     S
C1500  H1534   1.111   .     S
C1501  C1502   1.486   .     S
C1501  H1536   1.111   .     S
C1501  H1537   1.110   .     S
C1501  O1554   1.399   .     S
C1502  H1539   1.105   .     S
C1502  H1538   1.098   .     S
C1502  H1540   1.102   .     S
C1503  O1552   1.390   .     S
C1503  C1505   1.398   .     A
C1504  H1509   1.084   .     S
C1505  H1520   1.081   .     S
C1505  C659    1.384   1_556 S
C1506  C863    1.348   1_565 S
C1506  H992    1.087   1_565 S
C1508  O1560   1.315   .     A
H1512  C939    1.110   1_565 S
H1545  C955    1.086   1_565 S
H1546  C1582   1.116   .     S
N1547  O1553   1.339   .     S
N1547  N1548   1.300   .     D
N1547  Zn1564  2.040   .     S
N1548  O1554   1.334   .     S
N1548  Zn1563  2.040   .     S
O1549  Zn1563  1.979   .     S
O1549  C1565   1.286   .     S
O1550  C1571   1.409   .     S
O1555  Zn1564  1.979   .     S
O1556  Zn1564  2.011   .     S
O1557  Zn1563  2.011   .     S
O1558  Zn1563  1.985   .     S
O1558  C1600   1.314   .     S
O1559  Zn1564  1.985   .     S
O1560  Zn1564  1.920   .     S
O1561  Zn1563  1.920   .     S
C1565  O1648   1.307   .     A
C1565  C1598   1.425   .     S
C1566  O1653   1.311   .     A
C1566  C1568   1.473   .     S
C1566  O1467   1.305   1_655 S
C1567  C1571   1.431   .     A
C1567  C1573   1.410   .     A
C1567  C1600   1.497   .     S
C1568  C1572   1.412   .     A
C1568  C1574   1.389   .     A
C1569  C1571   1.411   .     A
C1569  C1578   1.377   .     A
C1569  H714    1.081   1_556 S
C1570  C1579   1.400   .     A
C1570  C1572   1.407   .     A
C1570  H1451   1.077   1_655 S
C1572  O1470   1.389   1_655 S
C1573  C1575   1.408   .     A
C1573  H1633   1.062   .     S
C1574  C1577   1.401   .     A
C1574  H1623   1.068   .     S
C1575  C1578   1.398   .     A
C1575  C1580   1.434   .     A
C1576  O1649   1.307   .     A
C1576  C1599   1.425   .     S
C1576  O1463   1.286   1_655 S
C1577  C1579   1.401   .     A
C1577  C1581   1.423   .     A
C1578  C768    1.374   1_556 S
C1580  C1595   1.432   .     A
C1580  C753    1.445   1_556 S
C1581  C1587   1.429   .     A
C1582  C1583   1.533   .     S
C1582  O1654   1.422   .     S
C1582  H1602   1.110   .     S
C1583  H1603   1.107   .     S
C1583  H1605   1.106   .     S
C1584  H1607   1.114   .     S
C1584  H1606   1.113   .     S
C1584  O1642   1.437   .     S
C1584  C1585   1.510   .     S
C1585  H1610   1.106   .     S
C1585  H1056   1.105   1_565 S
C1585  H1057   1.108   1_565 S
C1586  O1643   1.419   .     S
C1586  H1611   1.116   .     S
C1586  H1613   1.111   .     S
C1586  C1588   1.512   .     S
C1587  C1596   1.376   .     A
C1587  O1643   1.383   .     S
C1588  H1616   1.103   .     S
C1588  H1615   1.107   .     S
C1588  H1614   1.107   .     S
C1589  O1644   1.418   .     S
C1589  H1617   1.115   .     S
C1589  H1618   1.109   .     S
C1589  C1590   1.520   .     S
C1590  H1619   1.106   .     S
C1590  H1620   1.106   .     S
C1590  H1621   1.098   .     S
C1591  O1645   1.397   .     S
C1591  H1622   1.106   .     S
C1591  H1624   1.114   .     S
C1591  C1592   1.518   .     S
C1592  H1625   1.109   .     S
C1592  H1627   1.103   .     S
C1592  H1626   1.111   .     S
C1593  C1594   1.486   .     S
C1593  H1628   1.111   .     S
C1593  H1629   1.110   .     S
C1593  O1646   1.399   .     S
C1594  H1631   1.105   .     S
C1594  H1630   1.098   .     S
C1594  H1632   1.102   .     S
C1595  O1644   1.390   .     S
C1595  C1597   1.398   .     A
C1596  H1601   1.084   .     S
C1597  H1612   1.081   .     S
C1597  C751    1.384   1_556 S
C1598  C955    1.348   1_565 S
C1598  H1084   1.087   1_565 S
C1599  C1138   1.348   1_655 S
C1600  O1652   1.315   .     A
H1604  C1031   1.110   1_565 S
H1634  C557    1.081   1_655 S
H1637  C1047   1.086   1_565 S
H1638  C1398   1.116   1_655 S
N1639  O1645   1.339   .     S
N1639  N1640   1.300   .     D
N1639  Zn1656  2.040   .     S
N1640  O1646   1.334   .     S
N1640  Zn1655  2.040   .     S
O1641  Zn1655  1.979   .     S
O1641  C1381   1.286   1_655 S
O1642  C1387   1.409   1_655 S
O1647  Zn1656  1.979   .     S
O1648  Zn1656  2.011   .     S
O1649  Zn1655  2.011   .     S
O1650  Zn1655  1.985   .     S
O1650  C1416   1.314   1_655 S
O1651  Zn1656  1.985   .     S
O1652  Zn1656  1.920   .     S
O1653  Zn1655  1.920   .     S
