data_str_m3_o1_o10_pcu_sym.172
_audit_creation_date              2020-01-03
_audit_creation_method            'Materials Studio'
_symmetry_space_group_name_H-M    'P1'
_symmetry_Int_Tables_number       1
_symmetry_cell_setting            triclinic
loop_
_symmetry_equiv_pos_as_xyz
  x,y,z
_cell_length_a                    25.7777
_cell_length_b                    32.1587
_cell_length_c                    29.5608
_cell_angle_alpha                 89.9321
_cell_angle_beta                  98.5876
_cell_angle_gamma                 90.2174
loop_
_atom_site_label
_atom_site_type_symbol
_atom_site_fract_x
_atom_site_fract_y
_atom_site_fract_z
_atom_site_U_iso_or_equiv
_atom_site_adp_type
_atom_site_occupancy
C1     C     0.16663   0.08664   0.16666   0.00000  Uiso   1.00
C2     C     0.16670   0.24670   0.16667   0.00000  Uiso   1.00
C3     C     0.06704   0.16666   0.15471   0.00000  Uiso   1.00
C4     C     0.26629   0.16668   0.17863   0.00000  Uiso   1.00
C5     C     0.01201   0.16670   0.14826   0.00000  Uiso   1.00
C6     C     0.32132   0.16663   0.18507   0.00000  Uiso   1.00
C7     C     0.17590   0.02137   0.12738   0.00000  Uiso   1.00
C8     C     0.15743   0.31196   0.20595   0.00000  Uiso   1.00
C9     C     0.17594   0.31210   0.12738   0.00000  Uiso   1.00
C10    C     0.15739   0.02123   0.20595   0.00000  Uiso   1.00
C11    C     0.16670   0.29085   0.16666   0.00000  Uiso   1.00
C12    C     0.16664   0.04248   0.16667   0.00000  Uiso   1.00
C13    C     0.19915   0.19295   0.02838   0.00000  Uiso   1.00
C14    C     0.13418   0.14038   0.30496   0.00000  Uiso   1.00
C15    C     0.19894   0.19279   0.31343   0.00000  Uiso   1.00
C16    C     0.13440   0.14054   0.01991   0.00000  Uiso   1.00
H17    H     0.32475   0.16682   0.11334   0.00000  Uiso   1.00
H18    H     0.00858   0.16652   0.22000   0.00000  Uiso   1.00
H19    H     0.18340   0.03763   0.09687   0.00000  Uiso   1.00
H20    H     0.14993   0.29570   0.23646   0.00000  Uiso   1.00
H21    H     0.18348   0.29596   0.09688   0.00000  Uiso   1.00
H22    H     0.14986   0.03738   0.23645   0.00000  Uiso   1.00
H23    H     0.22455   0.21353   0.29810   0.00000  Uiso   1.00
H24    H     0.10879   0.11981   0.03523   0.00000  Uiso   1.00
N25    N     0.16665   0.16666   0.28573   0.00000  Uiso   1.00
N26    N     0.16668   0.16668   0.04760   0.00000  Uiso   1.00
O27    O     0.16666   0.10558   0.20487   0.00000  Uiso   1.00
O28    O     0.16667   0.22775   0.12846   0.00000  Uiso   1.00
O29    O     0.16666   0.10559   0.12843   0.00000  Uiso   1.00
O30    O     0.16667   0.22774   0.20490   0.00000  Uiso   1.00
O31    O     0.09058   0.16666   0.19595   0.00000  Uiso   1.00
O32    O     0.24275   0.16667   0.13739   0.00000  Uiso   1.00
O33    O     0.09058   0.16667   0.11950   0.00000  Uiso   1.00
O34    O     0.24275   0.16666   0.21383   0.00000  Uiso   1.00
Zn35   Zn    0.16667   0.16666   0.21771   0.00000  Uiso   1.00
Zn36   Zn    0.16667   0.16667   0.11563   0.00000  Uiso   1.00
O37    O     0.23166   0.21923   0.05659   0.00000  Uiso   1.00
H38    H     0.25251   0.23610   0.03766   0.00000  Uiso   1.00
O39    O     0.10168   0.11410   0.27675   0.00000  Uiso   1.00
H40    H     0.08082   0.09723   0.29567   0.00000  Uiso   1.00
C41    C     0.49997   0.08664   0.16666   0.00000  Uiso   1.00
C42    C     0.50003   0.24670   0.16667   0.00000  Uiso   1.00
C43    C     0.40038   0.16666   0.15471   0.00000  Uiso   1.00
C44    C     0.59962   0.16668   0.17863   0.00000  Uiso   1.00
C45    C     0.34535   0.16670   0.14826   0.00000  Uiso   1.00
C46    C     0.65465   0.16663   0.18507   0.00000  Uiso   1.00
C47    C     0.50924   0.02137   0.12738   0.00000  Uiso   1.00
C48    C     0.49076   0.31196   0.20595   0.00000  Uiso   1.00
C49    C     0.50928   0.31210   0.12738   0.00000  Uiso   1.00
C50    C     0.49072   0.02123   0.20595   0.00000  Uiso   1.00
C51    C     0.50003   0.29085   0.16666   0.00000  Uiso   1.00
C52    C     0.49997   0.04248   0.16667   0.00000  Uiso   1.00
C53    C     0.53248   0.19295   0.02838   0.00000  Uiso   1.00
C54    C     0.46751   0.14038   0.30496   0.00000  Uiso   1.00
C55    C     0.53227   0.19279   0.31343   0.00000  Uiso   1.00
C56    C     0.46773   0.14054   0.01991   0.00000  Uiso   1.00
H57    H     0.65809   0.16682   0.11334   0.00000  Uiso   1.00
H58    H     0.34191   0.16652   0.22000   0.00000  Uiso   1.00
H59    H     0.51673   0.03763   0.09687   0.00000  Uiso   1.00
H60    H     0.48327   0.29570   0.23646   0.00000  Uiso   1.00
H61    H     0.51681   0.29596   0.09688   0.00000  Uiso   1.00
H62    H     0.48319   0.03738   0.23645   0.00000  Uiso   1.00
H63    H     0.55788   0.21353   0.29810   0.00000  Uiso   1.00
H64    H     0.44212   0.11981   0.03523   0.00000  Uiso   1.00
N65    N     0.49999   0.16666   0.28573   0.00000  Uiso   1.00
N66    N     0.50001   0.16668   0.04760   0.00000  Uiso   1.00
O67    O     0.50000   0.10558   0.20487   0.00000  Uiso   1.00
O68    O     0.50000   0.22775   0.12846   0.00000  Uiso   1.00
O69    O     0.50000   0.10559   0.12843   0.00000  Uiso   1.00
O70    O     0.50000   0.22774   0.20490   0.00000  Uiso   1.00
O71    O     0.42392   0.16666   0.19595   0.00000  Uiso   1.00
O72    O     0.57608   0.16667   0.13739   0.00000  Uiso   1.00
O73    O     0.42392   0.16667   0.11950   0.00000  Uiso   1.00
O74    O     0.57608   0.16666   0.21383   0.00000  Uiso   1.00
Zn75   Zn    0.50000   0.16666   0.21771   0.00000  Uiso   1.00
Zn76   Zn    0.50000   0.16667   0.11563   0.00000  Uiso   1.00
O77    O     0.56499   0.21923   0.05659   0.00000  Uiso   1.00
H78    H     0.58584   0.23610   0.03766   0.00000  Uiso   1.00
O79    O     0.43501   0.11410   0.27675   0.00000  Uiso   1.00
H80    H     0.41416   0.09723   0.29567   0.00000  Uiso   1.00
C81    C     0.83330   0.08664   0.16666   0.00000  Uiso   1.00
C82    C     0.83337   0.24670   0.16667   0.00000  Uiso   1.00
C83    C     0.73371   0.16666   0.15471   0.00000  Uiso   1.00
C84    C     0.93296   0.16668   0.17863   0.00000  Uiso   1.00
C85    C     0.67868   0.16670   0.14826   0.00000  Uiso   1.00
C86    C     0.98799   0.16663   0.18507   0.00000  Uiso   1.00
C87    C     0.84257   0.02137   0.12738   0.00000  Uiso   1.00
C88    C     0.82410   0.31196   0.20595   0.00000  Uiso   1.00
C89    C     0.84261   0.31210   0.12738   0.00000  Uiso   1.00
C90    C     0.82406   0.02123   0.20595   0.00000  Uiso   1.00
C91    C     0.83336   0.29085   0.16666   0.00000  Uiso   1.00
C92    C     0.83330   0.04248   0.16667   0.00000  Uiso   1.00
C93    C     0.86582   0.19295   0.02838   0.00000  Uiso   1.00
C94    C     0.80085   0.14038   0.30496   0.00000  Uiso   1.00
C95    C     0.86560   0.19279   0.31343   0.00000  Uiso   1.00
C96    C     0.80106   0.14054   0.01991   0.00000  Uiso   1.00
H97    H     0.99142   0.16682   0.11334   0.00000  Uiso   1.00
H98    H     0.67524   0.16652   0.22000   0.00000  Uiso   1.00
H99    H     0.85007   0.03763   0.09687   0.00000  Uiso   1.00
H100   H     0.81660   0.29570   0.23646   0.00000  Uiso   1.00
H101   H     0.85014   0.29596   0.09688   0.00000  Uiso   1.00
H102   H     0.81652   0.03738   0.23645   0.00000  Uiso   1.00
H103   H     0.89121   0.21353   0.29810   0.00000  Uiso   1.00
H104   H     0.77545   0.11981   0.03523   0.00000  Uiso   1.00
N105   N     0.83332   0.16666   0.28573   0.00000  Uiso   1.00
N106   N     0.83335   0.16668   0.04760   0.00000  Uiso   1.00
O107   O     0.83333   0.10558   0.20487   0.00000  Uiso   1.00
O108   O     0.83334   0.22775   0.12846   0.00000  Uiso   1.00
O109   O     0.83333   0.10559   0.12843   0.00000  Uiso   1.00
O110   O     0.83334   0.22774   0.20490   0.00000  Uiso   1.00
O111   O     0.75725   0.16666   0.19595   0.00000  Uiso   1.00
O112   O     0.90942   0.16667   0.13739   0.00000  Uiso   1.00
O113   O     0.75725   0.16667   0.11950   0.00000  Uiso   1.00
O114   O     0.90942   0.16666   0.21383   0.00000  Uiso   1.00
Zn115  Zn    0.83333   0.16666   0.21771   0.00000  Uiso   1.00
Zn116  Zn    0.83333   0.16667   0.11563   0.00000  Uiso   1.00
O117   O     0.89832   0.21923   0.05659   0.00000  Uiso   1.00
H118   H     0.91918   0.23610   0.03766   0.00000  Uiso   1.00
O119   O     0.76834   0.11410   0.27675   0.00000  Uiso   1.00
H120   H     0.74749   0.09723   0.29567   0.00000  Uiso   1.00
C121   C     0.16663   0.41997   0.16666   0.00000  Uiso   1.00
C122   C     0.16670   0.58003   0.16667   0.00000  Uiso   1.00
C123   C     0.06704   0.49999   0.15471   0.00000  Uiso   1.00
C124   C     0.26629   0.50001   0.17863   0.00000  Uiso   1.00
C125   C     0.01201   0.50004   0.14826   0.00000  Uiso   1.00
C126   C     0.32132   0.49996   0.18507   0.00000  Uiso   1.00
C127   C     0.17590   0.35470   0.12738   0.00000  Uiso   1.00
C128   C     0.15743   0.64530   0.20595   0.00000  Uiso   1.00
C129   C     0.17594   0.64544   0.12738   0.00000  Uiso   1.00
C130   C     0.15739   0.35456   0.20595   0.00000  Uiso   1.00
C131   C     0.16670   0.62419   0.16666   0.00000  Uiso   1.00
C132   C     0.16664   0.37581   0.16667   0.00000  Uiso   1.00
C133   C     0.19915   0.52629   0.02838   0.00000  Uiso   1.00
C134   C     0.13418   0.47371   0.30496   0.00000  Uiso   1.00
C135   C     0.19894   0.52612   0.31343   0.00000  Uiso   1.00
C136   C     0.13440   0.47388   0.01991   0.00000  Uiso   1.00
H137   H     0.32475   0.50015   0.11334   0.00000  Uiso   1.00
H138   H     0.00858   0.49985   0.22000   0.00000  Uiso   1.00
H139   H     0.18340   0.37096   0.09687   0.00000  Uiso   1.00
H140   H     0.14993   0.62904   0.23646   0.00000  Uiso   1.00
H141   H     0.18348   0.62929   0.09688   0.00000  Uiso   1.00
H142   H     0.14986   0.37071   0.23645   0.00000  Uiso   1.00
H143   H     0.22455   0.54686   0.29810   0.00000  Uiso   1.00
H144   H     0.10879   0.45314   0.03523   0.00000  Uiso   1.00
N145   N     0.16665   0.49999   0.28573   0.00000  Uiso   1.00
N146   N     0.16668   0.50001   0.04760   0.00000  Uiso   1.00
O147   O     0.16666   0.43892   0.20487   0.00000  Uiso   1.00
O148   O     0.16667   0.56108   0.12846   0.00000  Uiso   1.00
O149   O     0.16666   0.43893   0.12843   0.00000  Uiso   1.00
O150   O     0.16667   0.56107   0.20490   0.00000  Uiso   1.00
O151   O     0.09058   0.50000   0.19595   0.00000  Uiso   1.00
O152   O     0.24275   0.50000   0.13739   0.00000  Uiso   1.00
O153   O     0.09058   0.50000   0.11950   0.00000  Uiso   1.00
O154   O     0.24275   0.50000   0.21383   0.00000  Uiso   1.00
Zn155  Zn    0.16667   0.49999   0.21771   0.00000  Uiso   1.00
Zn156  Zn    0.16667   0.50001   0.11563   0.00000  Uiso   1.00
O157   O     0.23166   0.55256   0.05659   0.00000  Uiso   1.00
H158   H     0.25251   0.56943   0.03766   0.00000  Uiso   1.00
O159   O     0.10168   0.44744   0.27675   0.00000  Uiso   1.00
H160   H     0.08082   0.43057   0.29567   0.00000  Uiso   1.00
C161   C     0.49997   0.41997   0.16666   0.00000  Uiso   1.00
C162   C     0.50003   0.58003   0.16667   0.00000  Uiso   1.00
C163   C     0.40038   0.49999   0.15471   0.00000  Uiso   1.00
C164   C     0.59962   0.50001   0.17863   0.00000  Uiso   1.00
C165   C     0.34535   0.50004   0.14826   0.00000  Uiso   1.00
C166   C     0.65465   0.49996   0.18507   0.00000  Uiso   1.00
C167   C     0.50924   0.35470   0.12738   0.00000  Uiso   1.00
C168   C     0.49076   0.64530   0.20595   0.00000  Uiso   1.00
C169   C     0.50928   0.64544   0.12738   0.00000  Uiso   1.00
C170   C     0.49072   0.35456   0.20595   0.00000  Uiso   1.00
C171   C     0.50003   0.62419   0.16666   0.00000  Uiso   1.00
C172   C     0.49997   0.37581   0.16667   0.00000  Uiso   1.00
C173   C     0.53248   0.52629   0.02838   0.00000  Uiso   1.00
C174   C     0.46751   0.47371   0.30496   0.00000  Uiso   1.00
C175   C     0.53227   0.52612   0.31343   0.00000  Uiso   1.00
C176   C     0.46773   0.47388   0.01991   0.00000  Uiso   1.00
H177   H     0.65809   0.50015   0.11334   0.00000  Uiso   1.00
H178   H     0.34191   0.49985   0.22000   0.00000  Uiso   1.00
H179   H     0.51673   0.37096   0.09687   0.00000  Uiso   1.00
H180   H     0.48327   0.62904   0.23646   0.00000  Uiso   1.00
H181   H     0.51681   0.62929   0.09688   0.00000  Uiso   1.00
H182   H     0.48319   0.37071   0.23645   0.00000  Uiso   1.00
H183   H     0.55788   0.54686   0.29810   0.00000  Uiso   1.00
H184   H     0.44212   0.45314   0.03523   0.00000  Uiso   1.00
N185   N     0.49999   0.49999   0.28573   0.00000  Uiso   1.00
N186   N     0.50001   0.50001   0.04760   0.00000  Uiso   1.00
O187   O     0.50000   0.43892   0.20487   0.00000  Uiso   1.00
O188   O     0.50000   0.56108   0.12846   0.00000  Uiso   1.00
O189   O     0.50000   0.43893   0.12843   0.00000  Uiso   1.00
O190   O     0.50000   0.56107   0.20490   0.00000  Uiso   1.00
O191   O     0.42392   0.50000   0.19595   0.00000  Uiso   1.00
O192   O     0.57608   0.50000   0.13739   0.00000  Uiso   1.00
O193   O     0.42392   0.50000   0.11950   0.00000  Uiso   1.00
O194   O     0.57608   0.50000   0.21383   0.00000  Uiso   1.00
Zn195  Zn    0.50000   0.49999   0.21771   0.00000  Uiso   1.00
Zn196  Zn    0.50000   0.50001   0.11563   0.00000  Uiso   1.00
O197   O     0.56499   0.55256   0.05659   0.00000  Uiso   1.00
H198   H     0.58584   0.56943   0.03766   0.00000  Uiso   1.00
O199   O     0.43501   0.44744   0.27675   0.00000  Uiso   1.00
H200   H     0.41416   0.43057   0.29567   0.00000  Uiso   1.00
C201   C     0.83330   0.41997   0.16666   0.00000  Uiso   1.00
C202   C     0.83337   0.58003   0.16667   0.00000  Uiso   1.00
C203   C     0.73371   0.49999   0.15471   0.00000  Uiso   1.00
C204   C     0.93296   0.50001   0.17863   0.00000  Uiso   1.00
C205   C     0.67868   0.50004   0.14826   0.00000  Uiso   1.00
C206   C     0.98799   0.49996   0.18507   0.00000  Uiso   1.00
C207   C     0.84257   0.35470   0.12738   0.00000  Uiso   1.00
C208   C     0.82410   0.64530   0.20595   0.00000  Uiso   1.00
C209   C     0.84261   0.64544   0.12738   0.00000  Uiso   1.00
C210   C     0.82406   0.35456   0.20595   0.00000  Uiso   1.00
C211   C     0.83336   0.62419   0.16666   0.00000  Uiso   1.00
C212   C     0.83330   0.37581   0.16667   0.00000  Uiso   1.00
C213   C     0.86582   0.52629   0.02838   0.00000  Uiso   1.00
C214   C     0.80085   0.47371   0.30496   0.00000  Uiso   1.00
C215   C     0.86560   0.52612   0.31343   0.00000  Uiso   1.00
C216   C     0.80106   0.47388   0.01991   0.00000  Uiso   1.00
H217   H     0.99142   0.50015   0.11334   0.00000  Uiso   1.00
H218   H     0.67524   0.49985   0.22000   0.00000  Uiso   1.00
H219   H     0.85007   0.37096   0.09687   0.00000  Uiso   1.00
H220   H     0.81660   0.62904   0.23646   0.00000  Uiso   1.00
H221   H     0.85014   0.62929   0.09688   0.00000  Uiso   1.00
H222   H     0.81652   0.37071   0.23645   0.00000  Uiso   1.00
H223   H     0.89121   0.54686   0.29810   0.00000  Uiso   1.00
H224   H     0.77545   0.45314   0.03523   0.00000  Uiso   1.00
N225   N     0.83332   0.49999   0.28573   0.00000  Uiso   1.00
N226   N     0.83335   0.50001   0.04760   0.00000  Uiso   1.00
O227   O     0.83333   0.43892   0.20487   0.00000  Uiso   1.00
O228   O     0.83334   0.56108   0.12846   0.00000  Uiso   1.00
O229   O     0.83333   0.43893   0.12843   0.00000  Uiso   1.00
O230   O     0.83334   0.56107   0.20490   0.00000  Uiso   1.00
O231   O     0.75725   0.50000   0.19595   0.00000  Uiso   1.00
O232   O     0.90942   0.50000   0.13739   0.00000  Uiso   1.00
O233   O     0.75725   0.50000   0.11950   0.00000  Uiso   1.00
O234   O     0.90942   0.50000   0.21383   0.00000  Uiso   1.00
Zn235  Zn    0.83333   0.49999   0.21771   0.00000  Uiso   1.00
Zn236  Zn    0.83333   0.50001   0.11563   0.00000  Uiso   1.00
O237   O     0.89832   0.55256   0.05659   0.00000  Uiso   1.00
H238   H     0.91918   0.56943   0.03766   0.00000  Uiso   1.00
O239   O     0.76834   0.44744   0.27675   0.00000  Uiso   1.00
H240   H     0.74749   0.43057   0.29567   0.00000  Uiso   1.00
C241   C     0.16663   0.75330   0.16666   0.00000  Uiso   1.00
C242   C     0.16670   0.91336   0.16667   0.00000  Uiso   1.00
C243   C     0.06704   0.83332   0.15471   0.00000  Uiso   1.00
C244   C     0.26629   0.83334   0.17863   0.00000  Uiso   1.00
C245   C     0.01201   0.83337   0.14826   0.00000  Uiso   1.00
C246   C     0.32132   0.83330   0.18507   0.00000  Uiso   1.00
C247   C     0.17590   0.68804   0.12738   0.00000  Uiso   1.00
C248   C     0.15743   0.97863   0.20595   0.00000  Uiso   1.00
C249   C     0.17594   0.97877   0.12738   0.00000  Uiso   1.00
C250   C     0.15739   0.68790   0.20595   0.00000  Uiso   1.00
C251   C     0.16670   0.95752   0.16666   0.00000  Uiso   1.00
C252   C     0.16664   0.70915   0.16667   0.00000  Uiso   1.00
C253   C     0.19915   0.85962   0.02838   0.00000  Uiso   1.00
C254   C     0.13418   0.80705   0.30496   0.00000  Uiso   1.00
C255   C     0.19894   0.85946   0.31343   0.00000  Uiso   1.00
C256   C     0.13440   0.80721   0.01991   0.00000  Uiso   1.00
H257   H     0.32475   0.83348   0.11334   0.00000  Uiso   1.00
H258   H     0.00858   0.83318   0.22000   0.00000  Uiso   1.00
H259   H     0.18340   0.70430   0.09687   0.00000  Uiso   1.00
H260   H     0.14993   0.96237   0.23646   0.00000  Uiso   1.00
H261   H     0.18348   0.96262   0.09688   0.00000  Uiso   1.00
H262   H     0.14986   0.70404   0.23645   0.00000  Uiso   1.00
H263   H     0.22455   0.88019   0.29810   0.00000  Uiso   1.00
H264   H     0.10879   0.78647   0.03523   0.00000  Uiso   1.00
N265   N     0.16665   0.83332   0.28573   0.00000  Uiso   1.00
N266   N     0.16668   0.83334   0.04760   0.00000  Uiso   1.00
O267   O     0.16666   0.77225   0.20487   0.00000  Uiso   1.00
O268   O     0.16667   0.89442   0.12846   0.00000  Uiso   1.00
O269   O     0.16666   0.77226   0.12843   0.00000  Uiso   1.00
O270   O     0.16667   0.89441   0.20490   0.00000  Uiso   1.00
O271   O     0.09058   0.83333   0.19595   0.00000  Uiso   1.00
O272   O     0.24275   0.83334   0.13739   0.00000  Uiso   1.00
O273   O     0.09058   0.83334   0.11950   0.00000  Uiso   1.00
O274   O     0.24275   0.83333   0.21383   0.00000  Uiso   1.00
Zn275  Zn    0.16667   0.83333   0.21771   0.00000  Uiso   1.00
Zn276  Zn    0.16667   0.83334   0.11563   0.00000  Uiso   1.00
O277   O     0.23166   0.88590   0.05659   0.00000  Uiso   1.00
H278   H     0.25251   0.90277   0.03766   0.00000  Uiso   1.00
O279   O     0.10168   0.78077   0.27675   0.00000  Uiso   1.00
H280   H     0.08082   0.76390   0.29567   0.00000  Uiso   1.00
C281   C     0.49997   0.75330   0.16666   0.00000  Uiso   1.00
C282   C     0.50003   0.91336   0.16667   0.00000  Uiso   1.00
C283   C     0.40038   0.83332   0.15471   0.00000  Uiso   1.00
C284   C     0.59962   0.83334   0.17863   0.00000  Uiso   1.00
C285   C     0.34535   0.83337   0.14826   0.00000  Uiso   1.00
C286   C     0.65465   0.83330   0.18507   0.00000  Uiso   1.00
C287   C     0.50924   0.68804   0.12738   0.00000  Uiso   1.00
C288   C     0.49076   0.97863   0.20595   0.00000  Uiso   1.00
C289   C     0.50928   0.97877   0.12738   0.00000  Uiso   1.00
C290   C     0.49072   0.68790   0.20595   0.00000  Uiso   1.00
C291   C     0.50003   0.95752   0.16666   0.00000  Uiso   1.00
C292   C     0.49997   0.70915   0.16667   0.00000  Uiso   1.00
C293   C     0.53248   0.85962   0.02838   0.00000  Uiso   1.00
C294   C     0.46751   0.80705   0.30496   0.00000  Uiso   1.00
C295   C     0.53227   0.85946   0.31343   0.00000  Uiso   1.00
C296   C     0.46773   0.80721   0.01991   0.00000  Uiso   1.00
H297   H     0.65809   0.83348   0.11334   0.00000  Uiso   1.00
H298   H     0.34191   0.83318   0.22000   0.00000  Uiso   1.00
H299   H     0.51673   0.70430   0.09687   0.00000  Uiso   1.00
H300   H     0.48327   0.96237   0.23646   0.00000  Uiso   1.00
H301   H     0.51681   0.96262   0.09688   0.00000  Uiso   1.00
H302   H     0.48319   0.70404   0.23645   0.00000  Uiso   1.00
H303   H     0.55788   0.88019   0.29810   0.00000  Uiso   1.00
H304   H     0.44212   0.78647   0.03523   0.00000  Uiso   1.00
N305   N     0.49999   0.83332   0.28573   0.00000  Uiso   1.00
N306   N     0.50001   0.83334   0.04760   0.00000  Uiso   1.00
O307   O     0.50000   0.77225   0.20487   0.00000  Uiso   1.00
O308   O     0.50000   0.89442   0.12846   0.00000  Uiso   1.00
O309   O     0.50000   0.77226   0.12843   0.00000  Uiso   1.00
O310   O     0.50000   0.89441   0.20490   0.00000  Uiso   1.00
O311   O     0.42392   0.83333   0.19595   0.00000  Uiso   1.00
O312   O     0.57608   0.83334   0.13739   0.00000  Uiso   1.00
O313   O     0.42392   0.83334   0.11950   0.00000  Uiso   1.00
O314   O     0.57608   0.83333   0.21383   0.00000  Uiso   1.00
Zn315  Zn    0.50000   0.83333   0.21771   0.00000  Uiso   1.00
Zn316  Zn    0.50000   0.83334   0.11563   0.00000  Uiso   1.00
O317   O     0.56499   0.88590   0.05659   0.00000  Uiso   1.00
H318   H     0.58584   0.90277   0.03766   0.00000  Uiso   1.00
O319   O     0.43501   0.78077   0.27675   0.00000  Uiso   1.00
H320   H     0.41416   0.76390   0.29567   0.00000  Uiso   1.00
C321   C     0.83330   0.75330   0.16666   0.00000  Uiso   1.00
C322   C     0.83337   0.91336   0.16667   0.00000  Uiso   1.00
C323   C     0.73371   0.83332   0.15471   0.00000  Uiso   1.00
C324   C     0.93296   0.83334   0.17863   0.00000  Uiso   1.00
C325   C     0.67868   0.83337   0.14826   0.00000  Uiso   1.00
C326   C     0.98799   0.83330   0.18507   0.00000  Uiso   1.00
C327   C     0.84257   0.68804   0.12738   0.00000  Uiso   1.00
C328   C     0.82410   0.97863   0.20595   0.00000  Uiso   1.00
C329   C     0.84261   0.97877   0.12738   0.00000  Uiso   1.00
C330   C     0.82406   0.68790   0.20595   0.00000  Uiso   1.00
C331   C     0.83336   0.95752   0.16666   0.00000  Uiso   1.00
C332   C     0.83330   0.70915   0.16667   0.00000  Uiso   1.00
C333   C     0.86582   0.85962   0.02838   0.00000  Uiso   1.00
C334   C     0.80085   0.80705   0.30496   0.00000  Uiso   1.00
C335   C     0.86560   0.85946   0.31343   0.00000  Uiso   1.00
C336   C     0.80106   0.80721   0.01991   0.00000  Uiso   1.00
H337   H     0.99142   0.83348   0.11334   0.00000  Uiso   1.00
H338   H     0.67524   0.83318   0.22000   0.00000  Uiso   1.00
H339   H     0.85007   0.70430   0.09687   0.00000  Uiso   1.00
H340   H     0.81660   0.96237   0.23646   0.00000  Uiso   1.00
H341   H     0.85014   0.96262   0.09688   0.00000  Uiso   1.00
H342   H     0.81652   0.70404   0.23645   0.00000  Uiso   1.00
H343   H     0.89121   0.88019   0.29810   0.00000  Uiso   1.00
H344   H     0.77545   0.78647   0.03523   0.00000  Uiso   1.00
N345   N     0.83332   0.83332   0.28573   0.00000  Uiso   1.00
N346   N     0.83335   0.83334   0.04760   0.00000  Uiso   1.00
O347   O     0.83333   0.77225   0.20487   0.00000  Uiso   1.00
O348   O     0.83334   0.89442   0.12846   0.00000  Uiso   1.00
O349   O     0.83333   0.77226   0.12843   0.00000  Uiso   1.00
O350   O     0.83334   0.89441   0.20490   0.00000  Uiso   1.00
O351   O     0.75725   0.83333   0.19595   0.00000  Uiso   1.00
O352   O     0.90942   0.83334   0.13739   0.00000  Uiso   1.00
O353   O     0.75725   0.83334   0.11950   0.00000  Uiso   1.00
O354   O     0.90942   0.83333   0.21383   0.00000  Uiso   1.00
Zn355  Zn    0.83333   0.83333   0.21771   0.00000  Uiso   1.00
Zn356  Zn    0.83333   0.83334   0.11563   0.00000  Uiso   1.00
O357   O     0.89832   0.88590   0.05659   0.00000  Uiso   1.00
H358   H     0.91918   0.90277   0.03766   0.00000  Uiso   1.00
O359   O     0.76834   0.78077   0.27675   0.00000  Uiso   1.00
H360   H     0.74749   0.76390   0.29567   0.00000  Uiso   1.00
C361   C     0.16663   0.08664   0.50000   0.00000  Uiso   1.00
C362   C     0.16670   0.24670   0.50000   0.00000  Uiso   1.00
C363   C     0.06704   0.16666   0.48804   0.00000  Uiso   1.00
C364   C     0.26629   0.16668   0.51196   0.00000  Uiso   1.00
C365   C     0.01201   0.16670   0.48160   0.00000  Uiso   1.00
C366   C     0.32132   0.16663   0.51840   0.00000  Uiso   1.00
C367   C     0.17590   0.02137   0.46072   0.00000  Uiso   1.00
C368   C     0.15743   0.31196   0.53928   0.00000  Uiso   1.00
C369   C     0.17594   0.31210   0.46072   0.00000  Uiso   1.00
C370   C     0.15739   0.02123   0.53928   0.00000  Uiso   1.00
C371   C     0.16670   0.29085   0.50000   0.00000  Uiso   1.00
C372   C     0.16664   0.04248   0.50000   0.00000  Uiso   1.00
C373   C     0.19915   0.19295   0.36171   0.00000  Uiso   1.00
C374   C     0.13418   0.14038   0.63829   0.00000  Uiso   1.00
C375   C     0.19894   0.19279   0.64676   0.00000  Uiso   1.00
C376   C     0.13440   0.14054   0.35324   0.00000  Uiso   1.00
H377   H     0.32475   0.16682   0.44667   0.00000  Uiso   1.00
H378   H     0.00858   0.16652   0.55333   0.00000  Uiso   1.00
H379   H     0.18340   0.03763   0.43021   0.00000  Uiso   1.00
H380   H     0.14993   0.29570   0.56979   0.00000  Uiso   1.00
H381   H     0.18348   0.29596   0.43022   0.00000  Uiso   1.00
H382   H     0.14986   0.03738   0.56978   0.00000  Uiso   1.00
H383   H     0.22455   0.21353   0.63143   0.00000  Uiso   1.00
H384   H     0.10879   0.11981   0.36857   0.00000  Uiso   1.00
N385   N     0.16665   0.16666   0.61907   0.00000  Uiso   1.00
N386   N     0.16668   0.16668   0.38093   0.00000  Uiso   1.00
O387   O     0.16666   0.10558   0.53821   0.00000  Uiso   1.00
O388   O     0.16667   0.22775   0.46179   0.00000  Uiso   1.00
O389   O     0.16666   0.10559   0.46176   0.00000  Uiso   1.00
O390   O     0.16667   0.22774   0.53824   0.00000  Uiso   1.00
O391   O     0.09058   0.16666   0.52928   0.00000  Uiso   1.00
O392   O     0.24275   0.16667   0.47072   0.00000  Uiso   1.00
O393   O     0.09058   0.16667   0.45284   0.00000  Uiso   1.00
O394   O     0.24275   0.16666   0.54716   0.00000  Uiso   1.00
Zn395  Zn    0.16667   0.16666   0.55104   0.00000  Uiso   1.00
Zn396  Zn    0.16667   0.16667   0.44896   0.00000  Uiso   1.00
O397   O     0.23166   0.21923   0.38992   0.00000  Uiso   1.00
H398   H     0.25251   0.23610   0.37100   0.00000  Uiso   1.00
O399   O     0.10168   0.11410   0.61008   0.00000  Uiso   1.00
H400   H     0.08082   0.09723   0.62900   0.00000  Uiso   1.00
C401   C     0.49997   0.08664   0.50000   0.00000  Uiso   1.00
C402   C     0.50003   0.24670   0.50000   0.00000  Uiso   1.00
C403   C     0.40038   0.16666   0.48804   0.00000  Uiso   1.00
C404   C     0.59962   0.16668   0.51196   0.00000  Uiso   1.00
C405   C     0.34535   0.16670   0.48160   0.00000  Uiso   1.00
C406   C     0.65465   0.16663   0.51840   0.00000  Uiso   1.00
C407   C     0.50924   0.02137   0.46072   0.00000  Uiso   1.00
C408   C     0.49076   0.31196   0.53928   0.00000  Uiso   1.00
C409   C     0.50928   0.31210   0.46072   0.00000  Uiso   1.00
C410   C     0.49072   0.02123   0.53928   0.00000  Uiso   1.00
C411   C     0.50003   0.29085   0.50000   0.00000  Uiso   1.00
C412   C     0.49997   0.04248   0.50000   0.00000  Uiso   1.00
C413   C     0.53248   0.19295   0.36171   0.00000  Uiso   1.00
C414   C     0.46751   0.14038   0.63829   0.00000  Uiso   1.00
C415   C     0.53227   0.19279   0.64676   0.00000  Uiso   1.00
C416   C     0.46773   0.14054   0.35324   0.00000  Uiso   1.00
H417   H     0.65809   0.16682   0.44667   0.00000  Uiso   1.00
H418   H     0.34191   0.16652   0.55333   0.00000  Uiso   1.00
H419   H     0.51673   0.03763   0.43021   0.00000  Uiso   1.00
H420   H     0.48327   0.29570   0.56979   0.00000  Uiso   1.00
H421   H     0.51681   0.29596   0.43022   0.00000  Uiso   1.00
H422   H     0.48319   0.03738   0.56978   0.00000  Uiso   1.00
H423   H     0.55788   0.21353   0.63143   0.00000  Uiso   1.00
H424   H     0.44212   0.11981   0.36857   0.00000  Uiso   1.00
N425   N     0.49999   0.16666   0.61907   0.00000  Uiso   1.00
N426   N     0.50001   0.16668   0.38093   0.00000  Uiso   1.00
O427   O     0.50000   0.10558   0.53821   0.00000  Uiso   1.00
O428   O     0.50000   0.22775   0.46179   0.00000  Uiso   1.00
O429   O     0.50000   0.10559   0.46176   0.00000  Uiso   1.00
O430   O     0.50000   0.22774   0.53824   0.00000  Uiso   1.00
O431   O     0.42392   0.16666   0.52928   0.00000  Uiso   1.00
O432   O     0.57608   0.16667   0.47072   0.00000  Uiso   1.00
O433   O     0.42392   0.16667   0.45284   0.00000  Uiso   1.00
O434   O     0.57608   0.16666   0.54716   0.00000  Uiso   1.00
Zn435  Zn    0.50000   0.16666   0.55104   0.00000  Uiso   1.00
Zn436  Zn    0.50000   0.16667   0.44896   0.00000  Uiso   1.00
O437   O     0.56499   0.21923   0.38992   0.00000  Uiso   1.00
H438   H     0.58584   0.23610   0.37100   0.00000  Uiso   1.00
O439   O     0.43501   0.11410   0.61008   0.00000  Uiso   1.00
H440   H     0.41416   0.09723   0.62900   0.00000  Uiso   1.00
C441   C     0.83330   0.08664   0.50000   0.00000  Uiso   1.00
C442   C     0.83337   0.24670   0.50000   0.00000  Uiso   1.00
C443   C     0.73371   0.16666   0.48804   0.00000  Uiso   1.00
C444   C     0.93296   0.16668   0.51196   0.00000  Uiso   1.00
C445   C     0.67868   0.16670   0.48160   0.00000  Uiso   1.00
C446   C     0.98799   0.16663   0.51840   0.00000  Uiso   1.00
C447   C     0.84257   0.02137   0.46072   0.00000  Uiso   1.00
C448   C     0.82410   0.31196   0.53928   0.00000  Uiso   1.00
C449   C     0.84261   0.31210   0.46072   0.00000  Uiso   1.00
C450   C     0.82406   0.02123   0.53928   0.00000  Uiso   1.00
C451   C     0.83336   0.29085   0.50000   0.00000  Uiso   1.00
C452   C     0.83330   0.04248   0.50000   0.00000  Uiso   1.00
C453   C     0.86582   0.19295   0.36171   0.00000  Uiso   1.00
C454   C     0.80085   0.14038   0.63829   0.00000  Uiso   1.00
C455   C     0.86560   0.19279   0.64676   0.00000  Uiso   1.00
C456   C     0.80106   0.14054   0.35324   0.00000  Uiso   1.00
H457   H     0.99142   0.16682   0.44667   0.00000  Uiso   1.00
H458   H     0.67524   0.16652   0.55333   0.00000  Uiso   1.00
H459   H     0.85007   0.03763   0.43021   0.00000  Uiso   1.00
H460   H     0.81660   0.29570   0.56979   0.00000  Uiso   1.00
H461   H     0.85014   0.29596   0.43022   0.00000  Uiso   1.00
H462   H     0.81652   0.03738   0.56978   0.00000  Uiso   1.00
H463   H     0.89121   0.21353   0.63143   0.00000  Uiso   1.00
H464   H     0.77545   0.11981   0.36857   0.00000  Uiso   1.00
N465   N     0.83332   0.16666   0.61907   0.00000  Uiso   1.00
N466   N     0.83335   0.16668   0.38093   0.00000  Uiso   1.00
O467   O     0.83333   0.10558   0.53821   0.00000  Uiso   1.00
O468   O     0.83334   0.22775   0.46179   0.00000  Uiso   1.00
O469   O     0.83333   0.10559   0.46176   0.00000  Uiso   1.00
O470   O     0.83334   0.22774   0.53824   0.00000  Uiso   1.00
O471   O     0.75725   0.16666   0.52928   0.00000  Uiso   1.00
O472   O     0.90942   0.16667   0.47072   0.00000  Uiso   1.00
O473   O     0.75725   0.16667   0.45284   0.00000  Uiso   1.00
O474   O     0.90942   0.16666   0.54716   0.00000  Uiso   1.00
Zn475  Zn    0.83333   0.16666   0.55104   0.00000  Uiso   1.00
Zn476  Zn    0.83333   0.16667   0.44896   0.00000  Uiso   1.00
O477   O     0.89832   0.21923   0.38992   0.00000  Uiso   1.00
H478   H     0.91918   0.23610   0.37100   0.00000  Uiso   1.00
O479   O     0.76834   0.11410   0.61008   0.00000  Uiso   1.00
H480   H     0.74749   0.09723   0.62900   0.00000  Uiso   1.00
C481   C     0.16663   0.41997   0.50000   0.00000  Uiso   1.00
C482   C     0.16670   0.58003   0.50000   0.00000  Uiso   1.00
C483   C     0.06704   0.49999   0.48804   0.00000  Uiso   1.00
C484   C     0.26629   0.50001   0.51196   0.00000  Uiso   1.00
C485   C     0.01201   0.50004   0.48160   0.00000  Uiso   1.00
C486   C     0.32132   0.49996   0.51840   0.00000  Uiso   1.00
C487   C     0.17590   0.35470   0.46072   0.00000  Uiso   1.00
C488   C     0.15743   0.64530   0.53928   0.00000  Uiso   1.00
C489   C     0.17594   0.64544   0.46072   0.00000  Uiso   1.00
C490   C     0.15739   0.35456   0.53928   0.00000  Uiso   1.00
C491   C     0.16670   0.62419   0.50000   0.00000  Uiso   1.00
C492   C     0.16664   0.37581   0.50000   0.00000  Uiso   1.00
C493   C     0.19915   0.52629   0.36171   0.00000  Uiso   1.00
C494   C     0.13418   0.47371   0.63829   0.00000  Uiso   1.00
C495   C     0.19894   0.52612   0.64676   0.00000  Uiso   1.00
C496   C     0.13440   0.47388   0.35324   0.00000  Uiso   1.00
H497   H     0.32475   0.50015   0.44667   0.00000  Uiso   1.00
H498   H     0.00858   0.49985   0.55333   0.00000  Uiso   1.00
H499   H     0.18340   0.37096   0.43021   0.00000  Uiso   1.00
H500   H     0.14993   0.62904   0.56979   0.00000  Uiso   1.00
H501   H     0.18348   0.62929   0.43022   0.00000  Uiso   1.00
H502   H     0.14986   0.37071   0.56978   0.00000  Uiso   1.00
H503   H     0.22455   0.54686   0.63143   0.00000  Uiso   1.00
H504   H     0.10879   0.45314   0.36857   0.00000  Uiso   1.00
N505   N     0.16665   0.49999   0.61907   0.00000  Uiso   1.00
N506   N     0.16668   0.50001   0.38093   0.00000  Uiso   1.00
O507   O     0.16666   0.43892   0.53821   0.00000  Uiso   1.00
O508   O     0.16667   0.56108   0.46179   0.00000  Uiso   1.00
O509   O     0.16666   0.43893   0.46176   0.00000  Uiso   1.00
O510   O     0.16667   0.56107   0.53824   0.00000  Uiso   1.00
O511   O     0.09058   0.50000   0.52928   0.00000  Uiso   1.00
O512   O     0.24275   0.50000   0.47072   0.00000  Uiso   1.00
O513   O     0.09058   0.50000   0.45284   0.00000  Uiso   1.00
O514   O     0.24275   0.50000   0.54716   0.00000  Uiso   1.00
Zn515  Zn    0.16667   0.49999   0.55104   0.00000  Uiso   1.00
Zn516  Zn    0.16667   0.50001   0.44896   0.00000  Uiso   1.00
O517   O     0.23166   0.55256   0.38992   0.00000  Uiso   1.00
H518   H     0.25251   0.56943   0.37100   0.00000  Uiso   1.00
O519   O     0.10168   0.44744   0.61008   0.00000  Uiso   1.00
H520   H     0.08082   0.43057   0.62900   0.00000  Uiso   1.00
C521   C     0.49997   0.41997   0.50000   0.00000  Uiso   1.00
C522   C     0.50003   0.58003   0.50000   0.00000  Uiso   1.00
C523   C     0.40038   0.49999   0.48804   0.00000  Uiso   1.00
C524   C     0.59962   0.50001   0.51196   0.00000  Uiso   1.00
C525   C     0.34535   0.50004   0.48160   0.00000  Uiso   1.00
C526   C     0.65465   0.49996   0.51840   0.00000  Uiso   1.00
C527   C     0.50924   0.35470   0.46072   0.00000  Uiso   1.00
C528   C     0.49076   0.64530   0.53928   0.00000  Uiso   1.00
C529   C     0.50928   0.64544   0.46072   0.00000  Uiso   1.00
C530   C     0.49072   0.35456   0.53928   0.00000  Uiso   1.00
C531   C     0.50003   0.62419   0.50000   0.00000  Uiso   1.00
C532   C     0.49997   0.37581   0.50000   0.00000  Uiso   1.00
C533   C     0.53248   0.52629   0.36171   0.00000  Uiso   1.00
C534   C     0.46751   0.47371   0.63829   0.00000  Uiso   1.00
C535   C     0.53227   0.52612   0.64676   0.00000  Uiso   1.00
C536   C     0.46773   0.47388   0.35324   0.00000  Uiso   1.00
H537   H     0.65809   0.50015   0.44667   0.00000  Uiso   1.00
H538   H     0.34191   0.49985   0.55333   0.00000  Uiso   1.00
H539   H     0.51673   0.37096   0.43021   0.00000  Uiso   1.00
H540   H     0.48327   0.62904   0.56979   0.00000  Uiso   1.00
H541   H     0.51681   0.62929   0.43022   0.00000  Uiso   1.00
H542   H     0.48319   0.37071   0.56978   0.00000  Uiso   1.00
H543   H     0.55788   0.54686   0.63143   0.00000  Uiso   1.00
H544   H     0.44212   0.45314   0.36857   0.00000  Uiso   1.00
N545   N     0.49999   0.49999   0.61907   0.00000  Uiso   1.00
N546   N     0.50001   0.50001   0.38093   0.00000  Uiso   1.00
O547   O     0.50000   0.43892   0.53821   0.00000  Uiso   1.00
O548   O     0.50000   0.56108   0.46179   0.00000  Uiso   1.00
O549   O     0.50000   0.43893   0.46176   0.00000  Uiso   1.00
O550   O     0.50000   0.56107   0.53824   0.00000  Uiso   1.00
O551   O     0.42392   0.50000   0.52928   0.00000  Uiso   1.00
O552   O     0.57608   0.50000   0.47072   0.00000  Uiso   1.00
O553   O     0.42392   0.50000   0.45284   0.00000  Uiso   1.00
O554   O     0.57608   0.50000   0.54716   0.00000  Uiso   1.00
Zn555  Zn    0.50000   0.49999   0.55104   0.00000  Uiso   1.00
Zn556  Zn    0.50000   0.50001   0.44896   0.00000  Uiso   1.00
O557   O     0.56499   0.55256   0.38992   0.00000  Uiso   1.00
H558   H     0.58584   0.56943   0.37100   0.00000  Uiso   1.00
O559   O     0.43501   0.44744   0.61008   0.00000  Uiso   1.00
H560   H     0.41416   0.43057   0.62900   0.00000  Uiso   1.00
C561   C     0.83330   0.41997   0.50000   0.00000  Uiso   1.00
C562   C     0.83337   0.58003   0.50000   0.00000  Uiso   1.00
C563   C     0.73371   0.49999   0.48804   0.00000  Uiso   1.00
C564   C     0.93296   0.50001   0.51196   0.00000  Uiso   1.00
C565   C     0.67868   0.50004   0.48160   0.00000  Uiso   1.00
C566   C     0.98799   0.49996   0.51840   0.00000  Uiso   1.00
C567   C     0.84257   0.35470   0.46072   0.00000  Uiso   1.00
C568   C     0.82410   0.64530   0.53928   0.00000  Uiso   1.00
C569   C     0.84261   0.64544   0.46072   0.00000  Uiso   1.00
C570   C     0.82406   0.35456   0.53928   0.00000  Uiso   1.00
C571   C     0.83336   0.62419   0.50000   0.00000  Uiso   1.00
C572   C     0.83330   0.37581   0.50000   0.00000  Uiso   1.00
C573   C     0.86582   0.52629   0.36171   0.00000  Uiso   1.00
C574   C     0.80085   0.47371   0.63829   0.00000  Uiso   1.00
C575   C     0.86560   0.52612   0.64676   0.00000  Uiso   1.00
C576   C     0.80106   0.47388   0.35324   0.00000  Uiso   1.00
H577   H     0.99142   0.50015   0.44667   0.00000  Uiso   1.00
H578   H     0.67524   0.49985   0.55333   0.00000  Uiso   1.00
H579   H     0.85007   0.37096   0.43021   0.00000  Uiso   1.00
H580   H     0.81660   0.62904   0.56979   0.00000  Uiso   1.00
H581   H     0.85014   0.62929   0.43022   0.00000  Uiso   1.00
H582   H     0.81652   0.37071   0.56978   0.00000  Uiso   1.00
H583   H     0.89121   0.54686   0.63143   0.00000  Uiso   1.00
H584   H     0.77545   0.45314   0.36857   0.00000  Uiso   1.00
N585   N     0.83332   0.49999   0.61907   0.00000  Uiso   1.00
N586   N     0.83335   0.50001   0.38093   0.00000  Uiso   1.00
O587   O     0.83333   0.43892   0.53821   0.00000  Uiso   1.00
O588   O     0.83334   0.56108   0.46179   0.00000  Uiso   1.00
O589   O     0.83333   0.43893   0.46176   0.00000  Uiso   1.00
O590   O     0.83334   0.56107   0.53824   0.00000  Uiso   1.00
O591   O     0.75725   0.50000   0.52928   0.00000  Uiso   1.00
O592   O     0.90942   0.50000   0.47072   0.00000  Uiso   1.00
O593   O     0.75725   0.50000   0.45284   0.00000  Uiso   1.00
O594   O     0.90942   0.50000   0.54716   0.00000  Uiso   1.00
Zn595  Zn    0.83333   0.49999   0.55104   0.00000  Uiso   1.00
Zn596  Zn    0.83333   0.50001   0.44896   0.00000  Uiso   1.00
O597   O     0.89832   0.55256   0.38992   0.00000  Uiso   1.00
H598   H     0.91918   0.56943   0.37100   0.00000  Uiso   1.00
O599   O     0.76834   0.44744   0.61008   0.00000  Uiso   1.00
H600   H     0.74749   0.43057   0.62900   0.00000  Uiso   1.00
C601   C     0.16663   0.75330   0.50000   0.00000  Uiso   1.00
C602   C     0.16670   0.91336   0.50000   0.00000  Uiso   1.00
C603   C     0.06704   0.83332   0.48804   0.00000  Uiso   1.00
C604   C     0.26629   0.83334   0.51196   0.00000  Uiso   1.00
C605   C     0.01201   0.83337   0.48160   0.00000  Uiso   1.00
C606   C     0.32132   0.83330   0.51840   0.00000  Uiso   1.00
C607   C     0.17590   0.68804   0.46072   0.00000  Uiso   1.00
C608   C     0.15743   0.97863   0.53928   0.00000  Uiso   1.00
C609   C     0.17594   0.97877   0.46072   0.00000  Uiso   1.00
C610   C     0.15739   0.68790   0.53928   0.00000  Uiso   1.00
C611   C     0.16670   0.95752   0.50000   0.00000  Uiso   1.00
C612   C     0.16664   0.70915   0.50000   0.00000  Uiso   1.00
C613   C     0.19915   0.85962   0.36171   0.00000  Uiso   1.00
C614   C     0.13418   0.80705   0.63829   0.00000  Uiso   1.00
C615   C     0.19894   0.85946   0.64676   0.00000  Uiso   1.00
C616   C     0.13440   0.80721   0.35324   0.00000  Uiso   1.00
H617   H     0.32475   0.83348   0.44667   0.00000  Uiso   1.00
H618   H     0.00858   0.83318   0.55333   0.00000  Uiso   1.00
H619   H     0.18340   0.70430   0.43021   0.00000  Uiso   1.00
H620   H     0.14993   0.96237   0.56979   0.00000  Uiso   1.00
H621   H     0.18348   0.96262   0.43022   0.00000  Uiso   1.00
H622   H     0.14986   0.70404   0.56978   0.00000  Uiso   1.00
H623   H     0.22455   0.88019   0.63143   0.00000  Uiso   1.00
H624   H     0.10879   0.78647   0.36857   0.00000  Uiso   1.00
N625   N     0.16665   0.83332   0.61907   0.00000  Uiso   1.00
N626   N     0.16668   0.83334   0.38093   0.00000  Uiso   1.00
O627   O     0.16666   0.77225   0.53821   0.00000  Uiso   1.00
O628   O     0.16667   0.89442   0.46179   0.00000  Uiso   1.00
O629   O     0.16666   0.77226   0.46176   0.00000  Uiso   1.00
O630   O     0.16667   0.89441   0.53824   0.00000  Uiso   1.00
O631   O     0.09058   0.83333   0.52928   0.00000  Uiso   1.00
O632   O     0.24275   0.83334   0.47072   0.00000  Uiso   1.00
O633   O     0.09058   0.83334   0.45284   0.00000  Uiso   1.00
O634   O     0.24275   0.83333   0.54716   0.00000  Uiso   1.00
Zn635  Zn    0.16667   0.83333   0.55104   0.00000  Uiso   1.00
Zn636  Zn    0.16667   0.83334   0.44896   0.00000  Uiso   1.00
O637   O     0.23166   0.88590   0.38992   0.00000  Uiso   1.00
H638   H     0.25251   0.90277   0.37100   0.00000  Uiso   1.00
O639   O     0.10168   0.78077   0.61008   0.00000  Uiso   1.00
H640   H     0.08082   0.76390   0.62900   0.00000  Uiso   1.00
C641   C     0.49997   0.75330   0.50000   0.00000  Uiso   1.00
C642   C     0.50003   0.91336   0.50000   0.00000  Uiso   1.00
C643   C     0.40038   0.83332   0.48804   0.00000  Uiso   1.00
C644   C     0.59962   0.83334   0.51196   0.00000  Uiso   1.00
C645   C     0.34535   0.83337   0.48160   0.00000  Uiso   1.00
C646   C     0.65465   0.83330   0.51840   0.00000  Uiso   1.00
C647   C     0.50924   0.68804   0.46072   0.00000  Uiso   1.00
C648   C     0.49076   0.97863   0.53928   0.00000  Uiso   1.00
C649   C     0.50928   0.97877   0.46072   0.00000  Uiso   1.00
C650   C     0.49072   0.68790   0.53928   0.00000  Uiso   1.00
C651   C     0.50003   0.95752   0.50000   0.00000  Uiso   1.00
C652   C     0.49997   0.70915   0.50000   0.00000  Uiso   1.00
C653   C     0.53248   0.85962   0.36171   0.00000  Uiso   1.00
C654   C     0.46751   0.80705   0.63829   0.00000  Uiso   1.00
C655   C     0.53227   0.85946   0.64676   0.00000  Uiso   1.00
C656   C     0.46773   0.80721   0.35324   0.00000  Uiso   1.00
H657   H     0.65809   0.83348   0.44667   0.00000  Uiso   1.00
H658   H     0.34191   0.83318   0.55333   0.00000  Uiso   1.00
H659   H     0.51673   0.70430   0.43021   0.00000  Uiso   1.00
H660   H     0.48327   0.96237   0.56979   0.00000  Uiso   1.00
H661   H     0.51681   0.96262   0.43022   0.00000  Uiso   1.00
H662   H     0.48319   0.70404   0.56978   0.00000  Uiso   1.00
H663   H     0.55788   0.88019   0.63143   0.00000  Uiso   1.00
H664   H     0.44212   0.78647   0.36857   0.00000  Uiso   1.00
N665   N     0.49999   0.83332   0.61907   0.00000  Uiso   1.00
N666   N     0.50001   0.83334   0.38093   0.00000  Uiso   1.00
O667   O     0.50000   0.77225   0.53821   0.00000  Uiso   1.00
O668   O     0.50000   0.89442   0.46179   0.00000  Uiso   1.00
O669   O     0.50000   0.77226   0.46176   0.00000  Uiso   1.00
O670   O     0.50000   0.89441   0.53824   0.00000  Uiso   1.00
O671   O     0.42392   0.83333   0.52928   0.00000  Uiso   1.00
O672   O     0.57608   0.83334   0.47072   0.00000  Uiso   1.00
O673   O     0.42392   0.83334   0.45284   0.00000  Uiso   1.00
O674   O     0.57608   0.83333   0.54716   0.00000  Uiso   1.00
Zn675  Zn    0.50000   0.83333   0.55104   0.00000  Uiso   1.00
Zn676  Zn    0.50000   0.83334   0.44896   0.00000  Uiso   1.00
O677   O     0.56499   0.88590   0.38992   0.00000  Uiso   1.00
H678   H     0.58584   0.90277   0.37100   0.00000  Uiso   1.00
O679   O     0.43501   0.78077   0.61008   0.00000  Uiso   1.00
H680   H     0.41416   0.76390   0.62900   0.00000  Uiso   1.00
C681   C     0.83330   0.75330   0.50000   0.00000  Uiso   1.00
C682   C     0.83337   0.91336   0.50000   0.00000  Uiso   1.00
C683   C     0.73371   0.83332   0.48804   0.00000  Uiso   1.00
C684   C     0.93296   0.83334   0.51196   0.00000  Uiso   1.00
C685   C     0.67868   0.83337   0.48160   0.00000  Uiso   1.00
C686   C     0.98799   0.83330   0.51840   0.00000  Uiso   1.00
C687   C     0.84257   0.68804   0.46072   0.00000  Uiso   1.00
C688   C     0.82410   0.97863   0.53928   0.00000  Uiso   1.00
C689   C     0.84261   0.97877   0.46072   0.00000  Uiso   1.00
C690   C     0.82406   0.68790   0.53928   0.00000  Uiso   1.00
C691   C     0.83336   0.95752   0.50000   0.00000  Uiso   1.00
C692   C     0.83330   0.70915   0.50000   0.00000  Uiso   1.00
C693   C     0.86582   0.85962   0.36171   0.00000  Uiso   1.00
C694   C     0.80085   0.80705   0.63829   0.00000  Uiso   1.00
C695   C     0.86560   0.85946   0.64676   0.00000  Uiso   1.00
C696   C     0.80106   0.80721   0.35324   0.00000  Uiso   1.00
H697   H     0.99142   0.83348   0.44667   0.00000  Uiso   1.00
H698   H     0.67524   0.83318   0.55333   0.00000  Uiso   1.00
H699   H     0.85007   0.70430   0.43021   0.00000  Uiso   1.00
H700   H     0.81660   0.96237   0.56979   0.00000  Uiso   1.00
H701   H     0.85014   0.96262   0.43022   0.00000  Uiso   1.00
H702   H     0.81652   0.70404   0.56978   0.00000  Uiso   1.00
H703   H     0.89121   0.88019   0.63143   0.00000  Uiso   1.00
H704   H     0.77545   0.78647   0.36857   0.00000  Uiso   1.00
N705   N     0.83332   0.83332   0.61907   0.00000  Uiso   1.00
N706   N     0.83335   0.83334   0.38093   0.00000  Uiso   1.00
O707   O     0.83333   0.77225   0.53821   0.00000  Uiso   1.00
O708   O     0.83334   0.89442   0.46179   0.00000  Uiso   1.00
O709   O     0.83333   0.77226   0.46176   0.00000  Uiso   1.00
O710   O     0.83334   0.89441   0.53824   0.00000  Uiso   1.00
O711   O     0.75725   0.83333   0.52928   0.00000  Uiso   1.00
O712   O     0.90942   0.83334   0.47072   0.00000  Uiso   1.00
O713   O     0.75725   0.83334   0.45284   0.00000  Uiso   1.00
O714   O     0.90942   0.83333   0.54716   0.00000  Uiso   1.00
Zn715  Zn    0.83333   0.83333   0.55104   0.00000  Uiso   1.00
Zn716  Zn    0.83333   0.83334   0.44896   0.00000  Uiso   1.00
O717   O     0.89832   0.88590   0.38992   0.00000  Uiso   1.00
H718   H     0.91918   0.90277   0.37100   0.00000  Uiso   1.00
O719   O     0.76834   0.78077   0.61008   0.00000  Uiso   1.00
H720   H     0.74749   0.76390   0.62900   0.00000  Uiso   1.00
C721   C     0.16663   0.08664   0.83333   0.00000  Uiso   1.00
C722   C     0.16670   0.24670   0.83334   0.00000  Uiso   1.00
C723   C     0.06704   0.16666   0.82137   0.00000  Uiso   1.00
C724   C     0.26629   0.16668   0.84529   0.00000  Uiso   1.00
C725   C     0.01201   0.16670   0.81493   0.00000  Uiso   1.00
C726   C     0.32132   0.16663   0.85174   0.00000  Uiso   1.00
C727   C     0.17590   0.02137   0.79405   0.00000  Uiso   1.00
C728   C     0.15743   0.31196   0.87262   0.00000  Uiso   1.00
C729   C     0.17594   0.31210   0.79405   0.00000  Uiso   1.00
C730   C     0.15739   0.02123   0.87262   0.00000  Uiso   1.00
C731   C     0.16670   0.29085   0.83333   0.00000  Uiso   1.00
C732   C     0.16664   0.04248   0.83334   0.00000  Uiso   1.00
C733   C     0.19915   0.19295   0.69504   0.00000  Uiso   1.00
C734   C     0.13418   0.14038   0.97162   0.00000  Uiso   1.00
C735   C     0.19894   0.19279   0.98009   0.00000  Uiso   1.00
C736   C     0.13440   0.14054   0.68657   0.00000  Uiso   1.00
H737   H     0.32475   0.16682   0.78000   0.00000  Uiso   1.00
H738   H     0.00858   0.16652   0.88666   0.00000  Uiso   1.00
H739   H     0.18340   0.03763   0.76354   0.00000  Uiso   1.00
H740   H     0.14993   0.29570   0.90313   0.00000  Uiso   1.00
H741   H     0.18348   0.29596   0.76355   0.00000  Uiso   1.00
H742   H     0.14986   0.03738   0.90312   0.00000  Uiso   1.00
H743   H     0.22455   0.21353   0.96477   0.00000  Uiso   1.00
H744   H     0.10879   0.11981   0.70190   0.00000  Uiso   1.00
N745   N     0.16665   0.16666   0.95240   0.00000  Uiso   1.00
N746   N     0.16668   0.16668   0.71427   0.00000  Uiso   1.00
O747   O     0.16666   0.10558   0.87154   0.00000  Uiso   1.00
O748   O     0.16667   0.22775   0.79513   0.00000  Uiso   1.00
O749   O     0.16666   0.10559   0.79510   0.00000  Uiso   1.00
O750   O     0.16667   0.22774   0.87157   0.00000  Uiso   1.00
O751   O     0.09058   0.16666   0.86261   0.00000  Uiso   1.00
O752   O     0.24275   0.16667   0.80405   0.00000  Uiso   1.00
O753   O     0.09058   0.16667   0.78617   0.00000  Uiso   1.00
O754   O     0.24275   0.16666   0.88050   0.00000  Uiso   1.00
Zn755  Zn    0.16667   0.16666   0.88437   0.00000  Uiso   1.00
Zn756  Zn    0.16667   0.16667   0.78229   0.00000  Uiso   1.00
O757   O     0.23166   0.21923   0.72325   0.00000  Uiso   1.00
H758   H     0.25251   0.23610   0.70433   0.00000  Uiso   1.00
O759   O     0.10168   0.11410   0.94341   0.00000  Uiso   1.00
H760   H     0.08082   0.09723   0.96234   0.00000  Uiso   1.00
C761   C     0.49997   0.08664   0.83333   0.00000  Uiso   1.00
C762   C     0.50003   0.24670   0.83334   0.00000  Uiso   1.00
C763   C     0.40038   0.16666   0.82137   0.00000  Uiso   1.00
C764   C     0.59962   0.16668   0.84529   0.00000  Uiso   1.00
C765   C     0.34535   0.16670   0.81493   0.00000  Uiso   1.00
C766   C     0.65465   0.16663   0.85174   0.00000  Uiso   1.00
C767   C     0.50924   0.02137   0.79405   0.00000  Uiso   1.00
C768   C     0.49076   0.31196   0.87262   0.00000  Uiso   1.00
C769   C     0.50928   0.31210   0.79405   0.00000  Uiso   1.00
C770   C     0.49072   0.02123   0.87262   0.00000  Uiso   1.00
C771   C     0.50003   0.29085   0.83333   0.00000  Uiso   1.00
C772   C     0.49997   0.04248   0.83334   0.00000  Uiso   1.00
C773   C     0.53248   0.19295   0.69504   0.00000  Uiso   1.00
C774   C     0.46751   0.14038   0.97162   0.00000  Uiso   1.00
C775   C     0.53227   0.19279   0.98009   0.00000  Uiso   1.00
C776   C     0.46773   0.14054   0.68657   0.00000  Uiso   1.00
H777   H     0.65809   0.16682   0.78000   0.00000  Uiso   1.00
H778   H     0.34191   0.16652   0.88666   0.00000  Uiso   1.00
H779   H     0.51673   0.03763   0.76354   0.00000  Uiso   1.00
H780   H     0.48327   0.29570   0.90313   0.00000  Uiso   1.00
H781   H     0.51681   0.29596   0.76355   0.00000  Uiso   1.00
H782   H     0.48319   0.03738   0.90312   0.00000  Uiso   1.00
H783   H     0.55788   0.21353   0.96477   0.00000  Uiso   1.00
H784   H     0.44212   0.11981   0.70190   0.00000  Uiso   1.00
N785   N     0.49999   0.16666   0.95240   0.00000  Uiso   1.00
N786   N     0.50001   0.16668   0.71427   0.00000  Uiso   1.00
O787   O     0.50000   0.10558   0.87154   0.00000  Uiso   1.00
O788   O     0.50000   0.22775   0.79513   0.00000  Uiso   1.00
O789   O     0.50000   0.10559   0.79510   0.00000  Uiso   1.00
O790   O     0.50000   0.22774   0.87157   0.00000  Uiso   1.00
O791   O     0.42392   0.16666   0.86261   0.00000  Uiso   1.00
O792   O     0.57608   0.16667   0.80405   0.00000  Uiso   1.00
O793   O     0.42392   0.16667   0.78617   0.00000  Uiso   1.00
O794   O     0.57608   0.16666   0.88050   0.00000  Uiso   1.00
Zn795  Zn    0.50000   0.16666   0.88437   0.00000  Uiso   1.00
Zn796  Zn    0.50000   0.16667   0.78229   0.00000  Uiso   1.00
O797   O     0.56499   0.21923   0.72325   0.00000  Uiso   1.00
H798   H     0.58584   0.23610   0.70433   0.00000  Uiso   1.00
O799   O     0.43501   0.11410   0.94341   0.00000  Uiso   1.00
H800   H     0.41416   0.09723   0.96234   0.00000  Uiso   1.00
C801   C     0.83330   0.08664   0.83333   0.00000  Uiso   1.00
C802   C     0.83337   0.24670   0.83334   0.00000  Uiso   1.00
C803   C     0.73371   0.16666   0.82137   0.00000  Uiso   1.00
C804   C     0.93296   0.16668   0.84529   0.00000  Uiso   1.00
C805   C     0.67868   0.16670   0.81493   0.00000  Uiso   1.00
C806   C     0.98799   0.16663   0.85174   0.00000  Uiso   1.00
C807   C     0.84257   0.02137   0.79405   0.00000  Uiso   1.00
C808   C     0.82410   0.31196   0.87262   0.00000  Uiso   1.00
C809   C     0.84261   0.31210   0.79405   0.00000  Uiso   1.00
C810   C     0.82406   0.02123   0.87262   0.00000  Uiso   1.00
C811   C     0.83336   0.29085   0.83333   0.00000  Uiso   1.00
C812   C     0.83330   0.04248   0.83334   0.00000  Uiso   1.00
C813   C     0.86582   0.19295   0.69504   0.00000  Uiso   1.00
C814   C     0.80085   0.14038   0.97162   0.00000  Uiso   1.00
C815   C     0.86560   0.19279   0.98009   0.00000  Uiso   1.00
C816   C     0.80106   0.14054   0.68657   0.00000  Uiso   1.00
H817   H     0.99142   0.16682   0.78000   0.00000  Uiso   1.00
H818   H     0.67524   0.16652   0.88666   0.00000  Uiso   1.00
H819   H     0.85007   0.03763   0.76354   0.00000  Uiso   1.00
H820   H     0.81660   0.29570   0.90313   0.00000  Uiso   1.00
H821   H     0.85014   0.29596   0.76355   0.00000  Uiso   1.00
H822   H     0.81652   0.03738   0.90312   0.00000  Uiso   1.00
H823   H     0.89121   0.21353   0.96477   0.00000  Uiso   1.00
H824   H     0.77545   0.11981   0.70190   0.00000  Uiso   1.00
N825   N     0.83332   0.16666   0.95240   0.00000  Uiso   1.00
N826   N     0.83335   0.16668   0.71427   0.00000  Uiso   1.00
O827   O     0.83333   0.10558   0.87154   0.00000  Uiso   1.00
O828   O     0.83334   0.22775   0.79513   0.00000  Uiso   1.00
O829   O     0.83333   0.10559   0.79510   0.00000  Uiso   1.00
O830   O     0.83334   0.22774   0.87157   0.00000  Uiso   1.00
O831   O     0.75725   0.16666   0.86261   0.00000  Uiso   1.00
O832   O     0.90942   0.16667   0.80405   0.00000  Uiso   1.00
O833   O     0.75725   0.16667   0.78617   0.00000  Uiso   1.00
O834   O     0.90942   0.16666   0.88050   0.00000  Uiso   1.00
Zn835  Zn    0.83333   0.16666   0.88437   0.00000  Uiso   1.00
Zn836  Zn    0.83333   0.16667   0.78229   0.00000  Uiso   1.00
O837   O     0.89832   0.21923   0.72325   0.00000  Uiso   1.00
H838   H     0.91918   0.23610   0.70433   0.00000  Uiso   1.00
O839   O     0.76834   0.11410   0.94341   0.00000  Uiso   1.00
H840   H     0.74749   0.09723   0.96234   0.00000  Uiso   1.00
C841   C     0.16663   0.41997   0.83333   0.00000  Uiso   1.00
C842   C     0.16670   0.58003   0.83334   0.00000  Uiso   1.00
C843   C     0.06704   0.49999   0.82137   0.00000  Uiso   1.00
C844   C     0.26629   0.50001   0.84529   0.00000  Uiso   1.00
C845   C     0.01201   0.50004   0.81493   0.00000  Uiso   1.00
C846   C     0.32132   0.49996   0.85174   0.00000  Uiso   1.00
C847   C     0.17590   0.35470   0.79405   0.00000  Uiso   1.00
C848   C     0.15743   0.64530   0.87262   0.00000  Uiso   1.00
C849   C     0.17594   0.64544   0.79405   0.00000  Uiso   1.00
C850   C     0.15739   0.35456   0.87262   0.00000  Uiso   1.00
C851   C     0.16670   0.62419   0.83333   0.00000  Uiso   1.00
C852   C     0.16664   0.37581   0.83334   0.00000  Uiso   1.00
C853   C     0.19915   0.52629   0.69504   0.00000  Uiso   1.00
C854   C     0.13418   0.47371   0.97162   0.00000  Uiso   1.00
C855   C     0.19894   0.52612   0.98009   0.00000  Uiso   1.00
C856   C     0.13440   0.47388   0.68657   0.00000  Uiso   1.00
H857   H     0.32475   0.50015   0.78000   0.00000  Uiso   1.00
H858   H     0.00858   0.49985   0.88666   0.00000  Uiso   1.00
H859   H     0.18340   0.37096   0.76354   0.00000  Uiso   1.00
H860   H     0.14993   0.62904   0.90313   0.00000  Uiso   1.00
H861   H     0.18348   0.62929   0.76355   0.00000  Uiso   1.00
H862   H     0.14986   0.37071   0.90312   0.00000  Uiso   1.00
H863   H     0.22455   0.54686   0.96477   0.00000  Uiso   1.00
H864   H     0.10879   0.45314   0.70190   0.00000  Uiso   1.00
N865   N     0.16665   0.49999   0.95240   0.00000  Uiso   1.00
N866   N     0.16668   0.50001   0.71427   0.00000  Uiso   1.00
O867   O     0.16666   0.43892   0.87154   0.00000  Uiso   1.00
O868   O     0.16667   0.56108   0.79513   0.00000  Uiso   1.00
O869   O     0.16666   0.43893   0.79510   0.00000  Uiso   1.00
O870   O     0.16667   0.56107   0.87157   0.00000  Uiso   1.00
O871   O     0.09058   0.50000   0.86261   0.00000  Uiso   1.00
O872   O     0.24275   0.50000   0.80405   0.00000  Uiso   1.00
O873   O     0.09058   0.50000   0.78617   0.00000  Uiso   1.00
O874   O     0.24275   0.50000   0.88050   0.00000  Uiso   1.00
Zn875  Zn    0.16667   0.49999   0.88437   0.00000  Uiso   1.00
Zn876  Zn    0.16667   0.50001   0.78229   0.00000  Uiso   1.00
O877   O     0.23166   0.55256   0.72325   0.00000  Uiso   1.00
H878   H     0.25251   0.56943   0.70433   0.00000  Uiso   1.00
O879   O     0.10168   0.44744   0.94341   0.00000  Uiso   1.00
H880   H     0.08082   0.43057   0.96234   0.00000  Uiso   1.00
C881   C     0.49997   0.41997   0.83333   0.00000  Uiso   1.00
C882   C     0.50003   0.58003   0.83334   0.00000  Uiso   1.00
C883   C     0.40038   0.49999   0.82137   0.00000  Uiso   1.00
C884   C     0.59962   0.50001   0.84529   0.00000  Uiso   1.00
C885   C     0.34535   0.50004   0.81493   0.00000  Uiso   1.00
C886   C     0.65465   0.49996   0.85174   0.00000  Uiso   1.00
C887   C     0.50924   0.35470   0.79405   0.00000  Uiso   1.00
C888   C     0.49076   0.64530   0.87262   0.00000  Uiso   1.00
C889   C     0.50928   0.64544   0.79405   0.00000  Uiso   1.00
C890   C     0.49072   0.35456   0.87262   0.00000  Uiso   1.00
C891   C     0.50003   0.62419   0.83333   0.00000  Uiso   1.00
C892   C     0.49997   0.37581   0.83334   0.00000  Uiso   1.00
C893   C     0.53248   0.52629   0.69504   0.00000  Uiso   1.00
C894   C     0.46751   0.47371   0.97162   0.00000  Uiso   1.00
C895   C     0.53227   0.52612   0.98009   0.00000  Uiso   1.00
C896   C     0.46773   0.47388   0.68657   0.00000  Uiso   1.00
H897   H     0.65809   0.50015   0.78000   0.00000  Uiso   1.00
H898   H     0.34191   0.49985   0.88666   0.00000  Uiso   1.00
H899   H     0.51673   0.37096   0.76354   0.00000  Uiso   1.00
H900   H     0.48327   0.62904   0.90313   0.00000  Uiso   1.00
H901   H     0.51681   0.62929   0.76355   0.00000  Uiso   1.00
H902   H     0.48319   0.37071   0.90312   0.00000  Uiso   1.00
H903   H     0.55788   0.54686   0.96477   0.00000  Uiso   1.00
H904   H     0.44212   0.45314   0.70190   0.00000  Uiso   1.00
N905   N     0.49999   0.49999   0.95240   0.00000  Uiso   1.00
N906   N     0.50001   0.50001   0.71427   0.00000  Uiso   1.00
O907   O     0.50000   0.43892   0.87154   0.00000  Uiso   1.00
O908   O     0.50000   0.56108   0.79513   0.00000  Uiso   1.00
O909   O     0.50000   0.43893   0.79510   0.00000  Uiso   1.00
O910   O     0.50000   0.56107   0.87157   0.00000  Uiso   1.00
O911   O     0.42392   0.50000   0.86261   0.00000  Uiso   1.00
O912   O     0.57608   0.50000   0.80405   0.00000  Uiso   1.00
O913   O     0.42392   0.50000   0.78617   0.00000  Uiso   1.00
O914   O     0.57608   0.50000   0.88050   0.00000  Uiso   1.00
Zn915  Zn    0.50000   0.49999   0.88437   0.00000  Uiso   1.00
Zn916  Zn    0.50000   0.50001   0.78229   0.00000  Uiso   1.00
O917   O     0.56499   0.55256   0.72325   0.00000  Uiso   1.00
H918   H     0.58584   0.56943   0.70433   0.00000  Uiso   1.00
O919   O     0.43501   0.44744   0.94341   0.00000  Uiso   1.00
H920   H     0.41416   0.43057   0.96234   0.00000  Uiso   1.00
C921   C     0.83330   0.41997   0.83333   0.00000  Uiso   1.00
C922   C     0.83337   0.58003   0.83334   0.00000  Uiso   1.00
C923   C     0.73371   0.49999   0.82137   0.00000  Uiso   1.00
C924   C     0.93296   0.50001   0.84529   0.00000  Uiso   1.00
C925   C     0.67868   0.50004   0.81493   0.00000  Uiso   1.00
C926   C     0.98799   0.49996   0.85174   0.00000  Uiso   1.00
C927   C     0.84257   0.35470   0.79405   0.00000  Uiso   1.00
C928   C     0.82410   0.64530   0.87262   0.00000  Uiso   1.00
C929   C     0.84261   0.64544   0.79405   0.00000  Uiso   1.00
C930   C     0.82406   0.35456   0.87262   0.00000  Uiso   1.00
C931   C     0.83336   0.62419   0.83333   0.00000  Uiso   1.00
C932   C     0.83330   0.37581   0.83334   0.00000  Uiso   1.00
C933   C     0.86582   0.52629   0.69504   0.00000  Uiso   1.00
C934   C     0.80085   0.47371   0.97162   0.00000  Uiso   1.00
C935   C     0.86560   0.52612   0.98009   0.00000  Uiso   1.00
C936   C     0.80106   0.47388   0.68657   0.00000  Uiso   1.00
H937   H     0.99142   0.50015   0.78000   0.00000  Uiso   1.00
H938   H     0.67524   0.49985   0.88666   0.00000  Uiso   1.00
H939   H     0.85007   0.37096   0.76354   0.00000  Uiso   1.00
H940   H     0.81660   0.62904   0.90313   0.00000  Uiso   1.00
H941   H     0.85014   0.62929   0.76355   0.00000  Uiso   1.00
H942   H     0.81652   0.37071   0.90312   0.00000  Uiso   1.00
H943   H     0.89121   0.54686   0.96477   0.00000  Uiso   1.00
H944   H     0.77545   0.45314   0.70190   0.00000  Uiso   1.00
N945   N     0.83332   0.49999   0.95240   0.00000  Uiso   1.00
N946   N     0.83335   0.50001   0.71427   0.00000  Uiso   1.00
O947   O     0.83333   0.43892   0.87154   0.00000  Uiso   1.00
O948   O     0.83334   0.56108   0.79513   0.00000  Uiso   1.00
O949   O     0.83333   0.43893   0.79510   0.00000  Uiso   1.00
O950   O     0.83334   0.56107   0.87157   0.00000  Uiso   1.00
O951   O     0.75725   0.50000   0.86261   0.00000  Uiso   1.00
O952   O     0.90942   0.50000   0.80405   0.00000  Uiso   1.00
O953   O     0.75725   0.50000   0.78617   0.00000  Uiso   1.00
O954   O     0.90942   0.50000   0.88050   0.00000  Uiso   1.00
Zn955  Zn    0.83333   0.49999   0.88437   0.00000  Uiso   1.00
Zn956  Zn    0.83333   0.50001   0.78229   0.00000  Uiso   1.00
O957   O     0.89832   0.55256   0.72325   0.00000  Uiso   1.00
H958   H     0.91918   0.56943   0.70433   0.00000  Uiso   1.00
O959   O     0.76834   0.44744   0.94341   0.00000  Uiso   1.00
H960   H     0.74749   0.43057   0.96234   0.00000  Uiso   1.00
C961   C     0.16663   0.75330   0.83333   0.00000  Uiso   1.00
C962   C     0.16670   0.91336   0.83334   0.00000  Uiso   1.00
C963   C     0.06704   0.83332   0.82137   0.00000  Uiso   1.00
C964   C     0.26629   0.83334   0.84529   0.00000  Uiso   1.00
C965   C     0.01201   0.83337   0.81493   0.00000  Uiso   1.00
C966   C     0.32132   0.83330   0.85174   0.00000  Uiso   1.00
C967   C     0.17590   0.68804   0.79405   0.00000  Uiso   1.00
C968   C     0.15743   0.97863   0.87262   0.00000  Uiso   1.00
C969   C     0.17594   0.97877   0.79405   0.00000  Uiso   1.00
C970   C     0.15739   0.68790   0.87262   0.00000  Uiso   1.00
C971   C     0.16670   0.95752   0.83333   0.00000  Uiso   1.00
C972   C     0.16664   0.70915   0.83334   0.00000  Uiso   1.00
C973   C     0.19915   0.85962   0.69504   0.00000  Uiso   1.00
C974   C     0.13418   0.80705   0.97162   0.00000  Uiso   1.00
C975   C     0.19894   0.85946   0.98009   0.00000  Uiso   1.00
C976   C     0.13440   0.80721   0.68657   0.00000  Uiso   1.00
H977   H     0.32475   0.83348   0.78000   0.00000  Uiso   1.00
H978   H     0.00858   0.83318   0.88666   0.00000  Uiso   1.00
H979   H     0.18340   0.70430   0.76354   0.00000  Uiso   1.00
H980   H     0.14993   0.96237   0.90313   0.00000  Uiso   1.00
H981   H     0.18348   0.96262   0.76355   0.00000  Uiso   1.00
H982   H     0.14986   0.70404   0.90312   0.00000  Uiso   1.00
H983   H     0.22455   0.88019   0.96477   0.00000  Uiso   1.00
H984   H     0.10879   0.78647   0.70190   0.00000  Uiso   1.00
N985   N     0.16665   0.83332   0.95240   0.00000  Uiso   1.00
N986   N     0.16668   0.83334   0.71427   0.00000  Uiso   1.00
O987   O     0.16666   0.77225   0.87154   0.00000  Uiso   1.00
O988   O     0.16667   0.89442   0.79513   0.00000  Uiso   1.00
O989   O     0.16666   0.77226   0.79510   0.00000  Uiso   1.00
O990   O     0.16667   0.89441   0.87157   0.00000  Uiso   1.00
O991   O     0.09058   0.83333   0.86261   0.00000  Uiso   1.00
O992   O     0.24275   0.83334   0.80405   0.00000  Uiso   1.00
O993   O     0.09058   0.83334   0.78617   0.00000  Uiso   1.00
O994   O     0.24275   0.83333   0.88050   0.00000  Uiso   1.00
Zn995  Zn    0.16667   0.83333   0.88437   0.00000  Uiso   1.00
Zn996  Zn    0.16667   0.83334   0.78229   0.00000  Uiso   1.00
O997   O     0.23166   0.88590   0.72325   0.00000  Uiso   1.00
H998   H     0.25251   0.90277   0.70433   0.00000  Uiso   1.00
O999   O     0.10168   0.78077   0.94341   0.00000  Uiso   1.00
H1000  H     0.08082   0.76390   0.96234   0.00000  Uiso   1.00
C1001  C     0.49997   0.75330   0.83333   0.00000  Uiso   1.00
C1002  C     0.50003   0.91336   0.83334   0.00000  Uiso   1.00
C1003  C     0.40038   0.83332   0.82137   0.00000  Uiso   1.00
C1004  C     0.59962   0.83334   0.84529   0.00000  Uiso   1.00
C1005  C     0.34535   0.83337   0.81493   0.00000  Uiso   1.00
C1006  C     0.65465   0.83330   0.85174   0.00000  Uiso   1.00
C1007  C     0.50924   0.68804   0.79405   0.00000  Uiso   1.00
C1008  C     0.49076   0.97863   0.87262   0.00000  Uiso   1.00
C1009  C     0.50928   0.97877   0.79405   0.00000  Uiso   1.00
C1010  C     0.49072   0.68790   0.87262   0.00000  Uiso   1.00
C1011  C     0.50003   0.95752   0.83333   0.00000  Uiso   1.00
C1012  C     0.49997   0.70915   0.83334   0.00000  Uiso   1.00
C1013  C     0.53248   0.85962   0.69504   0.00000  Uiso   1.00
C1014  C     0.46751   0.80705   0.97162   0.00000  Uiso   1.00
C1015  C     0.53227   0.85946   0.98009   0.00000  Uiso   1.00
C1016  C     0.46773   0.80721   0.68657   0.00000  Uiso   1.00
H1017  H     0.65809   0.83348   0.78000   0.00000  Uiso   1.00
H1018  H     0.34191   0.83318   0.88666   0.00000  Uiso   1.00
H1019  H     0.51673   0.70430   0.76354   0.00000  Uiso   1.00
H1020  H     0.48327   0.96237   0.90313   0.00000  Uiso   1.00
H1021  H     0.51681   0.96262   0.76355   0.00000  Uiso   1.00
H1022  H     0.48319   0.70404   0.90312   0.00000  Uiso   1.00
H1023  H     0.55788   0.88019   0.96477   0.00000  Uiso   1.00
H1024  H     0.44212   0.78647   0.70190   0.00000  Uiso   1.00
N1025  N     0.49999   0.83332   0.95240   0.00000  Uiso   1.00
N1026  N     0.50001   0.83334   0.71427   0.00000  Uiso   1.00
O1027  O     0.50000   0.77225   0.87154   0.00000  Uiso   1.00
O1028  O     0.50000   0.89442   0.79513   0.00000  Uiso   1.00
O1029  O     0.50000   0.77226   0.79510   0.00000  Uiso   1.00
O1030  O     0.50000   0.89441   0.87157   0.00000  Uiso   1.00
O1031  O     0.42392   0.83333   0.86261   0.00000  Uiso   1.00
O1032  O     0.57608   0.83334   0.80405   0.00000  Uiso   1.00
O1033  O     0.42392   0.83334   0.78617   0.00000  Uiso   1.00
O1034  O     0.57608   0.83333   0.88050   0.00000  Uiso   1.00
Zn1035 Zn    0.50000   0.83333   0.88437   0.00000  Uiso   1.00
Zn1036 Zn    0.50000   0.83334   0.78229   0.00000  Uiso   1.00
O1037  O     0.56499   0.88590   0.72325   0.00000  Uiso   1.00
H1038  H     0.58584   0.90277   0.70433   0.00000  Uiso   1.00
O1039  O     0.43501   0.78077   0.94341   0.00000  Uiso   1.00
H1040  H     0.41416   0.76390   0.96234   0.00000  Uiso   1.00
C1041  C     0.83330   0.75330   0.83333   0.00000  Uiso   1.00
C1042  C     0.83337   0.91336   0.83334   0.00000  Uiso   1.00
C1043  C     0.73371   0.83332   0.82137   0.00000  Uiso   1.00
C1044  C     0.93296   0.83334   0.84529   0.00000  Uiso   1.00
C1045  C     0.67868   0.83337   0.81493   0.00000  Uiso   1.00
C1046  C     0.98799   0.83330   0.85174   0.00000  Uiso   1.00
C1047  C     0.84257   0.68804   0.79405   0.00000  Uiso   1.00
C1048  C     0.82410   0.97863   0.87262   0.00000  Uiso   1.00
C1049  C     0.84261   0.97877   0.79405   0.00000  Uiso   1.00
C1050  C     0.82406   0.68790   0.87262   0.00000  Uiso   1.00
C1051  C     0.83336   0.95752   0.83333   0.00000  Uiso   1.00
C1052  C     0.83330   0.70915   0.83334   0.00000  Uiso   1.00
C1053  C     0.86582   0.85962   0.69504   0.00000  Uiso   1.00
C1054  C     0.80085   0.80705   0.97162   0.00000  Uiso   1.00
C1055  C     0.86560   0.85946   0.98009   0.00000  Uiso   1.00
C1056  C     0.80106   0.80721   0.68657   0.00000  Uiso   1.00
H1057  H     0.99142   0.83348   0.78000   0.00000  Uiso   1.00
H1058  H     0.67524   0.83318   0.88666   0.00000  Uiso   1.00
H1059  H     0.85007   0.70430   0.76354   0.00000  Uiso   1.00
H1060  H     0.81660   0.96237   0.90313   0.00000  Uiso   1.00
H1061  H     0.85014   0.96262   0.76355   0.00000  Uiso   1.00
H1062  H     0.81652   0.70404   0.90312   0.00000  Uiso   1.00
H1063  H     0.89121   0.88019   0.96477   0.00000  Uiso   1.00
H1064  H     0.77545   0.78647   0.70190   0.00000  Uiso   1.00
N1065  N     0.83332   0.83332   0.95240   0.00000  Uiso   1.00
N1066  N     0.83335   0.83334   0.71427   0.00000  Uiso   1.00
O1067  O     0.83333   0.77225   0.87154   0.00000  Uiso   1.00
O1068  O     0.83334   0.89442   0.79513   0.00000  Uiso   1.00
O1069  O     0.83333   0.77226   0.79510   0.00000  Uiso   1.00
O1070  O     0.83334   0.89441   0.87157   0.00000  Uiso   1.00
O1071  O     0.75725   0.83333   0.86261   0.00000  Uiso   1.00
O1072  O     0.90942   0.83334   0.80405   0.00000  Uiso   1.00
O1073  O     0.75725   0.83334   0.78617   0.00000  Uiso   1.00
O1074  O     0.90942   0.83333   0.88050   0.00000  Uiso   1.00
Zn1075 Zn    0.83333   0.83333   0.88437   0.00000  Uiso   1.00
Zn1076 Zn    0.83333   0.83334   0.78229   0.00000  Uiso   1.00
O1077  O     0.89832   0.88590   0.72325   0.00000  Uiso   1.00
H1078  H     0.91918   0.90277   0.70433   0.00000  Uiso   1.00
O1079  O     0.76834   0.78077   0.94341   0.00000  Uiso   1.00
H1080  H     0.74749   0.76390   0.96234   0.00000  Uiso   1.00
loop_
_geom_bond_atom_site_label_1
_geom_bond_atom_site_label_2
_geom_bond_distance
_geom_bond_site_symmetry_2
_ccdc_geom_bond_type
C1     O29     1.284   .     A
C1     C12     1.420   .     S
C1     O27     1.284   .     A
C2     O30     1.284   .     A
C2     C11     1.420   .     S
C2     O28     1.284   .     A
C3     O31     1.278   .     A
C3     O33     1.280   .     A
C3     C5      1.403   .     S
C4     O34     1.280   .     A
C4     O32     1.278   .     A
C4     C6      1.403   .     S
C5     C86     1.330   1_455 S
C5     H97     1.088   1_455 S
C6     C45     1.330   .     S
C6     H58     1.088   .     S
C7     C12     1.397   .     A
C7     H19     1.084   .     S
C7     C249    1.370   1_545 S
C8     H20     1.084   .     S
C8     C11     1.397   .     A
C8     C130    1.370   .     S
C9     C11     1.397   .     A
C9     H21     1.084   .     S
C9     C127    1.370   .     S
C10    H22     1.084   .     S
C10    C12     1.397   .     A
C10    C248    1.370   1_545 S
C13    O37     1.378   .     S
C13    N26     1.369   .     A
C13    C735    1.426   1_554 S
C14    N25     1.369   .     A
C14    O39     1.378   .     S
C14    C376    1.426   .     S
C15    H23     1.082   .     S
C15    N25     1.365   .     A
C15    C373    1.426   .     S
C16    H24     1.082   .     S
C16    N26     1.365   .     A
C16    C734    1.426   1_554 S
H17    C45     1.088   .     S
H18    C86     1.088   1_455 S
N25    Zn35    2.011   .     S
N26    Zn36    2.011   .     S
O27    Zn35    2.001   .     S
O28    Zn36    2.001   .     S
O29    Zn36    2.000   .     S
O30    Zn35    2.000   .     S
O31    Zn35    1.971   .     S
O32    Zn36    1.971   .     S
O33    Zn36    1.982   .     S
O34    Zn35    1.982   .     S
O37    H38     0.992   .     S
O39    H40     0.992   .     S
C41    O69     1.284   .     A
C41    C52     1.420   .     S
C41    O67     1.284   .     A
C42    O70     1.284   .     A
C42    C51     1.420   .     S
C42    O68     1.284   .     A
C43    O71     1.278   .     A
C43    O73     1.280   .     A
C43    C45     1.403   .     S
C44    O74     1.280   .     A
C44    O72     1.278   .     A
C44    C46     1.403   .     S
C46    C85     1.330   .     S
C46    H98     1.088   .     S
C47    C52     1.397   .     A
C47    H59     1.084   .     S
C47    C289    1.370   1_545 S
C48    H60     1.084   .     S
C48    C51     1.397   .     A
C48    C170    1.370   .     S
C49    C51     1.397   .     A
C49    H61     1.084   .     S
C49    C167    1.370   .     S
C50    H62     1.084   .     S
C50    C52     1.397   .     A
C50    C288    1.370   1_545 S
C53    O77     1.378   .     S
C53    N66     1.369   .     A
C53    C775    1.426   1_554 S
C54    N65     1.369   .     A
C54    O79     1.378   .     S
C54    C416    1.426   .     S
C55    H63     1.082   .     S
C55    N65     1.365   .     A
C55    C413    1.426   .     S
C56    H64     1.082   .     S
C56    N66     1.365   .     A
C56    C774    1.426   1_554 S
H57    C85     1.088   .     S
N65    Zn75    2.011   .     S
N66    Zn76    2.011   .     S
O67    Zn75    2.001   .     S
O68    Zn76    2.001   .     S
O69    Zn76    2.000   .     S
O70    Zn75    2.000   .     S
O71    Zn75    1.971   .     S
O72    Zn76    1.971   .     S
O73    Zn76    1.982   .     S
O74    Zn75    1.982   .     S
O77    H78     0.992   .     S
O79    H80     0.992   .     S
C81    O109    1.284   .     A
C81    C92     1.420   .     S
C81    O107    1.284   .     A
C82    O110    1.284   .     A
C82    C91     1.420   .     S
C82    O108    1.284   .     A
C83    O111    1.278   .     A
C83    O113    1.280   .     A
C83    C85     1.403   .     S
C84    O114    1.280   .     A
C84    O112    1.278   .     A
C84    C86     1.403   .     S
C86    C5      1.330   1_655 S
C86    H18     1.088   1_655 S
C87    C92     1.397   .     A
C87    H99     1.084   .     S
C87    C329    1.370   1_545 S
C88    H100    1.084   .     S
C88    C91     1.397   .     A
C88    C210    1.370   .     S
C89    C91     1.397   .     A
C89    H101    1.084   .     S
C89    C207    1.370   .     S
C90    H102    1.084   .     S
C90    C92     1.397   .     A
C90    C328    1.370   1_545 S
C93    O117    1.378   .     S
C93    N106    1.369   .     A
C93    C815    1.426   1_554 S
C94    N105    1.369   .     A
C94    O119    1.378   .     S
C94    C456    1.426   .     S
C95    H103    1.082   .     S
C95    N105    1.365   .     A
C95    C453    1.426   .     S
C96    H104    1.082   .     S
C96    N106    1.365   .     A
C96    C814    1.426   1_554 S
H97    C5      1.088   1_655 S
N105   Zn115   2.011   .     S
N106   Zn116   2.011   .     S
O107   Zn115   2.001   .     S
O108   Zn116   2.001   .     S
O109   Zn116   2.000   .     S
O110   Zn115   2.000   .     S
O111   Zn115   1.971   .     S
O112   Zn116   1.971   .     S
O113   Zn116   1.982   .     S
O114   Zn115   1.982   .     S
O117   H118    0.992   .     S
O119   H120    0.992   .     S
C121   O149    1.284   .     A
C121   C132    1.420   .     S
C121   O147    1.284   .     A
C122   O150    1.284   .     A
C122   C131    1.420   .     S
C122   O148    1.284   .     A
C123   O151    1.278   .     A
C123   O153    1.280   .     A
C123   C125    1.403   .     S
C124   O154    1.280   .     A
C124   O152    1.278   .     A
C124   C126    1.403   .     S
C125   C206    1.330   1_455 S
C125   H217    1.088   1_455 S
C126   C165    1.330   .     S
C126   H178    1.088   .     S
C127   C132    1.397   .     A
C127   H139    1.084   .     S
C128   H140    1.084   .     S
C128   C131    1.397   .     A
C128   C250    1.370   .     S
C129   C131    1.397   .     A
C129   H141    1.084   .     S
C129   C247    1.370   .     S
C130   H142    1.084   .     S
C130   C132    1.397   .     A
C133   O157    1.378   .     S
C133   N146    1.369   .     A
C133   C855    1.426   1_554 S
C134   N145    1.369   .     A
C134   O159    1.378   .     S
C134   C496    1.426   .     S
C135   H143    1.082   .     S
C135   N145    1.365   .     A
C135   C493    1.426   .     S
C136   H144    1.082   .     S
C136   N146    1.365   .     A
C136   C854    1.426   1_554 S
H137   C165    1.088   .     S
H138   C206    1.088   1_455 S
N145   Zn155   2.011   .     S
N146   Zn156   2.011   .     S
O147   Zn155   2.001   .     S
O148   Zn156   2.001   .     S
O149   Zn156   2.000   .     S
O150   Zn155   2.000   .     S
O151   Zn155   1.971   .     S
O152   Zn156   1.971   .     S
O153   Zn156   1.982   .     S
O154   Zn155   1.982   .     S
O157   H158    0.992   .     S
O159   H160    0.992   .     S
C161   O189    1.284   .     A
C161   C172    1.420   .     S
C161   O187    1.284   .     A
C162   O190    1.284   .     A
C162   C171    1.420   .     S
C162   O188    1.284   .     A
C163   O191    1.278   .     A
C163   O193    1.280   .     A
C163   C165    1.403   .     S
C164   O194    1.280   .     A
C164   O192    1.278   .     A
C164   C166    1.403   .     S
C166   C205    1.330   .     S
C166   H218    1.088   .     S
C167   C172    1.397   .     A
C167   H179    1.084   .     S
C168   H180    1.084   .     S
C168   C171    1.397   .     A
C168   C290    1.370   .     S
C169   C171    1.397   .     A
C169   H181    1.084   .     S
C169   C287    1.370   .     S
C170   H182    1.084   .     S
C170   C172    1.397   .     A
C173   O197    1.378   .     S
C173   N186    1.369   .     A
C173   C895    1.426   1_554 S
C174   N185    1.369   .     A
C174   O199    1.378   .     S
C174   C536    1.426   .     S
C175   H183    1.082   .     S
C175   N185    1.365   .     A
C175   C533    1.426   .     S
C176   H184    1.082   .     S
C176   N186    1.365   .     A
C176   C894    1.426   1_554 S
H177   C205    1.088   .     S
N185   Zn195   2.011   .     S
N186   Zn196   2.011   .     S
O187   Zn195   2.001   .     S
O188   Zn196   2.001   .     S
O189   Zn196   2.000   .     S
O190   Zn195   2.000   .     S
O191   Zn195   1.971   .     S
O192   Zn196   1.971   .     S
O193   Zn196   1.982   .     S
O194   Zn195   1.982   .     S
O197   H198    0.992   .     S
O199   H200    0.992   .     S
C201   O229    1.284   .     A
C201   C212    1.420   .     S
C201   O227    1.284   .     A
C202   O230    1.284   .     A
C202   C211    1.420   .     S
C202   O228    1.284   .     A
C203   O231    1.278   .     A
C203   O233    1.280   .     A
C203   C205    1.403   .     S
C204   O234    1.280   .     A
C204   O232    1.278   .     A
C204   C206    1.403   .     S
C206   C125    1.330   1_655 S
C206   H138    1.088   1_655 S
C207   C212    1.397   .     A
C207   H219    1.084   .     S
C208   H220    1.084   .     S
C208   C211    1.397   .     A
C208   C330    1.370   .     S
C209   C211    1.397   .     A
C209   H221    1.084   .     S
C209   C327    1.370   .     S
C210   H222    1.084   .     S
C210   C212    1.397   .     A
C213   O237    1.378   .     S
C213   N226    1.369   .     A
C213   C935    1.426   1_554 S
C214   N225    1.369   .     A
C214   O239    1.378   .     S
C214   C576    1.426   .     S
C215   H223    1.082   .     S
C215   N225    1.365   .     A
C215   C573    1.426   .     S
C216   H224    1.082   .     S
C216   N226    1.365   .     A
C216   C934    1.426   1_554 S
H217   C125    1.088   1_655 S
N225   Zn235   2.011   .     S
N226   Zn236   2.011   .     S
O227   Zn235   2.001   .     S
O228   Zn236   2.001   .     S
O229   Zn236   2.000   .     S
O230   Zn235   2.000   .     S
O231   Zn235   1.971   .     S
O232   Zn236   1.971   .     S
O233   Zn236   1.982   .     S
O234   Zn235   1.982   .     S
O237   H238    0.992   .     S
O239   H240    0.992   .     S
C241   O269    1.284   .     A
C241   C252    1.420   .     S
C241   O267    1.284   .     A
C242   O270    1.284   .     A
C242   C251    1.420   .     S
C242   O268    1.284   .     A
C243   O271    1.278   .     A
C243   O273    1.280   .     A
C243   C245    1.403   .     S
C244   O274    1.280   .     A
C244   O272    1.278   .     A
C244   C246    1.403   .     S
C245   C326    1.330   1_455 S
C245   H337    1.088   1_455 S
C246   C285    1.330   .     S
C246   H298    1.088   .     S
C247   C252    1.397   .     A
C247   H259    1.084   .     S
C248   H260    1.084   .     S
C248   C251    1.397   .     A
C248   C10     1.370   1_565 S
C249   C251    1.397   .     A
C249   H261    1.084   .     S
C249   C7      1.370   1_565 S
C250   H262    1.084   .     S
C250   C252    1.397   .     A
C253   O277    1.378   .     S
C253   N266    1.369   .     A
C253   C975    1.426   1_554 S
C254   N265    1.369   .     A
C254   O279    1.378   .     S
C254   C616    1.426   .     S
C255   H263    1.082   .     S
C255   N265    1.365   .     A
C255   C613    1.426   .     S
C256   H264    1.082   .     S
C256   N266    1.365   .     A
C256   C974    1.426   1_554 S
H257   C285    1.088   .     S
H258   C326    1.088   1_455 S
N265   Zn275   2.011   .     S
N266   Zn276   2.011   .     S
O267   Zn275   2.001   .     S
O268   Zn276   2.001   .     S
O269   Zn276   2.000   .     S
O270   Zn275   2.000   .     S
O271   Zn275   1.971   .     S
O272   Zn276   1.971   .     S
O273   Zn276   1.982   .     S
O274   Zn275   1.982   .     S
O277   H278    0.992   .     S
O279   H280    0.992   .     S
C281   O309    1.284   .     A
C281   C292    1.420   .     S
C281   O307    1.284   .     A
C282   O310    1.284   .     A
C282   C291    1.420   .     S
C282   O308    1.284   .     A
C283   O311    1.278   .     A
C283   O313    1.280   .     A
C283   C285    1.403   .     S
C284   O314    1.280   .     A
C284   O312    1.278   .     A
C284   C286    1.403   .     S
C286   C325    1.330   .     S
C286   H338    1.088   .     S
C287   C292    1.397   .     A
C287   H299    1.084   .     S
C288   H300    1.084   .     S
C288   C291    1.397   .     A
C288   C50     1.370   1_565 S
C289   C291    1.397   .     A
C289   H301    1.084   .     S
C289   C47     1.370   1_565 S
C290   H302    1.084   .     S
C290   C292    1.397   .     A
C293   O317    1.378   .     S
C293   N306    1.369   .     A
C293   C1015   1.426   1_554 S
C294   N305    1.369   .     A
C294   O319    1.378   .     S
C294   C656    1.426   .     S
C295   H303    1.082   .     S
C295   N305    1.365   .     A
C295   C653    1.426   .     S
C296   H304    1.082   .     S
C296   N306    1.365   .     A
C296   C1014   1.426   1_554 S
H297   C325    1.088   .     S
N305   Zn315   2.011   .     S
N306   Zn316   2.011   .     S
O307   Zn315   2.001   .     S
O308   Zn316   2.001   .     S
O309   Zn316   2.000   .     S
O310   Zn315   2.000   .     S
O311   Zn315   1.971   .     S
O312   Zn316   1.971   .     S
O313   Zn316   1.982   .     S
O314   Zn315   1.982   .     S
O317   H318    0.992   .     S
O319   H320    0.992   .     S
C321   O349    1.284   .     A
C321   C332    1.420   .     S
C321   O347    1.284   .     A
C322   O350    1.284   .     A
C322   C331    1.420   .     S
C322   O348    1.284   .     A
C323   O351    1.278   .     A
C323   O353    1.280   .     A
C323   C325    1.403   .     S
C324   O354    1.280   .     A
C324   O352    1.278   .     A
C324   C326    1.403   .     S
C326   C245    1.330   1_655 S
C326   H258    1.088   1_655 S
C327   C332    1.397   .     A
C327   H339    1.084   .     S
C328   H340    1.084   .     S
C328   C331    1.397   .     A
C328   C90     1.370   1_565 S
C329   C331    1.397   .     A
C329   H341    1.084   .     S
C329   C87     1.370   1_565 S
C330   H342    1.084   .     S
C330   C332    1.397   .     A
C333   O357    1.378   .     S
C333   N346    1.369   .     A
C333   C1055   1.426   1_554 S
C334   N345    1.369   .     A
C334   O359    1.378   .     S
C334   C696    1.426   .     S
C335   H343    1.082   .     S
C335   N345    1.365   .     A
C335   C693    1.426   .     S
C336   H344    1.082   .     S
C336   N346    1.365   .     A
C336   C1054   1.426   1_554 S
H337   C245    1.088   1_655 S
N345   Zn355   2.011   .     S
N346   Zn356   2.011   .     S
O347   Zn355   2.001   .     S
O348   Zn356   2.001   .     S
O349   Zn356   2.000   .     S
O350   Zn355   2.000   .     S
O351   Zn355   1.971   .     S
O352   Zn356   1.971   .     S
O353   Zn356   1.982   .     S
O354   Zn355   1.982   .     S
O357   H358    0.992   .     S
O359   H360    0.992   .     S
C361   O389    1.284   .     A
C361   C372    1.420   .     S
C361   O387    1.284   .     A
C362   O390    1.284   .     A
C362   C371    1.420   .     S
C362   O388    1.284   .     A
C363   O391    1.278   .     A
C363   O393    1.280   .     A
C363   C365    1.403   .     S
C364   O394    1.280   .     A
C364   O392    1.278   .     A
C364   C366    1.403   .     S
C365   C446    1.330   1_455 S
C365   H457    1.088   1_455 S
C366   C405    1.330   .     S
C366   H418    1.088   .     S
C367   C372    1.397   .     A
C367   H379    1.084   .     S
C367   C609    1.370   1_545 S
C368   H380    1.084   .     S
C368   C371    1.397   .     A
C368   C490    1.370   .     S
C369   C371    1.397   .     A
C369   H381    1.084   .     S
C369   C487    1.370   .     S
C370   H382    1.084   .     S
C370   C372    1.397   .     A
C370   C608    1.370   1_545 S
C373   O397    1.378   .     S
C373   N386    1.369   .     A
C374   N385    1.369   .     A
C374   O399    1.378   .     S
C374   C736    1.426   .     S
C375   H383    1.082   .     S
C375   N385    1.365   .     A
C375   C733    1.426   .     S
C376   H384    1.082   .     S
C376   N386    1.365   .     A
H377   C405    1.088   .     S
H378   C446    1.088   1_455 S
N385   Zn395   2.011   .     S
N386   Zn396   2.011   .     S
O387   Zn395   2.001   .     S
O388   Zn396   2.001   .     S
O389   Zn396   2.000   .     S
O390   Zn395   2.000   .     S
O391   Zn395   1.971   .     S
O392   Zn396   1.971   .     S
O393   Zn396   1.982   .     S
O394   Zn395   1.982   .     S
O397   H398    0.992   .     S
O399   H400    0.992   .     S
C401   O429    1.284   .     A
C401   C412    1.420   .     S
C401   O427    1.284   .     A
C402   O430    1.284   .     A
C402   C411    1.420   .     S
C402   O428    1.284   .     A
C403   O431    1.278   .     A
C403   O433    1.280   .     A
C403   C405    1.403   .     S
C404   O434    1.280   .     A
C404   O432    1.278   .     A
C404   C406    1.403   .     S
C406   C445    1.330   .     S
C406   H458    1.088   .     S
C407   C412    1.397   .     A
C407   H419    1.084   .     S
C407   C649    1.370   1_545 S
C408   H420    1.084   .     S
C408   C411    1.397   .     A
C408   C530    1.370   .     S
C409   C411    1.397   .     A
C409   H421    1.084   .     S
C409   C527    1.370   .     S
C410   H422    1.084   .     S
C410   C412    1.397   .     A
C410   C648    1.370   1_545 S
C413   O437    1.378   .     S
C413   N426    1.369   .     A
C414   N425    1.369   .     A
C414   O439    1.378   .     S
C414   C776    1.426   .     S
C415   H423    1.082   .     S
C415   N425    1.365   .     A
C415   C773    1.426   .     S
C416   H424    1.082   .     S
C416   N426    1.365   .     A
H417   C445    1.088   .     S
N425   Zn435   2.011   .     S
N426   Zn436   2.011   .     S
O427   Zn435   2.001   .     S
O428   Zn436   2.001   .     S
O429   Zn436   2.000   .     S
O430   Zn435   2.000   .     S
O431   Zn435   1.971   .     S
O432   Zn436   1.971   .     S
O433   Zn436   1.982   .     S
O434   Zn435   1.982   .     S
O437   H438    0.992   .     S
O439   H440    0.992   .     S
C441   O469    1.284   .     A
C441   C452    1.420   .     S
C441   O467    1.284   .     A
C442   O470    1.284   .     A
C442   C451    1.420   .     S
C442   O468    1.284   .     A
C443   O471    1.278   .     A
C443   O473    1.280   .     A
C443   C445    1.403   .     S
C444   O474    1.280   .     A
C444   O472    1.278   .     A
C444   C446    1.403   .     S
C446   C365    1.330   1_655 S
C446   H378    1.088   1_655 S
C447   C452    1.397   .     A
C447   H459    1.084   .     S
C447   C689    1.370   1_545 S
C448   H460    1.084   .     S
C448   C451    1.397   .     A
C448   C570    1.370   .     S
C449   C451    1.397   .     A
C449   H461    1.084   .     S
C449   C567    1.370   .     S
C450   H462    1.084   .     S
C450   C452    1.397   .     A
C450   C688    1.370   1_545 S
C453   O477    1.378   .     S
C453   N466    1.369   .     A
C454   N465    1.369   .     A
C454   O479    1.378   .     S
C454   C816    1.426   .     S
C455   H463    1.082   .     S
C455   N465    1.365   .     A
C455   C813    1.426   .     S
C456   H464    1.082   .     S
C456   N466    1.365   .     A
H457   C365    1.088   1_655 S
N465   Zn475   2.011   .     S
N466   Zn476   2.011   .     S
O467   Zn475   2.001   .     S
O468   Zn476   2.001   .     S
O469   Zn476   2.000   .     S
O470   Zn475   2.000   .     S
O471   Zn475   1.971   .     S
O472   Zn476   1.971   .     S
O473   Zn476   1.982   .     S
O474   Zn475   1.982   .     S
O477   H478    0.992   .     S
O479   H480    0.992   .     S
C481   O509    1.284   .     A
C481   C492    1.420   .     S
C481   O507    1.284   .     A
C482   O510    1.284   .     A
C482   C491    1.420   .     S
C482   O508    1.284   .     A
C483   O511    1.278   .     A
C483   O513    1.280   .     A
C483   C485    1.403   .     S
C484   O514    1.280   .     A
C484   O512    1.278   .     A
C484   C486    1.403   .     S
C485   C566    1.330   1_455 S
C485   H577    1.088   1_455 S
C486   C525    1.330   .     S
C486   H538    1.088   .     S
C487   C492    1.397   .     A
C487   H499    1.084   .     S
C488   H500    1.084   .     S
C488   C491    1.397   .     A
C488   C610    1.370   .     S
C489   C491    1.397   .     A
C489   H501    1.084   .     S
C489   C607    1.370   .     S
C490   H502    1.084   .     S
C490   C492    1.397   .     A
C493   O517    1.378   .     S
C493   N506    1.369   .     A
C494   N505    1.369   .     A
C494   O519    1.378   .     S
C494   C856    1.426   .     S
C495   H503    1.082   .     S
C495   N505    1.365   .     A
C495   C853    1.426   .     S
C496   H504    1.082   .     S
C496   N506    1.365   .     A
H497   C525    1.088   .     S
H498   C566    1.088   1_455 S
N505   Zn515   2.011   .     S
N506   Zn516   2.011   .     S
O507   Zn515   2.001   .     S
O508   Zn516   2.001   .     S
O509   Zn516   2.000   .     S
O510   Zn515   2.000   .     S
O511   Zn515   1.971   .     S
O512   Zn516   1.971   .     S
O513   Zn516   1.982   .     S
O514   Zn515   1.982   .     S
O517   H518    0.992   .     S
O519   H520    0.992   .     S
C521   O549    1.284   .     A
C521   C532    1.420   .     S
C521   O547    1.284   .     A
C522   O550    1.284   .     A
C522   C531    1.420   .     S
C522   O548    1.284   .     A
C523   O551    1.278   .     A
C523   O553    1.280   .     A
C523   C525    1.403   .     S
C524   O554    1.280   .     A
C524   O552    1.278   .     A
C524   C526    1.403   .     S
C526   C565    1.330   .     S
C526   H578    1.088   .     S
C527   C532    1.397   .     A
C527   H539    1.084   .     S
C528   H540    1.084   .     S
C528   C531    1.397   .     A
C528   C650    1.370   .     S
C529   C531    1.397   .     A
C529   H541    1.084   .     S
C529   C647    1.370   .     S
C530   H542    1.084   .     S
C530   C532    1.397   .     A
C533   O557    1.378   .     S
C533   N546    1.369   .     A
C534   N545    1.369   .     A
C534   O559    1.378   .     S
C534   C896    1.426   .     S
C535   H543    1.082   .     S
C535   N545    1.365   .     A
C535   C893    1.426   .     S
C536   H544    1.082   .     S
C536   N546    1.365   .     A
H537   C565    1.088   .     S
N545   Zn555   2.011   .     S
N546   Zn556   2.011   .     S
O547   Zn555   2.001   .     S
O548   Zn556   2.001   .     S
O549   Zn556   2.000   .     S
O550   Zn555   2.000   .     S
O551   Zn555   1.971   .     S
O552   Zn556   1.971   .     S
O553   Zn556   1.982   .     S
O554   Zn555   1.982   .     S
O557   H558    0.992   .     S
O559   H560    0.992   .     S
C561   O589    1.284   .     A
C561   C572    1.420   .     S
C561   O587    1.284   .     A
C562   O590    1.284   .     A
C562   C571    1.420   .     S
C562   O588    1.284   .     A
C563   O591    1.278   .     A
C563   O593    1.280   .     A
C563   C565    1.403   .     S
C564   O594    1.280   .     A
C564   O592    1.278   .     A
C564   C566    1.403   .     S
C566   C485    1.330   1_655 S
C566   H498    1.088   1_655 S
C567   C572    1.397   .     A
C567   H579    1.084   .     S
C568   H580    1.084   .     S
C568   C571    1.397   .     A
C568   C690    1.370   .     S
C569   C571    1.397   .     A
C569   H581    1.084   .     S
C569   C687    1.370   .     S
C570   H582    1.084   .     S
C570   C572    1.397   .     A
C573   O597    1.378   .     S
C573   N586    1.369   .     A
C574   N585    1.369   .     A
C574   O599    1.378   .     S
C574   C936    1.426   .     S
C575   H583    1.082   .     S
C575   N585    1.365   .     A
C575   C933    1.426   .     S
C576   H584    1.082   .     S
C576   N586    1.365   .     A
H577   C485    1.088   1_655 S
N585   Zn595   2.011   .     S
N586   Zn596   2.011   .     S
O587   Zn595   2.001   .     S
O588   Zn596   2.001   .     S
O589   Zn596   2.000   .     S
O590   Zn595   2.000   .     S
O591   Zn595   1.971   .     S
O592   Zn596   1.971   .     S
O593   Zn596   1.982   .     S
O594   Zn595   1.982   .     S
O597   H598    0.992   .     S
O599   H600    0.992   .     S
C601   O629    1.284   .     A
C601   C612    1.420   .     S
C601   O627    1.284   .     A
C602   O630    1.284   .     A
C602   C611    1.420   .     S
C602   O628    1.284   .     A
C603   O631    1.278   .     A
C603   O633    1.280   .     A
C603   C605    1.403   .     S
C604   O634    1.280   .     A
C604   O632    1.278   .     A
C604   C606    1.403   .     S
C605   C686    1.330   1_455 S
C605   H697    1.088   1_455 S
C606   C645    1.330   .     S
C606   H658    1.088   .     S
C607   C612    1.397   .     A
C607   H619    1.084   .     S
C608   H620    1.084   .     S
C608   C611    1.397   .     A
C608   C370    1.370   1_565 S
C609   C611    1.397   .     A
C609   H621    1.084   .     S
C609   C367    1.370   1_565 S
C610   H622    1.084   .     S
C610   C612    1.397   .     A
C613   O637    1.378   .     S
C613   N626    1.369   .     A
C614   N625    1.369   .     A
C614   O639    1.378   .     S
C614   C976    1.426   .     S
C615   H623    1.082   .     S
C615   N625    1.365   .     A
C615   C973    1.426   .     S
C616   H624    1.082   .     S
C616   N626    1.365   .     A
H617   C645    1.088   .     S
H618   C686    1.088   1_455 S
N625   Zn635   2.011   .     S
N626   Zn636   2.011   .     S
O627   Zn635   2.001   .     S
O628   Zn636   2.001   .     S
O629   Zn636   2.000   .     S
O630   Zn635   2.000   .     S
O631   Zn635   1.971   .     S
O632   Zn636   1.971   .     S
O633   Zn636   1.982   .     S
O634   Zn635   1.982   .     S
O637   H638    0.992   .     S
O639   H640    0.992   .     S
C641   O669    1.284   .     A
C641   C652    1.420   .     S
C641   O667    1.284   .     A
C642   O670    1.284   .     A
C642   C651    1.420   .     S
C642   O668    1.284   .     A
C643   O671    1.278   .     A
C643   O673    1.280   .     A
C643   C645    1.403   .     S
C644   O674    1.280   .     A
C644   O672    1.278   .     A
C644   C646    1.403   .     S
C646   C685    1.330   .     S
C646   H698    1.088   .     S
C647   C652    1.397   .     A
C647   H659    1.084   .     S
C648   H660    1.084   .     S
C648   C651    1.397   .     A
C648   C410    1.370   1_565 S
C649   C651    1.397   .     A
C649   H661    1.084   .     S
C649   C407    1.370   1_565 S
C650   H662    1.084   .     S
C650   C652    1.397   .     A
C653   O677    1.378   .     S
C653   N666    1.369   .     A
C654   N665    1.369   .     A
C654   O679    1.378   .     S
C654   C1016   1.426   .     S
C655   H663    1.082   .     S
C655   N665    1.365   .     A
C655   C1013   1.426   .     S
C656   H664    1.082   .     S
C656   N666    1.365   .     A
H657   C685    1.088   .     S
N665   Zn675   2.011   .     S
N666   Zn676   2.011   .     S
O667   Zn675   2.001   .     S
O668   Zn676   2.001   .     S
O669   Zn676   2.000   .     S
O670   Zn675   2.000   .     S
O671   Zn675   1.971   .     S
O672   Zn676   1.971   .     S
O673   Zn676   1.982   .     S
O674   Zn675   1.982   .     S
O677   H678    0.992   .     S
O679   H680    0.992   .     S
C681   O709    1.284   .     A
C681   C692    1.420   .     S
C681   O707    1.284   .     A
C682   O710    1.284   .     A
C682   C691    1.420   .     S
C682   O708    1.284   .     A
C683   O711    1.278   .     A
C683   O713    1.280   .     A
C683   C685    1.403   .     S
C684   O714    1.280   .     A
C684   O712    1.278   .     A
C684   C686    1.403   .     S
C686   C605    1.330   1_655 S
C686   H618    1.088   1_655 S
C687   C692    1.397   .     A
C687   H699    1.084   .     S
C688   H700    1.084   .     S
C688   C691    1.397   .     A
C688   C450    1.370   1_565 S
C689   C691    1.397   .     A
C689   H701    1.084   .     S
C689   C447    1.370   1_565 S
C690   H702    1.084   .     S
C690   C692    1.397   .     A
C693   O717    1.378   .     S
C693   N706    1.369   .     A
C694   N705    1.369   .     A
C694   O719    1.378   .     S
C694   C1056   1.426   .     S
C695   H703    1.082   .     S
C695   N705    1.365   .     A
C695   C1053   1.426   .     S
C696   H704    1.082   .     S
C696   N706    1.365   .     A
H697   C605    1.088   1_655 S
N705   Zn715   2.011   .     S
N706   Zn716   2.011   .     S
O707   Zn715   2.001   .     S
O708   Zn716   2.001   .     S
O709   Zn716   2.000   .     S
O710   Zn715   2.000   .     S
O711   Zn715   1.971   .     S
O712   Zn716   1.971   .     S
O713   Zn716   1.982   .     S
O714   Zn715   1.982   .     S
O717   H718    0.992   .     S
O719   H720    0.992   .     S
C721   O749    1.284   .     A
C721   C732    1.420   .     S
C721   O747    1.284   .     A
C722   O750    1.284   .     A
C722   C731    1.420   .     S
C722   O748    1.284   .     A
C723   O751    1.278   .     A
C723   O753    1.280   .     A
C723   C725    1.403   .     S
C724   O754    1.280   .     A
C724   O752    1.278   .     A
C724   C726    1.403   .     S
C725   C806    1.330   1_455 S
C725   H817    1.088   1_455 S
C726   C765    1.330   .     S
C726   H778    1.088   .     S
C727   C732    1.397   .     A
C727   H739    1.084   .     S
C727   C969    1.370   1_545 S
C728   H740    1.084   .     S
C728   C731    1.397   .     A
C728   C850    1.370   .     S
C729   C731    1.397   .     A
C729   H741    1.084   .     S
C729   C847    1.370   .     S
C730   H742    1.084   .     S
C730   C732    1.397   .     A
C730   C968    1.370   1_545 S
C733   O757    1.378   .     S
C733   N746    1.369   .     A
C734   N745    1.369   .     A
C734   O759    1.378   .     S
C734   C16     1.426   1_556 S
C735   H743    1.082   .     S
C735   N745    1.365   .     A
C735   C13     1.426   1_556 S
C736   H744    1.082   .     S
C736   N746    1.365   .     A
H737   C765    1.088   .     S
H738   C806    1.088   1_455 S
N745   Zn755   2.011   .     S
N746   Zn756   2.011   .     S
O747   Zn755   2.001   .     S
O748   Zn756   2.001   .     S
O749   Zn756   2.000   .     S
O750   Zn755   2.000   .     S
O751   Zn755   1.971   .     S
O752   Zn756   1.971   .     S
O753   Zn756   1.982   .     S
O754   Zn755   1.982   .     S
O757   H758    0.992   .     S
O759   H760    0.992   .     S
C761   O789    1.284   .     A
C761   C772    1.420   .     S
C761   O787    1.284   .     A
C762   O790    1.284   .     A
C762   C771    1.420   .     S
C762   O788    1.284   .     A
C763   O791    1.278   .     A
C763   O793    1.280   .     A
C763   C765    1.403   .     S
C764   O794    1.280   .     A
C764   O792    1.278   .     A
C764   C766    1.403   .     S
C766   C805    1.330   .     S
C766   H818    1.088   .     S
C767   C772    1.397   .     A
C767   H779    1.084   .     S
C767   C1009   1.370   1_545 S
C768   H780    1.084   .     S
C768   C771    1.397   .     A
C768   C890    1.370   .     S
C769   C771    1.397   .     A
C769   H781    1.084   .     S
C769   C887    1.370   .     S
C770   H782    1.084   .     S
C770   C772    1.397   .     A
C770   C1008   1.370   1_545 S
C773   O797    1.378   .     S
C773   N786    1.369   .     A
C774   N785    1.369   .     A
C774   O799    1.378   .     S
C774   C56     1.426   1_556 S
C775   H783    1.082   .     S
C775   N785    1.365   .     A
C775   C53     1.426   1_556 S
C776   H784    1.082   .     S
C776   N786    1.365   .     A
H777   C805    1.088   .     S
N785   Zn795   2.011   .     S
N786   Zn796   2.011   .     S
O787   Zn795   2.001   .     S
O788   Zn796   2.001   .     S
O789   Zn796   2.000   .     S
O790   Zn795   2.000   .     S
O791   Zn795   1.971   .     S
O792   Zn796   1.971   .     S
O793   Zn796   1.982   .     S
O794   Zn795   1.982   .     S
O797   H798    0.992   .     S
O799   H800    0.992   .     S
C801   O829    1.284   .     A
C801   C812    1.420   .     S
C801   O827    1.284   .     A
C802   O830    1.284   .     A
C802   C811    1.420   .     S
C802   O828    1.284   .     A
C803   O831    1.278   .     A
C803   O833    1.280   .     A
C803   C805    1.403   .     S
C804   O834    1.280   .     A
C804   O832    1.278   .     A
C804   C806    1.403   .     S
C806   C725    1.330   1_655 S
C806   H738    1.088   1_655 S
C807   C812    1.397   .     A
C807   H819    1.084   .     S
C807   C1049   1.370   1_545 S
C808   H820    1.084   .     S
C808   C811    1.397   .     A
C808   C930    1.370   .     S
C809   C811    1.397   .     A
C809   H821    1.084   .     S
C809   C927    1.370   .     S
C810   H822    1.084   .     S
C810   C812    1.397   .     A
C810   C1048   1.370   1_545 S
C813   O837    1.378   .     S
C813   N826    1.369   .     A
C814   N825    1.369   .     A
C814   O839    1.378   .     S
C814   C96     1.426   1_556 S
C815   H823    1.082   .     S
C815   N825    1.365   .     A
C815   C93     1.426   1_556 S
C816   H824    1.082   .     S
C816   N826    1.365   .     A
H817   C725    1.088   1_655 S
N825   Zn835   2.011   .     S
N826   Zn836   2.011   .     S
O827   Zn835   2.001   .     S
O828   Zn836   2.001   .     S
O829   Zn836   2.000   .     S
O830   Zn835   2.000   .     S
O831   Zn835   1.971   .     S
O832   Zn836   1.971   .     S
O833   Zn836   1.982   .     S
O834   Zn835   1.982   .     S
O837   H838    0.992   .     S
O839   H840    0.992   .     S
C841   O869    1.284   .     A
C841   C852    1.420   .     S
C841   O867    1.284   .     A
C842   O870    1.284   .     A
C842   C851    1.420   .     S
C842   O868    1.284   .     A
C843   O871    1.278   .     A
C843   O873    1.280   .     A
C843   C845    1.403   .     S
C844   O874    1.280   .     A
C844   O872    1.278   .     A
C844   C846    1.403   .     S
C845   C926    1.330   1_455 S
C845   H937    1.088   1_455 S
C846   C885    1.330   .     S
C846   H898    1.088   .     S
C847   C852    1.397   .     A
C847   H859    1.084   .     S
C848   H860    1.084   .     S
C848   C851    1.397   .     A
C848   C970    1.370   .     S
C849   C851    1.397   .     A
C849   H861    1.084   .     S
C849   C967    1.370   .     S
C850   H862    1.084   .     S
C850   C852    1.397   .     A
C853   O877    1.378   .     S
C853   N866    1.369   .     A
C854   N865    1.369   .     A
C854   O879    1.378   .     S
C854   C136    1.426   1_556 S
C855   H863    1.082   .     S
C855   N865    1.365   .     A
C855   C133    1.426   1_556 S
C856   H864    1.082   .     S
C856   N866    1.365   .     A
H857   C885    1.088   .     S
H858   C926    1.088   1_455 S
N865   Zn875   2.011   .     S
N866   Zn876   2.011   .     S
O867   Zn875   2.001   .     S
O868   Zn876   2.001   .     S
O869   Zn876   2.000   .     S
O870   Zn875   2.000   .     S
O871   Zn875   1.971   .     S
O872   Zn876   1.971   .     S
O873   Zn876   1.982   .     S
O874   Zn875   1.982   .     S
O877   H878    0.992   .     S
O879   H880    0.992   .     S
C881   O909    1.284   .     A
C881   C892    1.420   .     S
C881   O907    1.284   .     A
C882   O910    1.284   .     A
C882   C891    1.420   .     S
C882   O908    1.284   .     A
C883   O911    1.278   .     A
C883   O913    1.280   .     A
C883   C885    1.403   .     S
C884   O914    1.280   .     A
C884   O912    1.278   .     A
C884   C886    1.403   .     S
C886   C925    1.330   .     S
C886   H938    1.088   .     S
C887   C892    1.397   .     A
C887   H899    1.084   .     S
C888   H900    1.084   .     S
C888   C891    1.397   .     A
C888   C1010   1.370   .     S
C889   C891    1.397   .     A
C889   H901    1.084   .     S
C889   C1007   1.370   .     S
C890   H902    1.084   .     S
C890   C892    1.397   .     A
C893   O917    1.378   .     S
C893   N906    1.369   .     A
C894   N905    1.369   .     A
C894   O919    1.378   .     S
C894   C176    1.426   1_556 S
C895   H903    1.082   .     S
C895   N905    1.365   .     A
C895   C173    1.426   1_556 S
C896   H904    1.082   .     S
C896   N906    1.365   .     A
H897   C925    1.088   .     S
N905   Zn915   2.011   .     S
N906   Zn916   2.011   .     S
O907   Zn915   2.001   .     S
O908   Zn916   2.001   .     S
O909   Zn916   2.000   .     S
O910   Zn915   2.000   .     S
O911   Zn915   1.971   .     S
O912   Zn916   1.971   .     S
O913   Zn916   1.982   .     S
O914   Zn915   1.982   .     S
O917   H918    0.992   .     S
O919   H920    0.992   .     S
C921   O949    1.284   .     A
C921   C932    1.420   .     S
C921   O947    1.284   .     A
C922   O950    1.284   .     A
C922   C931    1.420   .     S
C922   O948    1.284   .     A
C923   O951    1.278   .     A
C923   O953    1.280   .     A
C923   C925    1.403   .     S
C924   O954    1.280   .     A
C924   O952    1.278   .     A
C924   C926    1.403   .     S
C926   C845    1.330   1_655 S
C926   H858    1.088   1_655 S
C927   C932    1.397   .     A
C927   H939    1.084   .     S
C928   H940    1.084   .     S
C928   C931    1.397   .     A
C928   C1050   1.370   .     S
C929   C931    1.397   .     A
C929   H941    1.084   .     S
C929   C1047   1.370   .     S
C930   H942    1.084   .     S
C930   C932    1.397   .     A
C933   O957    1.378   .     S
C933   N946    1.369   .     A
C934   N945    1.369   .     A
C934   O959    1.378   .     S
C934   C216    1.426   1_556 S
C935   H943    1.082   .     S
C935   N945    1.365   .     A
C935   C213    1.426   1_556 S
C936   H944    1.082   .     S
C936   N946    1.365   .     A
H937   C845    1.088   1_655 S
N945   Zn955   2.011   .     S
N946   Zn956   2.011   .     S
O947   Zn955   2.001   .     S
O948   Zn956   2.001   .     S
O949   Zn956   2.000   .     S
O950   Zn955   2.000   .     S
O951   Zn955   1.971   .     S
O952   Zn956   1.971   .     S
O953   Zn956   1.982   .     S
O954   Zn955   1.982   .     S
O957   H958    0.992   .     S
O959   H960    0.992   .     S
C961   O989    1.284   .     A
C961   C972    1.420   .     S
C961   O987    1.284   .     A
C962   O990    1.284   .     A
C962   C971    1.420   .     S
C962   O988    1.284   .     A
C963   O991    1.278   .     A
C963   O993    1.280   .     A
C963   C965    1.403   .     S
C964   O994    1.280   .     A
C964   O992    1.278   .     A
C964   C966    1.403   .     S
C965   C1046   1.330   1_455 S
C965   H1057   1.088   1_455 S
C966   C1005   1.330   .     S
C966   H1018   1.088   .     S
C967   C972    1.397   .     A
C967   H979    1.084   .     S
C968   H980    1.084   .     S
C968   C971    1.397   .     A
C968   C730    1.370   1_565 S
C969   C971    1.397   .     A
C969   H981    1.084   .     S
C969   C727    1.370   1_565 S
C970   H982    1.084   .     S
C970   C972    1.397   .     A
C973   O997    1.378   .     S
C973   N986    1.369   .     A
C974   N985    1.369   .     A
C974   O999    1.378   .     S
C974   C256    1.426   1_556 S
C975   H983    1.082   .     S
C975   N985    1.365   .     A
C975   C253    1.426   1_556 S
C976   H984    1.082   .     S
C976   N986    1.365   .     A
H977   C1005   1.088   .     S
H978   C1046   1.088   1_455 S
N985   Zn995   2.011   .     S
N986   Zn996   2.011   .     S
O987   Zn995   2.001   .     S
O988   Zn996   2.001   .     S
O989   Zn996   2.000   .     S
O990   Zn995   2.000   .     S
O991   Zn995   1.971   .     S
O992   Zn996   1.971   .     S
O993   Zn996   1.982   .     S
O994   Zn995   1.982   .     S
O997   H998    0.992   .     S
O999   H1000   0.992   .     S
C1001  O1029   1.284   .     A
C1001  C1012   1.420   .     S
C1001  O1027   1.284   .     A
C1002  O1030   1.284   .     A
C1002  C1011   1.420   .     S
C1002  O1028   1.284   .     A
C1003  O1031   1.278   .     A
C1003  O1033   1.280   .     A
C1003  C1005   1.403   .     S
C1004  O1034   1.280   .     A
C1004  O1032   1.278   .     A
C1004  C1006   1.403   .     S
C1006  C1045   1.330   .     S
C1006  H1058   1.088   .     S
C1007  C1012   1.397   .     A
C1007  H1019   1.084   .     S
C1008  H1020   1.084   .     S
C1008  C1011   1.397   .     A
C1008  C770    1.370   1_565 S
C1009  C1011   1.397   .     A
C1009  H1021   1.084   .     S
C1009  C767    1.370   1_565 S
C1010  H1022   1.084   .     S
C1010  C1012   1.397   .     A
C1013  O1037   1.378   .     S
C1013  N1026   1.369   .     A
C1014  N1025   1.369   .     A
C1014  O1039   1.378   .     S
C1014  C296    1.426   1_556 S
C1015  H1023   1.082   .     S
C1015  N1025   1.365   .     A
C1015  C293    1.426   1_556 S
C1016  H1024   1.082   .     S
C1016  N1026   1.365   .     A
H1017  C1045   1.088   .     S
N1025  Zn1035  2.011   .     S
N1026  Zn1036  2.011   .     S
O1027  Zn1035  2.001   .     S
O1028  Zn1036  2.001   .     S
O1029  Zn1036  2.000   .     S
O1030  Zn1035  2.000   .     S
O1031  Zn1035  1.971   .     S
O1032  Zn1036  1.971   .     S
O1033  Zn1036  1.982   .     S
O1034  Zn1035  1.982   .     S
O1037  H1038   0.992   .     S
O1039  H1040   0.992   .     S
C1041  O1069   1.284   .     A
C1041  C1052   1.420   .     S
C1041  O1067   1.284   .     A
C1042  O1070   1.284   .     A
C1042  C1051   1.420   .     S
C1042  O1068   1.284   .     A
C1043  O1071   1.278   .     A
C1043  O1073   1.280   .     A
C1043  C1045   1.403   .     S
C1044  O1074   1.280   .     A
C1044  O1072   1.278   .     A
C1044  C1046   1.403   .     S
C1046  C965    1.330   1_655 S
C1046  H978    1.088   1_655 S
C1047  C1052   1.397   .     A
C1047  H1059   1.084   .     S
C1048  H1060   1.084   .     S
C1048  C1051   1.397   .     A
C1048  C810    1.370   1_565 S
C1049  C1051   1.397   .     A
C1049  H1061   1.084   .     S
C1049  C807    1.370   1_565 S
C1050  H1062   1.084   .     S
C1050  C1052   1.397   .     A
C1053  O1077   1.378   .     S
C1053  N1066   1.369   .     A
C1054  N1065   1.369   .     A
C1054  O1079   1.378   .     S
C1054  C336    1.426   1_556 S
C1055  H1063   1.082   .     S
C1055  N1065   1.365   .     A
C1055  C333    1.426   1_556 S
C1056  H1064   1.082   .     S
C1056  N1066   1.365   .     A
H1057  C965    1.088   1_655 S
N1065  Zn1075  2.011   .     S
N1066  Zn1076  2.011   .     S
O1067  Zn1075  2.001   .     S
O1068  Zn1076  2.001   .     S
O1069  Zn1076  2.000   .     S
O1070  Zn1075  2.000   .     S
O1071  Zn1075  1.971   .     S
O1072  Zn1076  1.971   .     S
O1073  Zn1076  1.982   .     S
O1074  Zn1075  1.982   .     S
O1077  H1078   0.992   .     S
O1079  H1080   0.992   .     S
