data_str_m3_o10_o18_pcu_sym.115
_audit_creation_date              2020-01-03
_audit_creation_method            'Materials Studio'
_symmetry_space_group_name_H-M    'P1'
_symmetry_Int_Tables_number       1
_symmetry_cell_setting            triclinic
loop_
_symmetry_equiv_pos_as_xyz
  x,y,z
_cell_length_a                    23.4663
_cell_length_b                    25.6957
_cell_length_c                    27.3584
_cell_angle_alpha                 93.0121
_cell_angle_beta                  93.7292
_cell_angle_gamma                 94.1444
loop_
_atom_site_label
_atom_site_type_symbol
_atom_site_fract_x
_atom_site_fract_y
_atom_site_fract_z
_atom_site_U_iso_or_equiv
_atom_site_adp_type
_atom_site_occupancy
C1     C     0.01507   0.26491   0.24884   0.00000  Uiso   1.00
C2     C     0.31229   0.16518   0.15864   0.00000  Uiso   1.00
C3     C     0.03520   0.18802   0.39234   0.00000  Uiso   1.00
C4     C     0.30342   0.16858   0.10528   0.00000  Uiso   1.00
C5     C     0.04254   0.26214   0.45123   0.00000  Uiso   1.00
C6     C     0.32619   0.13640   0.02469   0.00000  Uiso   1.00
C7     C     0.01417   0.23430   0.41075   0.00000  Uiso   1.00
C8     C     0.00598   0.14240   0.07492   0.00000  Uiso   1.00
C9     C     0.08132   0.16699   0.41705   0.00000  Uiso   1.00
C10    C     0.25773   0.19512   0.08445   0.00000  Uiso   1.00
C11    C     0.11669   0.20009   0.45102   0.00000  Uiso   1.00
C12    C     0.31828   0.06843   0.25126   0.00000  Uiso   1.00
C13    C     0.24603   0.19122   0.03278   0.00000  Uiso   1.00
C14    C     0.09500   0.24654   0.47032   0.00000  Uiso   1.00
C15    C     0.27773   0.15755   0.00398   0.00000  Uiso   1.00
C16    C     0.17322   0.18935   0.46573   0.00000  Uiso   1.00
C17    C     0.19938   0.21433   0.00927   0.00000  Uiso   1.00
C18    C     0.21894   0.22089   0.11742   0.00000  Uiso   1.00
C19    C     0.08689   0.10961   0.41014   0.00000  Uiso   1.00
C20    C     0.17858   0.26149   0.02676   0.00000  Uiso   1.00
C21    C     0.20594   0.15740   0.43690   0.00000  Uiso   1.00
C22    C     0.12713   0.27768   0.00705   0.00000  Uiso   1.00
C23    C     0.25878   0.14323   0.45536   0.00000  Uiso   1.00
C24    C     0.02293   0.31948   0.24824   0.00000  Uiso   1.00
C25    C     0.31044   0.01386   0.25200   0.00000  Uiso   1.00
C26    C     0.02156   0.17155   0.34115   0.00000  Uiso   1.00
H27    H     0.11205   0.31407   0.02110   0.00000  Uiso   1.00
H28    H     0.26726   0.33003   0.25555   0.00000  Uiso   1.00
H29    H     0.16231   0.12487   0.21375   0.00000  Uiso   1.00
H30    H     0.17102   0.20846   0.28625   0.00000  Uiso   1.00
H31    H     0.23638   0.25087   0.14488   0.00000  Uiso   1.00
H32    H     0.06851   0.08792   0.37706   0.00000  Uiso   1.00
H33    H     0.28277   0.11799   0.43278   0.00000  Uiso   1.00
H34    H     0.04191   0.12308   0.09043   0.00000  Uiso   1.00
H35    H     0.31121   0.25044   0.39211   0.00000  Uiso   1.00
H36    H     0.02595   0.29794   0.46502   0.00000  Uiso   1.00
H37    H     0.01860   0.11247   0.00250   0.00000  Uiso   1.00
H38    H     0.20260   0.28678   0.05486   0.00000  Uiso   1.00
H39    H     0.19137   0.14397   0.39974   0.00000  Uiso   1.00
H40    H     0.06611   0.00331   0.24469   0.00000  Uiso   1.00
N41    N     0.14695   0.15216   0.23739   0.00000  Uiso   1.00
N42    N     0.18638   0.18117   0.26260   0.00000  Uiso   1.00
O43    O     0.29719   0.24631   0.25309   0.00000  Uiso   1.00
O44    O     0.10884   0.08536   0.44269   0.00000  Uiso   1.00
O45    O     0.03614   0.08702   0.24690   0.00000  Uiso   1.00
O46    O     0.05822   0.23702   0.24501   0.00000  Uiso   1.00
O47    O     0.27512   0.09632   0.25498   0.00000  Uiso   1.00
O48    O     0.30328   0.17397   0.32247   0.00000  Uiso   1.00
O49    O     0.03005   0.15937   0.17753   0.00000  Uiso   1.00
O50    O     0.06431   0.16467   0.31439   0.00000  Uiso   1.00
O51    O     0.26902   0.16866   0.18561   0.00000  Uiso   1.00
O52    O     0.16791   0.20700   0.11552   0.00000  Uiso   1.00
Zn53   Zn    0.27033   0.17287   0.25539   0.00000  Uiso   1.00
Zn54   Zn    0.06300   0.16046   0.24460   0.00000  Uiso   1.00
C55    C     0.34840   0.26491   0.24884   0.00000  Uiso   1.00
C56    C     0.64563   0.16518   0.15864   0.00000  Uiso   1.00
C57    C     0.36854   0.18802   0.39234   0.00000  Uiso   1.00
C58    C     0.63675   0.16858   0.10528   0.00000  Uiso   1.00
C59    C     0.37587   0.26214   0.45123   0.00000  Uiso   1.00
C60    C     0.65952   0.13640   0.02469   0.00000  Uiso   1.00
C61    C     0.34750   0.23430   0.41075   0.00000  Uiso   1.00
C62    C     0.33931   0.14240   0.07492   0.00000  Uiso   1.00
C63    C     0.41465   0.16699   0.41705   0.00000  Uiso   1.00
C64    C     0.59107   0.19512   0.08445   0.00000  Uiso   1.00
C65    C     0.45003   0.20009   0.45102   0.00000  Uiso   1.00
C66    C     0.65161   0.06843   0.25126   0.00000  Uiso   1.00
C67    C     0.57936   0.19122   0.03278   0.00000  Uiso   1.00
C68    C     0.42834   0.24654   0.47032   0.00000  Uiso   1.00
C69    C     0.61106   0.15755   0.00398   0.00000  Uiso   1.00
C70    C     0.50655   0.18935   0.46573   0.00000  Uiso   1.00
C71    C     0.53272   0.21433   0.00927   0.00000  Uiso   1.00
C72    C     0.55228   0.22089   0.11742   0.00000  Uiso   1.00
C73    C     0.42022   0.10961   0.41014   0.00000  Uiso   1.00
C74    C     0.51191   0.26149   0.02676   0.00000  Uiso   1.00
C75    C     0.53927   0.15740   0.43690   0.00000  Uiso   1.00
C76    C     0.46046   0.27768   0.00705   0.00000  Uiso   1.00
C77    C     0.59211   0.14323   0.45536   0.00000  Uiso   1.00
C78    C     0.35626   0.31948   0.24824   0.00000  Uiso   1.00
C79    C     0.64377   0.01386   0.25200   0.00000  Uiso   1.00
C80    C     0.35490   0.17155   0.34115   0.00000  Uiso   1.00
H81    H     0.44539   0.31407   0.02110   0.00000  Uiso   1.00
H82    H     0.60060   0.33003   0.25555   0.00000  Uiso   1.00
H83    H     0.49565   0.12487   0.21375   0.00000  Uiso   1.00
H84    H     0.50436   0.20846   0.28625   0.00000  Uiso   1.00
H85    H     0.56972   0.25087   0.14488   0.00000  Uiso   1.00
H86    H     0.40184   0.08792   0.37706   0.00000  Uiso   1.00
H87    H     0.61610   0.11799   0.43278   0.00000  Uiso   1.00
H88    H     0.37525   0.12308   0.09043   0.00000  Uiso   1.00
H89    H     0.64454   0.25044   0.39211   0.00000  Uiso   1.00
H90    H     0.35928   0.29794   0.46502   0.00000  Uiso   1.00
H91    H     0.35193   0.11247   0.00250   0.00000  Uiso   1.00
H92    H     0.53593   0.28678   0.05486   0.00000  Uiso   1.00
H93    H     0.52470   0.14397   0.39974   0.00000  Uiso   1.00
H94    H     0.39944   0.00331   0.24469   0.00000  Uiso   1.00
N95    N     0.48029   0.15216   0.23739   0.00000  Uiso   1.00
N96    N     0.51971   0.18117   0.26260   0.00000  Uiso   1.00
O97    O     0.63052   0.24631   0.25309   0.00000  Uiso   1.00
O98    O     0.44217   0.08536   0.44269   0.00000  Uiso   1.00
O99    O     0.36948   0.08702   0.24690   0.00000  Uiso   1.00
O100   O     0.39155   0.23702   0.24501   0.00000  Uiso   1.00
O101   O     0.60845   0.09632   0.25498   0.00000  Uiso   1.00
O102   O     0.63662   0.17397   0.32247   0.00000  Uiso   1.00
O103   O     0.36338   0.15937   0.17753   0.00000  Uiso   1.00
O104   O     0.39764   0.16467   0.31439   0.00000  Uiso   1.00
O105   O     0.60236   0.16866   0.18561   0.00000  Uiso   1.00
O106   O     0.50124   0.20700   0.11552   0.00000  Uiso   1.00
Zn107  Zn    0.60366   0.17287   0.25539   0.00000  Uiso   1.00
Zn108  Zn    0.39634   0.16046   0.24460   0.00000  Uiso   1.00
C109   C     0.68174   0.26491   0.24884   0.00000  Uiso   1.00
C110   C     0.97896   0.16518   0.15864   0.00000  Uiso   1.00
C111   C     0.70187   0.18802   0.39234   0.00000  Uiso   1.00
C112   C     0.97008   0.16858   0.10528   0.00000  Uiso   1.00
C113   C     0.70921   0.26214   0.45123   0.00000  Uiso   1.00
C114   C     0.99286   0.13640   0.02469   0.00000  Uiso   1.00
C115   C     0.68083   0.23430   0.41075   0.00000  Uiso   1.00
C116   C     0.67264   0.14240   0.07492   0.00000  Uiso   1.00
C117   C     0.74798   0.16699   0.41705   0.00000  Uiso   1.00
C118   C     0.92440   0.19512   0.08445   0.00000  Uiso   1.00
C119   C     0.78336   0.20009   0.45102   0.00000  Uiso   1.00
C120   C     0.98495   0.06843   0.25126   0.00000  Uiso   1.00
C121   C     0.91269   0.19122   0.03278   0.00000  Uiso   1.00
C122   C     0.76167   0.24654   0.47032   0.00000  Uiso   1.00
C123   C     0.94439   0.15755   0.00398   0.00000  Uiso   1.00
C124   C     0.83989   0.18935   0.46573   0.00000  Uiso   1.00
C125   C     0.86605   0.21433   0.00927   0.00000  Uiso   1.00
C126   C     0.88561   0.22089   0.11742   0.00000  Uiso   1.00
C127   C     0.75356   0.10961   0.41014   0.00000  Uiso   1.00
C128   C     0.84525   0.26149   0.02676   0.00000  Uiso   1.00
C129   C     0.87260   0.15740   0.43690   0.00000  Uiso   1.00
C130   C     0.79380   0.27768   0.00705   0.00000  Uiso   1.00
C131   C     0.92545   0.14323   0.45536   0.00000  Uiso   1.00
C132   C     0.68960   0.31948   0.24824   0.00000  Uiso   1.00
C133   C     0.97711   0.01386   0.25200   0.00000  Uiso   1.00
C134   C     0.68823   0.17155   0.34115   0.00000  Uiso   1.00
H135   H     0.77872   0.31407   0.02110   0.00000  Uiso   1.00
H136   H     0.93393   0.33003   0.25555   0.00000  Uiso   1.00
H137   H     0.82898   0.12487   0.21375   0.00000  Uiso   1.00
H138   H     0.83769   0.20846   0.28625   0.00000  Uiso   1.00
H139   H     0.90305   0.25087   0.14488   0.00000  Uiso   1.00
H140   H     0.73518   0.08792   0.37706   0.00000  Uiso   1.00
H141   H     0.94943   0.11799   0.43278   0.00000  Uiso   1.00
H142   H     0.70858   0.12308   0.09043   0.00000  Uiso   1.00
H143   H     0.97788   0.25044   0.39211   0.00000  Uiso   1.00
H144   H     0.69261   0.29794   0.46502   0.00000  Uiso   1.00
H145   H     0.68527   0.11247   0.00250   0.00000  Uiso   1.00
H146   H     0.86927   0.28678   0.05486   0.00000  Uiso   1.00
H147   H     0.85803   0.14397   0.39974   0.00000  Uiso   1.00
H148   H     0.73277   0.00331   0.24469   0.00000  Uiso   1.00
N149   N     0.81362   0.15216   0.23739   0.00000  Uiso   1.00
N150   N     0.85305   0.18117   0.26260   0.00000  Uiso   1.00
O151   O     0.96386   0.24631   0.25309   0.00000  Uiso   1.00
O152   O     0.77550   0.08536   0.44269   0.00000  Uiso   1.00
O153   O     0.70281   0.08702   0.24690   0.00000  Uiso   1.00
O154   O     0.72488   0.23702   0.24501   0.00000  Uiso   1.00
O155   O     0.94178   0.09632   0.25498   0.00000  Uiso   1.00
O156   O     0.96995   0.17397   0.32247   0.00000  Uiso   1.00
O157   O     0.69672   0.15937   0.17753   0.00000  Uiso   1.00
O158   O     0.73098   0.16467   0.31439   0.00000  Uiso   1.00
O159   O     0.93569   0.16866   0.18561   0.00000  Uiso   1.00
O160   O     0.83458   0.20700   0.11552   0.00000  Uiso   1.00
Zn161  Zn    0.93700   0.17287   0.25539   0.00000  Uiso   1.00
Zn162  Zn    0.72967   0.16046   0.24460   0.00000  Uiso   1.00
C163   C     0.01507   0.59824   0.24884   0.00000  Uiso   1.00
C164   C     0.31229   0.49852   0.15864   0.00000  Uiso   1.00
C165   C     0.03520   0.52135   0.39234   0.00000  Uiso   1.00
C166   C     0.30342   0.50192   0.10528   0.00000  Uiso   1.00
C167   C     0.04254   0.59547   0.45123   0.00000  Uiso   1.00
C168   C     0.32619   0.46974   0.02469   0.00000  Uiso   1.00
C169   C     0.01417   0.56763   0.41075   0.00000  Uiso   1.00
C170   C     0.00598   0.47574   0.07492   0.00000  Uiso   1.00
C171   C     0.08132   0.50032   0.41705   0.00000  Uiso   1.00
C172   C     0.25773   0.52845   0.08445   0.00000  Uiso   1.00
C173   C     0.11669   0.53343   0.45102   0.00000  Uiso   1.00
C174   C     0.31828   0.40176   0.25126   0.00000  Uiso   1.00
C175   C     0.24603   0.52455   0.03278   0.00000  Uiso   1.00
C176   C     0.09500   0.57987   0.47032   0.00000  Uiso   1.00
C177   C     0.27773   0.49088   0.00398   0.00000  Uiso   1.00
C178   C     0.17322   0.52268   0.46573   0.00000  Uiso   1.00
C179   C     0.19938   0.54766   0.00927   0.00000  Uiso   1.00
C180   C     0.21894   0.55423   0.11742   0.00000  Uiso   1.00
C181   C     0.08689   0.44295   0.41014   0.00000  Uiso   1.00
C182   C     0.17858   0.59482   0.02676   0.00000  Uiso   1.00
C183   C     0.20594   0.49074   0.43690   0.00000  Uiso   1.00
C184   C     0.12713   0.61102   0.00705   0.00000  Uiso   1.00
C185   C     0.25878   0.47656   0.45536   0.00000  Uiso   1.00
C186   C     0.02293   0.65281   0.24824   0.00000  Uiso   1.00
C187   C     0.31044   0.34720   0.25200   0.00000  Uiso   1.00
C188   C     0.02156   0.50488   0.34115   0.00000  Uiso   1.00
H189   H     0.11205   0.64741   0.02110   0.00000  Uiso   1.00
H190   H     0.26726   0.66336   0.25555   0.00000  Uiso   1.00
H191   H     0.16231   0.45821   0.21375   0.00000  Uiso   1.00
H192   H     0.17102   0.54180   0.28625   0.00000  Uiso   1.00
H193   H     0.23638   0.58420   0.14488   0.00000  Uiso   1.00
H194   H     0.06851   0.42126   0.37706   0.00000  Uiso   1.00
H195   H     0.28277   0.45132   0.43278   0.00000  Uiso   1.00
H196   H     0.04191   0.45641   0.09043   0.00000  Uiso   1.00
H197   H     0.31121   0.58377   0.39211   0.00000  Uiso   1.00
H198   H     0.02595   0.63127   0.46502   0.00000  Uiso   1.00
H199   H     0.01860   0.44580   0.00250   0.00000  Uiso   1.00
H200   H     0.20260   0.62011   0.05486   0.00000  Uiso   1.00
H201   H     0.19137   0.47731   0.39974   0.00000  Uiso   1.00
H202   H     0.06611   0.33664   0.24469   0.00000  Uiso   1.00
N203   N     0.14695   0.48550   0.23739   0.00000  Uiso   1.00
N204   N     0.18638   0.51450   0.26260   0.00000  Uiso   1.00
O205   O     0.29719   0.57964   0.25309   0.00000  Uiso   1.00
O206   O     0.10884   0.41869   0.44269   0.00000  Uiso   1.00
O207   O     0.03614   0.42036   0.24690   0.00000  Uiso   1.00
O208   O     0.05822   0.57035   0.24501   0.00000  Uiso   1.00
O209   O     0.27512   0.42965   0.25498   0.00000  Uiso   1.00
O210   O     0.30328   0.50730   0.32247   0.00000  Uiso   1.00
O211   O     0.03005   0.49270   0.17753   0.00000  Uiso   1.00
O212   O     0.06431   0.49801   0.31439   0.00000  Uiso   1.00
O213   O     0.26902   0.50199   0.18561   0.00000  Uiso   1.00
O214   O     0.16791   0.54033   0.11552   0.00000  Uiso   1.00
Zn215  Zn    0.27033   0.50621   0.25539   0.00000  Uiso   1.00
Zn216  Zn    0.06300   0.49379   0.24460   0.00000  Uiso   1.00
C217   C     0.34840   0.59824   0.24884   0.00000  Uiso   1.00
C218   C     0.64563   0.49852   0.15864   0.00000  Uiso   1.00
C219   C     0.36854   0.52135   0.39234   0.00000  Uiso   1.00
C220   C     0.63675   0.50192   0.10528   0.00000  Uiso   1.00
C221   C     0.37587   0.59547   0.45123   0.00000  Uiso   1.00
C222   C     0.65952   0.46974   0.02469   0.00000  Uiso   1.00
C223   C     0.34750   0.56763   0.41075   0.00000  Uiso   1.00
C224   C     0.33931   0.47574   0.07492   0.00000  Uiso   1.00
C225   C     0.41465   0.50032   0.41705   0.00000  Uiso   1.00
C226   C     0.59107   0.52845   0.08445   0.00000  Uiso   1.00
C227   C     0.45003   0.53343   0.45102   0.00000  Uiso   1.00
C228   C     0.65161   0.40176   0.25126   0.00000  Uiso   1.00
C229   C     0.57936   0.52455   0.03278   0.00000  Uiso   1.00
C230   C     0.42834   0.57987   0.47032   0.00000  Uiso   1.00
C231   C     0.61106   0.49088   0.00398   0.00000  Uiso   1.00
C232   C     0.50655   0.52268   0.46573   0.00000  Uiso   1.00
C233   C     0.53272   0.54766   0.00927   0.00000  Uiso   1.00
C234   C     0.55228   0.55423   0.11742   0.00000  Uiso   1.00
C235   C     0.42022   0.44295   0.41014   0.00000  Uiso   1.00
C236   C     0.51191   0.59482   0.02676   0.00000  Uiso   1.00
C237   C     0.53927   0.49074   0.43690   0.00000  Uiso   1.00
C238   C     0.46046   0.61102   0.00705   0.00000  Uiso   1.00
C239   C     0.59211   0.47656   0.45536   0.00000  Uiso   1.00
C240   C     0.35626   0.65281   0.24824   0.00000  Uiso   1.00
C241   C     0.64377   0.34720   0.25200   0.00000  Uiso   1.00
C242   C     0.35490   0.50488   0.34115   0.00000  Uiso   1.00
H243   H     0.44539   0.64741   0.02110   0.00000  Uiso   1.00
H244   H     0.60060   0.66336   0.25555   0.00000  Uiso   1.00
H245   H     0.49565   0.45821   0.21375   0.00000  Uiso   1.00
H246   H     0.50436   0.54180   0.28625   0.00000  Uiso   1.00
H247   H     0.56972   0.58420   0.14488   0.00000  Uiso   1.00
H248   H     0.40184   0.42126   0.37706   0.00000  Uiso   1.00
H249   H     0.61610   0.45132   0.43278   0.00000  Uiso   1.00
H250   H     0.37525   0.45641   0.09043   0.00000  Uiso   1.00
H251   H     0.64454   0.58377   0.39211   0.00000  Uiso   1.00
H252   H     0.35928   0.63127   0.46502   0.00000  Uiso   1.00
H253   H     0.35193   0.44580   0.00250   0.00000  Uiso   1.00
H254   H     0.53593   0.62011   0.05486   0.00000  Uiso   1.00
H255   H     0.52470   0.47731   0.39974   0.00000  Uiso   1.00
H256   H     0.39944   0.33664   0.24469   0.00000  Uiso   1.00
N257   N     0.48029   0.48550   0.23739   0.00000  Uiso   1.00
N258   N     0.51971   0.51450   0.26260   0.00000  Uiso   1.00
O259   O     0.63052   0.57964   0.25309   0.00000  Uiso   1.00
O260   O     0.44217   0.41869   0.44269   0.00000  Uiso   1.00
O261   O     0.36948   0.42036   0.24690   0.00000  Uiso   1.00
O262   O     0.39155   0.57035   0.24501   0.00000  Uiso   1.00
O263   O     0.60845   0.42965   0.25498   0.00000  Uiso   1.00
O264   O     0.63662   0.50730   0.32247   0.00000  Uiso   1.00
O265   O     0.36338   0.49270   0.17753   0.00000  Uiso   1.00
O266   O     0.39764   0.49801   0.31439   0.00000  Uiso   1.00
O267   O     0.60236   0.50199   0.18561   0.00000  Uiso   1.00
O268   O     0.50124   0.54033   0.11552   0.00000  Uiso   1.00
Zn269  Zn    0.60366   0.50621   0.25539   0.00000  Uiso   1.00
Zn270  Zn    0.39634   0.49379   0.24460   0.00000  Uiso   1.00
C271   C     0.68174   0.59824   0.24884   0.00000  Uiso   1.00
C272   C     0.97896   0.49852   0.15864   0.00000  Uiso   1.00
C273   C     0.70187   0.52135   0.39234   0.00000  Uiso   1.00
C274   C     0.97008   0.50192   0.10528   0.00000  Uiso   1.00
C275   C     0.70921   0.59547   0.45123   0.00000  Uiso   1.00
C276   C     0.99286   0.46974   0.02469   0.00000  Uiso   1.00
C277   C     0.68083   0.56763   0.41075   0.00000  Uiso   1.00
C278   C     0.67264   0.47574   0.07492   0.00000  Uiso   1.00
C279   C     0.74798   0.50032   0.41705   0.00000  Uiso   1.00
C280   C     0.92440   0.52845   0.08445   0.00000  Uiso   1.00
C281   C     0.78336   0.53343   0.45102   0.00000  Uiso   1.00
C282   C     0.98495   0.40176   0.25126   0.00000  Uiso   1.00
C283   C     0.91269   0.52455   0.03278   0.00000  Uiso   1.00
C284   C     0.76167   0.57987   0.47032   0.00000  Uiso   1.00
C285   C     0.94439   0.49088   0.00398   0.00000  Uiso   1.00
C286   C     0.83989   0.52268   0.46573   0.00000  Uiso   1.00
C287   C     0.86605   0.54766   0.00927   0.00000  Uiso   1.00
C288   C     0.88561   0.55423   0.11742   0.00000  Uiso   1.00
C289   C     0.75356   0.44295   0.41014   0.00000  Uiso   1.00
C290   C     0.84525   0.59482   0.02676   0.00000  Uiso   1.00
C291   C     0.87260   0.49074   0.43690   0.00000  Uiso   1.00
C292   C     0.79380   0.61102   0.00705   0.00000  Uiso   1.00
C293   C     0.92545   0.47656   0.45536   0.00000  Uiso   1.00
C294   C     0.68960   0.65281   0.24824   0.00000  Uiso   1.00
C295   C     0.97711   0.34720   0.25200   0.00000  Uiso   1.00
C296   C     0.68823   0.50488   0.34115   0.00000  Uiso   1.00
H297   H     0.77872   0.64741   0.02110   0.00000  Uiso   1.00
H298   H     0.93393   0.66336   0.25555   0.00000  Uiso   1.00
H299   H     0.82898   0.45821   0.21375   0.00000  Uiso   1.00
H300   H     0.83769   0.54180   0.28625   0.00000  Uiso   1.00
H301   H     0.90305   0.58420   0.14488   0.00000  Uiso   1.00
H302   H     0.73518   0.42126   0.37706   0.00000  Uiso   1.00
H303   H     0.94943   0.45132   0.43278   0.00000  Uiso   1.00
H304   H     0.70858   0.45641   0.09043   0.00000  Uiso   1.00
H305   H     0.97788   0.58377   0.39211   0.00000  Uiso   1.00
H306   H     0.69261   0.63127   0.46502   0.00000  Uiso   1.00
H307   H     0.68527   0.44580   0.00250   0.00000  Uiso   1.00
H308   H     0.86927   0.62011   0.05486   0.00000  Uiso   1.00
H309   H     0.85803   0.47731   0.39974   0.00000  Uiso   1.00
H310   H     0.73277   0.33664   0.24469   0.00000  Uiso   1.00
N311   N     0.81362   0.48550   0.23739   0.00000  Uiso   1.00
N312   N     0.85305   0.51450   0.26260   0.00000  Uiso   1.00
O313   O     0.96386   0.57964   0.25309   0.00000  Uiso   1.00
O314   O     0.77550   0.41869   0.44269   0.00000  Uiso   1.00
O315   O     0.70281   0.42036   0.24690   0.00000  Uiso   1.00
O316   O     0.72488   0.57035   0.24501   0.00000  Uiso   1.00
O317   O     0.94178   0.42965   0.25498   0.00000  Uiso   1.00
O318   O     0.96995   0.50730   0.32247   0.00000  Uiso   1.00
O319   O     0.69672   0.49270   0.17753   0.00000  Uiso   1.00
O320   O     0.73098   0.49801   0.31439   0.00000  Uiso   1.00
O321   O     0.93569   0.50199   0.18561   0.00000  Uiso   1.00
O322   O     0.83458   0.54033   0.11552   0.00000  Uiso   1.00
Zn323  Zn    0.93700   0.50621   0.25539   0.00000  Uiso   1.00
Zn324  Zn    0.72967   0.49379   0.24460   0.00000  Uiso   1.00
C325   C     0.01507   0.93158   0.24884   0.00000  Uiso   1.00
C326   C     0.31229   0.83185   0.15864   0.00000  Uiso   1.00
C327   C     0.03520   0.85469   0.39234   0.00000  Uiso   1.00
C328   C     0.30342   0.83525   0.10528   0.00000  Uiso   1.00
C329   C     0.04254   0.92880   0.45123   0.00000  Uiso   1.00
C330   C     0.32619   0.80307   0.02469   0.00000  Uiso   1.00
C331   C     0.01417   0.90096   0.41075   0.00000  Uiso   1.00
C332   C     0.00598   0.80907   0.07492   0.00000  Uiso   1.00
C333   C     0.08132   0.83366   0.41705   0.00000  Uiso   1.00
C334   C     0.25773   0.86179   0.08445   0.00000  Uiso   1.00
C335   C     0.11669   0.86676   0.45102   0.00000  Uiso   1.00
C336   C     0.31828   0.73510   0.25126   0.00000  Uiso   1.00
C337   C     0.24603   0.85788   0.03278   0.00000  Uiso   1.00
C338   C     0.09500   0.91320   0.47032   0.00000  Uiso   1.00
C339   C     0.27773   0.82422   0.00398   0.00000  Uiso   1.00
C340   C     0.17322   0.85601   0.46573   0.00000  Uiso   1.00
C341   C     0.19938   0.88099   0.00927   0.00000  Uiso   1.00
C342   C     0.21894   0.88756   0.11742   0.00000  Uiso   1.00
C343   C     0.08689   0.77628   0.41014   0.00000  Uiso   1.00
C344   C     0.17858   0.92815   0.02676   0.00000  Uiso   1.00
C345   C     0.20594   0.82407   0.43690   0.00000  Uiso   1.00
C346   C     0.12713   0.94435   0.00705   0.00000  Uiso   1.00
C347   C     0.25878   0.80989   0.45536   0.00000  Uiso   1.00
C348   C     0.02293   0.98614   0.24824   0.00000  Uiso   1.00
C349   C     0.31044   0.68053   0.25200   0.00000  Uiso   1.00
C350   C     0.02156   0.83822   0.34115   0.00000  Uiso   1.00
H351   H     0.11205   0.98074   0.02110   0.00000  Uiso   1.00
H352   H     0.26726   0.99670   0.25555   0.00000  Uiso   1.00
H353   H     0.16231   0.79154   0.21375   0.00000  Uiso   1.00
H354   H     0.17102   0.87513   0.28625   0.00000  Uiso   1.00
H355   H     0.23638   0.91753   0.14488   0.00000  Uiso   1.00
H356   H     0.06851   0.75459   0.37706   0.00000  Uiso   1.00
H357   H     0.28277   0.78466   0.43278   0.00000  Uiso   1.00
H358   H     0.04191   0.78975   0.09043   0.00000  Uiso   1.00
H359   H     0.31121   0.91710   0.39211   0.00000  Uiso   1.00
H360   H     0.02595   0.96461   0.46502   0.00000  Uiso   1.00
H361   H     0.01860   0.77914   0.00250   0.00000  Uiso   1.00
H362   H     0.20260   0.95345   0.05486   0.00000  Uiso   1.00
H363   H     0.19137   0.81064   0.39974   0.00000  Uiso   1.00
H364   H     0.06611   0.66998   0.24469   0.00000  Uiso   1.00
N365   N     0.14695   0.81883   0.23739   0.00000  Uiso   1.00
N366   N     0.18638   0.84784   0.26260   0.00000  Uiso   1.00
O367   O     0.29719   0.91298   0.25309   0.00000  Uiso   1.00
O368   O     0.10884   0.75202   0.44269   0.00000  Uiso   1.00
O369   O     0.03614   0.75369   0.24690   0.00000  Uiso   1.00
O370   O     0.05822   0.90368   0.24501   0.00000  Uiso   1.00
O371   O     0.27512   0.76298   0.25498   0.00000  Uiso   1.00
O372   O     0.30328   0.84063   0.32247   0.00000  Uiso   1.00
O373   O     0.03005   0.82603   0.17753   0.00000  Uiso   1.00
O374   O     0.06431   0.83134   0.31439   0.00000  Uiso   1.00
O375   O     0.26902   0.83533   0.18561   0.00000  Uiso   1.00
O376   O     0.16791   0.87366   0.11552   0.00000  Uiso   1.00
Zn377  Zn    0.27033   0.83954   0.25539   0.00000  Uiso   1.00
Zn378  Zn    0.06300   0.82713   0.24460   0.00000  Uiso   1.00
C379   C     0.34840   0.93158   0.24884   0.00000  Uiso   1.00
C380   C     0.64563   0.83185   0.15864   0.00000  Uiso   1.00
C381   C     0.36854   0.85469   0.39234   0.00000  Uiso   1.00
C382   C     0.63675   0.83525   0.10528   0.00000  Uiso   1.00
C383   C     0.37587   0.92880   0.45123   0.00000  Uiso   1.00
C384   C     0.65952   0.80307   0.02469   0.00000  Uiso   1.00
C385   C     0.34750   0.90096   0.41075   0.00000  Uiso   1.00
C386   C     0.33931   0.80907   0.07492   0.00000  Uiso   1.00
C387   C     0.41465   0.83366   0.41705   0.00000  Uiso   1.00
C388   C     0.59107   0.86179   0.08445   0.00000  Uiso   1.00
C389   C     0.45003   0.86676   0.45102   0.00000  Uiso   1.00
C390   C     0.65161   0.73510   0.25126   0.00000  Uiso   1.00
C391   C     0.57936   0.85788   0.03278   0.00000  Uiso   1.00
C392   C     0.42834   0.91320   0.47032   0.00000  Uiso   1.00
C393   C     0.61106   0.82422   0.00398   0.00000  Uiso   1.00
C394   C     0.50655   0.85601   0.46573   0.00000  Uiso   1.00
C395   C     0.53272   0.88099   0.00927   0.00000  Uiso   1.00
C396   C     0.55228   0.88756   0.11742   0.00000  Uiso   1.00
C397   C     0.42022   0.77628   0.41014   0.00000  Uiso   1.00
C398   C     0.51191   0.92815   0.02676   0.00000  Uiso   1.00
C399   C     0.53927   0.82407   0.43690   0.00000  Uiso   1.00
C400   C     0.46046   0.94435   0.00705   0.00000  Uiso   1.00
C401   C     0.59211   0.80989   0.45536   0.00000  Uiso   1.00
C402   C     0.35626   0.98614   0.24824   0.00000  Uiso   1.00
C403   C     0.64377   0.68053   0.25200   0.00000  Uiso   1.00
C404   C     0.35490   0.83822   0.34115   0.00000  Uiso   1.00
H405   H     0.44539   0.98074   0.02110   0.00000  Uiso   1.00
H406   H     0.60060   0.99670   0.25555   0.00000  Uiso   1.00
H407   H     0.49565   0.79154   0.21375   0.00000  Uiso   1.00
H408   H     0.50436   0.87513   0.28625   0.00000  Uiso   1.00
H409   H     0.56972   0.91753   0.14488   0.00000  Uiso   1.00
H410   H     0.40184   0.75459   0.37706   0.00000  Uiso   1.00
H411   H     0.61610   0.78466   0.43278   0.00000  Uiso   1.00
H412   H     0.37525   0.78975   0.09043   0.00000  Uiso   1.00
H413   H     0.64454   0.91710   0.39211   0.00000  Uiso   1.00
H414   H     0.35928   0.96461   0.46502   0.00000  Uiso   1.00
H415   H     0.35193   0.77914   0.00250   0.00000  Uiso   1.00
H416   H     0.53593   0.95345   0.05486   0.00000  Uiso   1.00
H417   H     0.52470   0.81064   0.39974   0.00000  Uiso   1.00
H418   H     0.39944   0.66998   0.24469   0.00000  Uiso   1.00
N419   N     0.48029   0.81883   0.23739   0.00000  Uiso   1.00
N420   N     0.51971   0.84784   0.26260   0.00000  Uiso   1.00
O421   O     0.63052   0.91298   0.25309   0.00000  Uiso   1.00
O422   O     0.44217   0.75202   0.44269   0.00000  Uiso   1.00
O423   O     0.36948   0.75369   0.24690   0.00000  Uiso   1.00
O424   O     0.39155   0.90368   0.24501   0.00000  Uiso   1.00
O425   O     0.60845   0.76298   0.25498   0.00000  Uiso   1.00
O426   O     0.63662   0.84063   0.32247   0.00000  Uiso   1.00
O427   O     0.36338   0.82603   0.17753   0.00000  Uiso   1.00
O428   O     0.39764   0.83134   0.31439   0.00000  Uiso   1.00
O429   O     0.60236   0.83533   0.18561   0.00000  Uiso   1.00
O430   O     0.50124   0.87366   0.11552   0.00000  Uiso   1.00
Zn431  Zn    0.60366   0.83954   0.25539   0.00000  Uiso   1.00
Zn432  Zn    0.39634   0.82713   0.24460   0.00000  Uiso   1.00
C433   C     0.68174   0.93158   0.24884   0.00000  Uiso   1.00
C434   C     0.97896   0.83185   0.15864   0.00000  Uiso   1.00
C435   C     0.70187   0.85469   0.39234   0.00000  Uiso   1.00
C436   C     0.97008   0.83525   0.10528   0.00000  Uiso   1.00
C437   C     0.70921   0.92880   0.45123   0.00000  Uiso   1.00
C438   C     0.99286   0.80307   0.02469   0.00000  Uiso   1.00
C439   C     0.68083   0.90096   0.41075   0.00000  Uiso   1.00
C440   C     0.67264   0.80907   0.07492   0.00000  Uiso   1.00
C441   C     0.74798   0.83366   0.41705   0.00000  Uiso   1.00
C442   C     0.92440   0.86179   0.08445   0.00000  Uiso   1.00
C443   C     0.78336   0.86676   0.45102   0.00000  Uiso   1.00
C444   C     0.98495   0.73510   0.25126   0.00000  Uiso   1.00
C445   C     0.91269   0.85788   0.03278   0.00000  Uiso   1.00
C446   C     0.76167   0.91320   0.47032   0.00000  Uiso   1.00
C447   C     0.94439   0.82422   0.00398   0.00000  Uiso   1.00
C448   C     0.83989   0.85601   0.46573   0.00000  Uiso   1.00
C449   C     0.86605   0.88099   0.00927   0.00000  Uiso   1.00
C450   C     0.88561   0.88756   0.11742   0.00000  Uiso   1.00
C451   C     0.75356   0.77628   0.41014   0.00000  Uiso   1.00
C452   C     0.84525   0.92815   0.02676   0.00000  Uiso   1.00
C453   C     0.87260   0.82407   0.43690   0.00000  Uiso   1.00
C454   C     0.79380   0.94435   0.00705   0.00000  Uiso   1.00
C455   C     0.92545   0.80989   0.45536   0.00000  Uiso   1.00
C456   C     0.68960   0.98614   0.24824   0.00000  Uiso   1.00
C457   C     0.97711   0.68053   0.25200   0.00000  Uiso   1.00
C458   C     0.68823   0.83822   0.34115   0.00000  Uiso   1.00
H459   H     0.77872   0.98074   0.02110   0.00000  Uiso   1.00
H460   H     0.93393   0.99670   0.25555   0.00000  Uiso   1.00
H461   H     0.82898   0.79154   0.21375   0.00000  Uiso   1.00
H462   H     0.83769   0.87513   0.28625   0.00000  Uiso   1.00
H463   H     0.90305   0.91753   0.14488   0.00000  Uiso   1.00
H464   H     0.73518   0.75459   0.37706   0.00000  Uiso   1.00
H465   H     0.94943   0.78466   0.43278   0.00000  Uiso   1.00
H466   H     0.70858   0.78975   0.09043   0.00000  Uiso   1.00
H467   H     0.97788   0.91710   0.39211   0.00000  Uiso   1.00
H468   H     0.69261   0.96461   0.46502   0.00000  Uiso   1.00
H469   H     0.68527   0.77914   0.00250   0.00000  Uiso   1.00
H470   H     0.86927   0.95345   0.05486   0.00000  Uiso   1.00
H471   H     0.85803   0.81064   0.39974   0.00000  Uiso   1.00
H472   H     0.73277   0.66998   0.24469   0.00000  Uiso   1.00
N473   N     0.81362   0.81883   0.23739   0.00000  Uiso   1.00
N474   N     0.85305   0.84784   0.26260   0.00000  Uiso   1.00
O475   O     0.96386   0.91298   0.25309   0.00000  Uiso   1.00
O476   O     0.77550   0.75202   0.44269   0.00000  Uiso   1.00
O477   O     0.70281   0.75369   0.24690   0.00000  Uiso   1.00
O478   O     0.72488   0.90368   0.24501   0.00000  Uiso   1.00
O479   O     0.94178   0.76298   0.25498   0.00000  Uiso   1.00
O480   O     0.96995   0.84063   0.32247   0.00000  Uiso   1.00
O481   O     0.69672   0.82603   0.17753   0.00000  Uiso   1.00
O482   O     0.73098   0.83134   0.31439   0.00000  Uiso   1.00
O483   O     0.93569   0.83533   0.18561   0.00000  Uiso   1.00
O484   O     0.83458   0.87366   0.11552   0.00000  Uiso   1.00
Zn485  Zn    0.93700   0.83954   0.25539   0.00000  Uiso   1.00
Zn486  Zn    0.72967   0.82713   0.24460   0.00000  Uiso   1.00
C487   C     0.01507   0.26491   0.74884   0.00000  Uiso   1.00
C488   C     0.31229   0.16518   0.65864   0.00000  Uiso   1.00
C489   C     0.03520   0.18802   0.89234   0.00000  Uiso   1.00
C490   C     0.30342   0.16858   0.60528   0.00000  Uiso   1.00
C491   C     0.04254   0.26214   0.95123   0.00000  Uiso   1.00
C492   C     0.32619   0.13640   0.52469   0.00000  Uiso   1.00
C493   C     0.01417   0.23430   0.91075   0.00000  Uiso   1.00
C494   C     0.00598   0.14240   0.57492   0.00000  Uiso   1.00
C495   C     0.08132   0.16699   0.91705   0.00000  Uiso   1.00
C496   C     0.25773   0.19512   0.58445   0.00000  Uiso   1.00
C497   C     0.11669   0.20009   0.95102   0.00000  Uiso   1.00
C498   C     0.31828   0.06843   0.75126   0.00000  Uiso   1.00
C499   C     0.24603   0.19122   0.53278   0.00000  Uiso   1.00
C500   C     0.09500   0.24654   0.97032   0.00000  Uiso   1.00
C501   C     0.27773   0.15755   0.50398   0.00000  Uiso   1.00
C502   C     0.17322   0.18935   0.96573   0.00000  Uiso   1.00
C503   C     0.19938   0.21433   0.50927   0.00000  Uiso   1.00
C504   C     0.21894   0.22089   0.61742   0.00000  Uiso   1.00
C505   C     0.08689   0.10961   0.91014   0.00000  Uiso   1.00
C506   C     0.17858   0.26149   0.52676   0.00000  Uiso   1.00
C507   C     0.20594   0.15740   0.93690   0.00000  Uiso   1.00
C508   C     0.12713   0.27768   0.50705   0.00000  Uiso   1.00
C509   C     0.25878   0.14323   0.95536   0.00000  Uiso   1.00
C510   C     0.02293   0.31948   0.74824   0.00000  Uiso   1.00
C511   C     0.31044   0.01386   0.75200   0.00000  Uiso   1.00
C512   C     0.02156   0.17155   0.84115   0.00000  Uiso   1.00
H513   H     0.11205   0.31407   0.52110   0.00000  Uiso   1.00
H514   H     0.26726   0.33003   0.75555   0.00000  Uiso   1.00
H515   H     0.16231   0.12487   0.71375   0.00000  Uiso   1.00
H516   H     0.17102   0.20846   0.78625   0.00000  Uiso   1.00
H517   H     0.23638   0.25087   0.64488   0.00000  Uiso   1.00
H518   H     0.06851   0.08792   0.87706   0.00000  Uiso   1.00
H519   H     0.28277   0.11799   0.93278   0.00000  Uiso   1.00
H520   H     0.04191   0.12308   0.59043   0.00000  Uiso   1.00
H521   H     0.31121   0.25044   0.89211   0.00000  Uiso   1.00
H522   H     0.02595   0.29794   0.96502   0.00000  Uiso   1.00
H523   H     0.01860   0.11247   0.50250   0.00000  Uiso   1.00
H524   H     0.20260   0.28678   0.55486   0.00000  Uiso   1.00
H525   H     0.19137   0.14397   0.89974   0.00000  Uiso   1.00
H526   H     0.06611   0.00331   0.74469   0.00000  Uiso   1.00
N527   N     0.14695   0.15216   0.73739   0.00000  Uiso   1.00
N528   N     0.18638   0.18117   0.76260   0.00000  Uiso   1.00
O529   O     0.29719   0.24631   0.75309   0.00000  Uiso   1.00
O530   O     0.10884   0.08536   0.94269   0.00000  Uiso   1.00
O531   O     0.03614   0.08702   0.74690   0.00000  Uiso   1.00
O532   O     0.05822   0.23702   0.74501   0.00000  Uiso   1.00
O533   O     0.27512   0.09632   0.75498   0.00000  Uiso   1.00
O534   O     0.30328   0.17397   0.82247   0.00000  Uiso   1.00
O535   O     0.03005   0.15937   0.67753   0.00000  Uiso   1.00
O536   O     0.06431   0.16467   0.81439   0.00000  Uiso   1.00
O537   O     0.26902   0.16866   0.68561   0.00000  Uiso   1.00
O538   O     0.16791   0.20700   0.61552   0.00000  Uiso   1.00
Zn539  Zn    0.27033   0.17287   0.75539   0.00000  Uiso   1.00
Zn540  Zn    0.06300   0.16046   0.74460   0.00000  Uiso   1.00
C541   C     0.34840   0.26491   0.74884   0.00000  Uiso   1.00
C542   C     0.64563   0.16518   0.65864   0.00000  Uiso   1.00
C543   C     0.36854   0.18802   0.89234   0.00000  Uiso   1.00
C544   C     0.63675   0.16858   0.60528   0.00000  Uiso   1.00
C545   C     0.37587   0.26214   0.95123   0.00000  Uiso   1.00
C546   C     0.65952   0.13640   0.52469   0.00000  Uiso   1.00
C547   C     0.34750   0.23430   0.91075   0.00000  Uiso   1.00
C548   C     0.33931   0.14240   0.57492   0.00000  Uiso   1.00
C549   C     0.41465   0.16699   0.91705   0.00000  Uiso   1.00
C550   C     0.59107   0.19512   0.58445   0.00000  Uiso   1.00
C551   C     0.45003   0.20009   0.95102   0.00000  Uiso   1.00
C552   C     0.65161   0.06843   0.75126   0.00000  Uiso   1.00
C553   C     0.57936   0.19122   0.53278   0.00000  Uiso   1.00
C554   C     0.42834   0.24654   0.97032   0.00000  Uiso   1.00
C555   C     0.61106   0.15755   0.50398   0.00000  Uiso   1.00
C556   C     0.50655   0.18935   0.96573   0.00000  Uiso   1.00
C557   C     0.53272   0.21433   0.50927   0.00000  Uiso   1.00
C558   C     0.55228   0.22089   0.61742   0.00000  Uiso   1.00
C559   C     0.42022   0.10961   0.91014   0.00000  Uiso   1.00
C560   C     0.51191   0.26149   0.52676   0.00000  Uiso   1.00
C561   C     0.53927   0.15740   0.93690   0.00000  Uiso   1.00
C562   C     0.46046   0.27768   0.50705   0.00000  Uiso   1.00
C563   C     0.59211   0.14323   0.95536   0.00000  Uiso   1.00
C564   C     0.35626   0.31948   0.74824   0.00000  Uiso   1.00
C565   C     0.64377   0.01386   0.75200   0.00000  Uiso   1.00
C566   C     0.35490   0.17155   0.84115   0.00000  Uiso   1.00
H567   H     0.44539   0.31407   0.52110   0.00000  Uiso   1.00
H568   H     0.60060   0.33003   0.75555   0.00000  Uiso   1.00
H569   H     0.49565   0.12487   0.71375   0.00000  Uiso   1.00
H570   H     0.50436   0.20846   0.78625   0.00000  Uiso   1.00
H571   H     0.56972   0.25087   0.64488   0.00000  Uiso   1.00
H572   H     0.40184   0.08792   0.87706   0.00000  Uiso   1.00
H573   H     0.61610   0.11799   0.93278   0.00000  Uiso   1.00
H574   H     0.37525   0.12308   0.59043   0.00000  Uiso   1.00
H575   H     0.64454   0.25044   0.89211   0.00000  Uiso   1.00
H576   H     0.35928   0.29794   0.96502   0.00000  Uiso   1.00
H577   H     0.35193   0.11247   0.50250   0.00000  Uiso   1.00
H578   H     0.53593   0.28678   0.55486   0.00000  Uiso   1.00
H579   H     0.52470   0.14397   0.89974   0.00000  Uiso   1.00
H580   H     0.39944   0.00331   0.74469   0.00000  Uiso   1.00
N581   N     0.48029   0.15216   0.73739   0.00000  Uiso   1.00
N582   N     0.51971   0.18117   0.76260   0.00000  Uiso   1.00
O583   O     0.63052   0.24631   0.75309   0.00000  Uiso   1.00
O584   O     0.44217   0.08536   0.94269   0.00000  Uiso   1.00
O585   O     0.36948   0.08702   0.74690   0.00000  Uiso   1.00
O586   O     0.39155   0.23702   0.74501   0.00000  Uiso   1.00
O587   O     0.60845   0.09632   0.75498   0.00000  Uiso   1.00
O588   O     0.63662   0.17397   0.82247   0.00000  Uiso   1.00
O589   O     0.36338   0.15937   0.67753   0.00000  Uiso   1.00
O590   O     0.39764   0.16467   0.81439   0.00000  Uiso   1.00
O591   O     0.60236   0.16866   0.68561   0.00000  Uiso   1.00
O592   O     0.50124   0.20700   0.61552   0.00000  Uiso   1.00
Zn593  Zn    0.60366   0.17287   0.75539   0.00000  Uiso   1.00
Zn594  Zn    0.39634   0.16046   0.74460   0.00000  Uiso   1.00
C595   C     0.68174   0.26491   0.74884   0.00000  Uiso   1.00
C596   C     0.97896   0.16518   0.65864   0.00000  Uiso   1.00
C597   C     0.70187   0.18802   0.89234   0.00000  Uiso   1.00
C598   C     0.97008   0.16858   0.60528   0.00000  Uiso   1.00
C599   C     0.70921   0.26214   0.95123   0.00000  Uiso   1.00
C600   C     0.99286   0.13640   0.52469   0.00000  Uiso   1.00
C601   C     0.68083   0.23430   0.91075   0.00000  Uiso   1.00
C602   C     0.67264   0.14240   0.57492   0.00000  Uiso   1.00
C603   C     0.74798   0.16699   0.91705   0.00000  Uiso   1.00
C604   C     0.92440   0.19512   0.58445   0.00000  Uiso   1.00
C605   C     0.78336   0.20009   0.95102   0.00000  Uiso   1.00
C606   C     0.98495   0.06843   0.75126   0.00000  Uiso   1.00
C607   C     0.91269   0.19122   0.53278   0.00000  Uiso   1.00
C608   C     0.76167   0.24654   0.97032   0.00000  Uiso   1.00
C609   C     0.94439   0.15755   0.50398   0.00000  Uiso   1.00
C610   C     0.83989   0.18935   0.96573   0.00000  Uiso   1.00
C611   C     0.86605   0.21433   0.50927   0.00000  Uiso   1.00
C612   C     0.88561   0.22089   0.61742   0.00000  Uiso   1.00
C613   C     0.75356   0.10961   0.91014   0.00000  Uiso   1.00
C614   C     0.84525   0.26149   0.52676   0.00000  Uiso   1.00
C615   C     0.87260   0.15740   0.93690   0.00000  Uiso   1.00
C616   C     0.79380   0.27768   0.50705   0.00000  Uiso   1.00
C617   C     0.92545   0.14323   0.95536   0.00000  Uiso   1.00
C618   C     0.68960   0.31948   0.74824   0.00000  Uiso   1.00
C619   C     0.97711   0.01386   0.75200   0.00000  Uiso   1.00
C620   C     0.68823   0.17155   0.84115   0.00000  Uiso   1.00
H621   H     0.77872   0.31407   0.52110   0.00000  Uiso   1.00
H622   H     0.93393   0.33003   0.75555   0.00000  Uiso   1.00
H623   H     0.82898   0.12487   0.71375   0.00000  Uiso   1.00
H624   H     0.83769   0.20846   0.78625   0.00000  Uiso   1.00
H625   H     0.90305   0.25087   0.64488   0.00000  Uiso   1.00
H626   H     0.73518   0.08792   0.87706   0.00000  Uiso   1.00
H627   H     0.94943   0.11799   0.93278   0.00000  Uiso   1.00
H628   H     0.70858   0.12308   0.59043   0.00000  Uiso   1.00
H629   H     0.97788   0.25044   0.89211   0.00000  Uiso   1.00
H630   H     0.69261   0.29794   0.96502   0.00000  Uiso   1.00
H631   H     0.68527   0.11247   0.50250   0.00000  Uiso   1.00
H632   H     0.86927   0.28678   0.55486   0.00000  Uiso   1.00
H633   H     0.85803   0.14397   0.89974   0.00000  Uiso   1.00
H634   H     0.73277   0.00331   0.74469   0.00000  Uiso   1.00
N635   N     0.81362   0.15216   0.73739   0.00000  Uiso   1.00
N636   N     0.85305   0.18117   0.76260   0.00000  Uiso   1.00
O637   O     0.96386   0.24631   0.75309   0.00000  Uiso   1.00
O638   O     0.77550   0.08536   0.94269   0.00000  Uiso   1.00
O639   O     0.70281   0.08702   0.74690   0.00000  Uiso   1.00
O640   O     0.72488   0.23702   0.74501   0.00000  Uiso   1.00
O641   O     0.94178   0.09632   0.75498   0.00000  Uiso   1.00
O642   O     0.96995   0.17397   0.82247   0.00000  Uiso   1.00
O643   O     0.69672   0.15937   0.67753   0.00000  Uiso   1.00
O644   O     0.73098   0.16467   0.81439   0.00000  Uiso   1.00
O645   O     0.93569   0.16866   0.68561   0.00000  Uiso   1.00
O646   O     0.83458   0.20700   0.61552   0.00000  Uiso   1.00
Zn647  Zn    0.93700   0.17287   0.75539   0.00000  Uiso   1.00
Zn648  Zn    0.72967   0.16046   0.74460   0.00000  Uiso   1.00
C649   C     0.01507   0.59824   0.74884   0.00000  Uiso   1.00
C650   C     0.31229   0.49852   0.65864   0.00000  Uiso   1.00
C651   C     0.03520   0.52135   0.89234   0.00000  Uiso   1.00
C652   C     0.30342   0.50192   0.60528   0.00000  Uiso   1.00
C653   C     0.04254   0.59547   0.95123   0.00000  Uiso   1.00
C654   C     0.32619   0.46974   0.52469   0.00000  Uiso   1.00
C655   C     0.01417   0.56763   0.91075   0.00000  Uiso   1.00
C656   C     0.00598   0.47574   0.57492   0.00000  Uiso   1.00
C657   C     0.08132   0.50032   0.91705   0.00000  Uiso   1.00
C658   C     0.25773   0.52845   0.58445   0.00000  Uiso   1.00
C659   C     0.11669   0.53343   0.95102   0.00000  Uiso   1.00
C660   C     0.31828   0.40176   0.75126   0.00000  Uiso   1.00
C661   C     0.24603   0.52455   0.53278   0.00000  Uiso   1.00
C662   C     0.09500   0.57987   0.97032   0.00000  Uiso   1.00
C663   C     0.27773   0.49088   0.50398   0.00000  Uiso   1.00
C664   C     0.17322   0.52268   0.96573   0.00000  Uiso   1.00
C665   C     0.19938   0.54766   0.50927   0.00000  Uiso   1.00
C666   C     0.21894   0.55423   0.61742   0.00000  Uiso   1.00
C667   C     0.08689   0.44295   0.91014   0.00000  Uiso   1.00
C668   C     0.17858   0.59482   0.52676   0.00000  Uiso   1.00
C669   C     0.20594   0.49074   0.93690   0.00000  Uiso   1.00
C670   C     0.12713   0.61102   0.50705   0.00000  Uiso   1.00
C671   C     0.25878   0.47656   0.95536   0.00000  Uiso   1.00
C672   C     0.02293   0.65281   0.74824   0.00000  Uiso   1.00
C673   C     0.31044   0.34720   0.75200   0.00000  Uiso   1.00
C674   C     0.02156   0.50488   0.84115   0.00000  Uiso   1.00
H675   H     0.11205   0.64741   0.52110   0.00000  Uiso   1.00
H676   H     0.26726   0.66336   0.75555   0.00000  Uiso   1.00
H677   H     0.16231   0.45821   0.71375   0.00000  Uiso   1.00
H678   H     0.17102   0.54180   0.78625   0.00000  Uiso   1.00
H679   H     0.23638   0.58420   0.64488   0.00000  Uiso   1.00
H680   H     0.06851   0.42126   0.87706   0.00000  Uiso   1.00
H681   H     0.28277   0.45132   0.93278   0.00000  Uiso   1.00
H682   H     0.04191   0.45641   0.59043   0.00000  Uiso   1.00
H683   H     0.31121   0.58377   0.89211   0.00000  Uiso   1.00
H684   H     0.02595   0.63127   0.96502   0.00000  Uiso   1.00
H685   H     0.01860   0.44580   0.50250   0.00000  Uiso   1.00
H686   H     0.20260   0.62011   0.55486   0.00000  Uiso   1.00
H687   H     0.19137   0.47731   0.89974   0.00000  Uiso   1.00
H688   H     0.06611   0.33664   0.74469   0.00000  Uiso   1.00
N689   N     0.14695   0.48550   0.73739   0.00000  Uiso   1.00
N690   N     0.18638   0.51450   0.76260   0.00000  Uiso   1.00
O691   O     0.29719   0.57964   0.75309   0.00000  Uiso   1.00
O692   O     0.10884   0.41869   0.94269   0.00000  Uiso   1.00
O693   O     0.03614   0.42036   0.74690   0.00000  Uiso   1.00
O694   O     0.05822   0.57035   0.74501   0.00000  Uiso   1.00
O695   O     0.27512   0.42965   0.75498   0.00000  Uiso   1.00
O696   O     0.30328   0.50730   0.82247   0.00000  Uiso   1.00
O697   O     0.03005   0.49270   0.67753   0.00000  Uiso   1.00
O698   O     0.06431   0.49801   0.81439   0.00000  Uiso   1.00
O699   O     0.26902   0.50199   0.68561   0.00000  Uiso   1.00
O700   O     0.16791   0.54033   0.61552   0.00000  Uiso   1.00
Zn701  Zn    0.27033   0.50621   0.75539   0.00000  Uiso   1.00
Zn702  Zn    0.06300   0.49379   0.74460   0.00000  Uiso   1.00
C703   C     0.34840   0.59824   0.74884   0.00000  Uiso   1.00
C704   C     0.64563   0.49852   0.65864   0.00000  Uiso   1.00
C705   C     0.36854   0.52135   0.89234   0.00000  Uiso   1.00
C706   C     0.63675   0.50192   0.60528   0.00000  Uiso   1.00
C707   C     0.37587   0.59547   0.95123   0.00000  Uiso   1.00
C708   C     0.65952   0.46974   0.52469   0.00000  Uiso   1.00
C709   C     0.34750   0.56763   0.91075   0.00000  Uiso   1.00
C710   C     0.33931   0.47574   0.57492   0.00000  Uiso   1.00
C711   C     0.41465   0.50032   0.91705   0.00000  Uiso   1.00
C712   C     0.59107   0.52845   0.58445   0.00000  Uiso   1.00
C713   C     0.45003   0.53343   0.95102   0.00000  Uiso   1.00
C714   C     0.65161   0.40176   0.75126   0.00000  Uiso   1.00
C715   C     0.57936   0.52455   0.53278   0.00000  Uiso   1.00
C716   C     0.42834   0.57987   0.97032   0.00000  Uiso   1.00
C717   C     0.61106   0.49088   0.50398   0.00000  Uiso   1.00
C718   C     0.50655   0.52268   0.96573   0.00000  Uiso   1.00
C719   C     0.53272   0.54766   0.50927   0.00000  Uiso   1.00
C720   C     0.55228   0.55423   0.61742   0.00000  Uiso   1.00
C721   C     0.42022   0.44295   0.91014   0.00000  Uiso   1.00
C722   C     0.51191   0.59482   0.52676   0.00000  Uiso   1.00
C723   C     0.53927   0.49074   0.93690   0.00000  Uiso   1.00
C724   C     0.46046   0.61102   0.50705   0.00000  Uiso   1.00
C725   C     0.59211   0.47656   0.95536   0.00000  Uiso   1.00
C726   C     0.35626   0.65281   0.74824   0.00000  Uiso   1.00
C727   C     0.64377   0.34720   0.75200   0.00000  Uiso   1.00
C728   C     0.35490   0.50488   0.84115   0.00000  Uiso   1.00
H729   H     0.44539   0.64741   0.52110   0.00000  Uiso   1.00
H730   H     0.60060   0.66336   0.75555   0.00000  Uiso   1.00
H731   H     0.49565   0.45821   0.71375   0.00000  Uiso   1.00
H732   H     0.50436   0.54180   0.78625   0.00000  Uiso   1.00
H733   H     0.56972   0.58420   0.64488   0.00000  Uiso   1.00
H734   H     0.40184   0.42126   0.87706   0.00000  Uiso   1.00
H735   H     0.61610   0.45132   0.93278   0.00000  Uiso   1.00
H736   H     0.37525   0.45641   0.59043   0.00000  Uiso   1.00
H737   H     0.64454   0.58377   0.89211   0.00000  Uiso   1.00
H738   H     0.35928   0.63127   0.96502   0.00000  Uiso   1.00
H739   H     0.35193   0.44580   0.50250   0.00000  Uiso   1.00
H740   H     0.53593   0.62011   0.55486   0.00000  Uiso   1.00
H741   H     0.52470   0.47731   0.89974   0.00000  Uiso   1.00
H742   H     0.39944   0.33664   0.74469   0.00000  Uiso   1.00
N743   N     0.48029   0.48550   0.73739   0.00000  Uiso   1.00
N744   N     0.51971   0.51450   0.76260   0.00000  Uiso   1.00
O745   O     0.63052   0.57964   0.75309   0.00000  Uiso   1.00
O746   O     0.44217   0.41869   0.94269   0.00000  Uiso   1.00
O747   O     0.36948   0.42036   0.74690   0.00000  Uiso   1.00
O748   O     0.39155   0.57035   0.74501   0.00000  Uiso   1.00
O749   O     0.60845   0.42965   0.75498   0.00000  Uiso   1.00
O750   O     0.63662   0.50730   0.82247   0.00000  Uiso   1.00
O751   O     0.36338   0.49270   0.67753   0.00000  Uiso   1.00
O752   O     0.39764   0.49801   0.81439   0.00000  Uiso   1.00
O753   O     0.60236   0.50199   0.68561   0.00000  Uiso   1.00
O754   O     0.50124   0.54033   0.61552   0.00000  Uiso   1.00
Zn755  Zn    0.60366   0.50621   0.75539   0.00000  Uiso   1.00
Zn756  Zn    0.39634   0.49379   0.74460   0.00000  Uiso   1.00
C757   C     0.68174   0.59824   0.74884   0.00000  Uiso   1.00
C758   C     0.97896   0.49852   0.65864   0.00000  Uiso   1.00
C759   C     0.70187   0.52135   0.89234   0.00000  Uiso   1.00
C760   C     0.97008   0.50192   0.60528   0.00000  Uiso   1.00
C761   C     0.70921   0.59547   0.95123   0.00000  Uiso   1.00
C762   C     0.99286   0.46974   0.52469   0.00000  Uiso   1.00
C763   C     0.68083   0.56763   0.91075   0.00000  Uiso   1.00
C764   C     0.67264   0.47574   0.57492   0.00000  Uiso   1.00
C765   C     0.74798   0.50032   0.91705   0.00000  Uiso   1.00
C766   C     0.92440   0.52845   0.58445   0.00000  Uiso   1.00
C767   C     0.78336   0.53343   0.95102   0.00000  Uiso   1.00
C768   C     0.98495   0.40176   0.75126   0.00000  Uiso   1.00
C769   C     0.91269   0.52455   0.53278   0.00000  Uiso   1.00
C770   C     0.76167   0.57987   0.97032   0.00000  Uiso   1.00
C771   C     0.94439   0.49088   0.50398   0.00000  Uiso   1.00
C772   C     0.83989   0.52268   0.96573   0.00000  Uiso   1.00
C773   C     0.86605   0.54766   0.50927   0.00000  Uiso   1.00
C774   C     0.88561   0.55423   0.61742   0.00000  Uiso   1.00
C775   C     0.75356   0.44295   0.91014   0.00000  Uiso   1.00
C776   C     0.84525   0.59482   0.52676   0.00000  Uiso   1.00
C777   C     0.87260   0.49074   0.93690   0.00000  Uiso   1.00
C778   C     0.79380   0.61102   0.50705   0.00000  Uiso   1.00
C779   C     0.92545   0.47656   0.95536   0.00000  Uiso   1.00
C780   C     0.68960   0.65281   0.74824   0.00000  Uiso   1.00
C781   C     0.97711   0.34720   0.75200   0.00000  Uiso   1.00
C782   C     0.68823   0.50488   0.84115   0.00000  Uiso   1.00
H783   H     0.77872   0.64741   0.52110   0.00000  Uiso   1.00
H784   H     0.93393   0.66336   0.75555   0.00000  Uiso   1.00
H785   H     0.82898   0.45821   0.71375   0.00000  Uiso   1.00
H786   H     0.83769   0.54180   0.78625   0.00000  Uiso   1.00
H787   H     0.90305   0.58420   0.64488   0.00000  Uiso   1.00
H788   H     0.73518   0.42126   0.87706   0.00000  Uiso   1.00
H789   H     0.94943   0.45132   0.93278   0.00000  Uiso   1.00
H790   H     0.70858   0.45641   0.59043   0.00000  Uiso   1.00
H791   H     0.97788   0.58377   0.89211   0.00000  Uiso   1.00
H792   H     0.69261   0.63127   0.96502   0.00000  Uiso   1.00
H793   H     0.68527   0.44580   0.50250   0.00000  Uiso   1.00
H794   H     0.86927   0.62011   0.55486   0.00000  Uiso   1.00
H795   H     0.85803   0.47731   0.89974   0.00000  Uiso   1.00
H796   H     0.73277   0.33664   0.74469   0.00000  Uiso   1.00
N797   N     0.81362   0.48550   0.73739   0.00000  Uiso   1.00
N798   N     0.85305   0.51450   0.76260   0.00000  Uiso   1.00
O799   O     0.96386   0.57964   0.75309   0.00000  Uiso   1.00
O800   O     0.77550   0.41869   0.94269   0.00000  Uiso   1.00
O801   O     0.70281   0.42036   0.74690   0.00000  Uiso   1.00
O802   O     0.72488   0.57035   0.74501   0.00000  Uiso   1.00
O803   O     0.94178   0.42965   0.75498   0.00000  Uiso   1.00
O804   O     0.96995   0.50730   0.82247   0.00000  Uiso   1.00
O805   O     0.69672   0.49270   0.67753   0.00000  Uiso   1.00
O806   O     0.73098   0.49801   0.81439   0.00000  Uiso   1.00
O807   O     0.93569   0.50199   0.68561   0.00000  Uiso   1.00
O808   O     0.83458   0.54033   0.61552   0.00000  Uiso   1.00
Zn809  Zn    0.93700   0.50621   0.75539   0.00000  Uiso   1.00
Zn810  Zn    0.72967   0.49379   0.74460   0.00000  Uiso   1.00
C811   C     0.01507   0.93158   0.74884   0.00000  Uiso   1.00
C812   C     0.31229   0.83185   0.65864   0.00000  Uiso   1.00
C813   C     0.03520   0.85469   0.89234   0.00000  Uiso   1.00
C814   C     0.30342   0.83525   0.60528   0.00000  Uiso   1.00
C815   C     0.04254   0.92880   0.95123   0.00000  Uiso   1.00
C816   C     0.32619   0.80307   0.52469   0.00000  Uiso   1.00
C817   C     0.01417   0.90096   0.91075   0.00000  Uiso   1.00
C818   C     0.00598   0.80907   0.57492   0.00000  Uiso   1.00
C819   C     0.08132   0.83366   0.91705   0.00000  Uiso   1.00
C820   C     0.25773   0.86179   0.58445   0.00000  Uiso   1.00
C821   C     0.11669   0.86676   0.95102   0.00000  Uiso   1.00
C822   C     0.31828   0.73510   0.75126   0.00000  Uiso   1.00
C823   C     0.24603   0.85788   0.53278   0.00000  Uiso   1.00
C824   C     0.09500   0.91320   0.97032   0.00000  Uiso   1.00
C825   C     0.27773   0.82422   0.50398   0.00000  Uiso   1.00
C826   C     0.17322   0.85601   0.96573   0.00000  Uiso   1.00
C827   C     0.19938   0.88099   0.50927   0.00000  Uiso   1.00
C828   C     0.21894   0.88756   0.61742   0.00000  Uiso   1.00
C829   C     0.08689   0.77628   0.91014   0.00000  Uiso   1.00
C830   C     0.17858   0.92815   0.52676   0.00000  Uiso   1.00
C831   C     0.20594   0.82407   0.93690   0.00000  Uiso   1.00
C832   C     0.12713   0.94435   0.50705   0.00000  Uiso   1.00
C833   C     0.25878   0.80989   0.95536   0.00000  Uiso   1.00
C834   C     0.02293   0.98614   0.74824   0.00000  Uiso   1.00
C835   C     0.31044   0.68053   0.75200   0.00000  Uiso   1.00
C836   C     0.02156   0.83822   0.84115   0.00000  Uiso   1.00
H837   H     0.11205   0.98074   0.52110   0.00000  Uiso   1.00
H838   H     0.26726   0.99670   0.75555   0.00000  Uiso   1.00
H839   H     0.16231   0.79154   0.71375   0.00000  Uiso   1.00
H840   H     0.17102   0.87513   0.78625   0.00000  Uiso   1.00
H841   H     0.23638   0.91753   0.64488   0.00000  Uiso   1.00
H842   H     0.06851   0.75459   0.87706   0.00000  Uiso   1.00
H843   H     0.28277   0.78466   0.93278   0.00000  Uiso   1.00
H844   H     0.04191   0.78975   0.59043   0.00000  Uiso   1.00
H845   H     0.31121   0.91710   0.89211   0.00000  Uiso   1.00
H846   H     0.02595   0.96461   0.96502   0.00000  Uiso   1.00
H847   H     0.01860   0.77914   0.50250   0.00000  Uiso   1.00
H848   H     0.20260   0.95345   0.55486   0.00000  Uiso   1.00
H849   H     0.19137   0.81064   0.89974   0.00000  Uiso   1.00
H850   H     0.06611   0.66998   0.74469   0.00000  Uiso   1.00
N851   N     0.14695   0.81883   0.73739   0.00000  Uiso   1.00
N852   N     0.18638   0.84784   0.76260   0.00000  Uiso   1.00
O853   O     0.29719   0.91298   0.75309   0.00000  Uiso   1.00
O854   O     0.10884   0.75202   0.94269   0.00000  Uiso   1.00
O855   O     0.03614   0.75369   0.74690   0.00000  Uiso   1.00
O856   O     0.05822   0.90368   0.74501   0.00000  Uiso   1.00
O857   O     0.27512   0.76298   0.75498   0.00000  Uiso   1.00
O858   O     0.30328   0.84063   0.82247   0.00000  Uiso   1.00
O859   O     0.03005   0.82603   0.67753   0.00000  Uiso   1.00
O860   O     0.06431   0.83134   0.81439   0.00000  Uiso   1.00
O861   O     0.26902   0.83533   0.68561   0.00000  Uiso   1.00
O862   O     0.16791   0.87366   0.61552   0.00000  Uiso   1.00
Zn863  Zn    0.27033   0.83954   0.75539   0.00000  Uiso   1.00
Zn864  Zn    0.06300   0.82713   0.74460   0.00000  Uiso   1.00
C865   C     0.34840   0.93158   0.74884   0.00000  Uiso   1.00
C866   C     0.64563   0.83185   0.65864   0.00000  Uiso   1.00
C867   C     0.36854   0.85469   0.89234   0.00000  Uiso   1.00
C868   C     0.63675   0.83525   0.60528   0.00000  Uiso   1.00
C869   C     0.37587   0.92880   0.95123   0.00000  Uiso   1.00
C870   C     0.65952   0.80307   0.52469   0.00000  Uiso   1.00
C871   C     0.34750   0.90096   0.91075   0.00000  Uiso   1.00
C872   C     0.33931   0.80907   0.57492   0.00000  Uiso   1.00
C873   C     0.41465   0.83366   0.91705   0.00000  Uiso   1.00
C874   C     0.59107   0.86179   0.58445   0.00000  Uiso   1.00
C875   C     0.45003   0.86676   0.95102   0.00000  Uiso   1.00
C876   C     0.65161   0.73510   0.75126   0.00000  Uiso   1.00
C877   C     0.57936   0.85788   0.53278   0.00000  Uiso   1.00
C878   C     0.42834   0.91320   0.97032   0.00000  Uiso   1.00
C879   C     0.61106   0.82422   0.50398   0.00000  Uiso   1.00
C880   C     0.50655   0.85601   0.96573   0.00000  Uiso   1.00
C881   C     0.53272   0.88099   0.50927   0.00000  Uiso   1.00
C882   C     0.55228   0.88756   0.61742   0.00000  Uiso   1.00
C883   C     0.42022   0.77628   0.91014   0.00000  Uiso   1.00
C884   C     0.51191   0.92815   0.52676   0.00000  Uiso   1.00
C885   C     0.53927   0.82407   0.93690   0.00000  Uiso   1.00
C886   C     0.46046   0.94435   0.50705   0.00000  Uiso   1.00
C887   C     0.59211   0.80989   0.95536   0.00000  Uiso   1.00
C888   C     0.35626   0.98614   0.74824   0.00000  Uiso   1.00
C889   C     0.64377   0.68053   0.75200   0.00000  Uiso   1.00
C890   C     0.35490   0.83822   0.84115   0.00000  Uiso   1.00
H891   H     0.44539   0.98074   0.52110   0.00000  Uiso   1.00
H892   H     0.60060   0.99670   0.75555   0.00000  Uiso   1.00
H893   H     0.49565   0.79154   0.71375   0.00000  Uiso   1.00
H894   H     0.50436   0.87513   0.78625   0.00000  Uiso   1.00
H895   H     0.56972   0.91753   0.64488   0.00000  Uiso   1.00
H896   H     0.40184   0.75459   0.87706   0.00000  Uiso   1.00
H897   H     0.61610   0.78466   0.93278   0.00000  Uiso   1.00
H898   H     0.37525   0.78975   0.59043   0.00000  Uiso   1.00
H899   H     0.64454   0.91710   0.89211   0.00000  Uiso   1.00
H900   H     0.35928   0.96461   0.96502   0.00000  Uiso   1.00
H901   H     0.35193   0.77914   0.50250   0.00000  Uiso   1.00
H902   H     0.53593   0.95345   0.55486   0.00000  Uiso   1.00
H903   H     0.52470   0.81064   0.89974   0.00000  Uiso   1.00
H904   H     0.39944   0.66998   0.74469   0.00000  Uiso   1.00
N905   N     0.48029   0.81883   0.73739   0.00000  Uiso   1.00
N906   N     0.51971   0.84784   0.76260   0.00000  Uiso   1.00
O907   O     0.63052   0.91298   0.75309   0.00000  Uiso   1.00
O908   O     0.44217   0.75202   0.94269   0.00000  Uiso   1.00
O909   O     0.36948   0.75369   0.74690   0.00000  Uiso   1.00
O910   O     0.39155   0.90368   0.74501   0.00000  Uiso   1.00
O911   O     0.60845   0.76298   0.75498   0.00000  Uiso   1.00
O912   O     0.63662   0.84063   0.82247   0.00000  Uiso   1.00
O913   O     0.36338   0.82603   0.67753   0.00000  Uiso   1.00
O914   O     0.39764   0.83134   0.81439   0.00000  Uiso   1.00
O915   O     0.60236   0.83533   0.68561   0.00000  Uiso   1.00
O916   O     0.50124   0.87366   0.61552   0.00000  Uiso   1.00
Zn917  Zn    0.60366   0.83954   0.75539   0.00000  Uiso   1.00
Zn918  Zn    0.39634   0.82713   0.74460   0.00000  Uiso   1.00
C919   C     0.68174   0.93158   0.74884   0.00000  Uiso   1.00
C920   C     0.97896   0.83185   0.65864   0.00000  Uiso   1.00
C921   C     0.70187   0.85469   0.89234   0.00000  Uiso   1.00
C922   C     0.97008   0.83525   0.60528   0.00000  Uiso   1.00
C923   C     0.70921   0.92880   0.95123   0.00000  Uiso   1.00
C924   C     0.99286   0.80307   0.52469   0.00000  Uiso   1.00
C925   C     0.68083   0.90096   0.91075   0.00000  Uiso   1.00
C926   C     0.67264   0.80907   0.57492   0.00000  Uiso   1.00
C927   C     0.74798   0.83366   0.91705   0.00000  Uiso   1.00
C928   C     0.92440   0.86179   0.58445   0.00000  Uiso   1.00
C929   C     0.78336   0.86676   0.95102   0.00000  Uiso   1.00
C930   C     0.98495   0.73510   0.75126   0.00000  Uiso   1.00
C931   C     0.91269   0.85788   0.53278   0.00000  Uiso   1.00
C932   C     0.76167   0.91320   0.97032   0.00000  Uiso   1.00
C933   C     0.94439   0.82422   0.50398   0.00000  Uiso   1.00
C934   C     0.83989   0.85601   0.96573   0.00000  Uiso   1.00
C935   C     0.86605   0.88099   0.50927   0.00000  Uiso   1.00
C936   C     0.88561   0.88756   0.61742   0.00000  Uiso   1.00
C937   C     0.75356   0.77628   0.91014   0.00000  Uiso   1.00
C938   C     0.84525   0.92815   0.52676   0.00000  Uiso   1.00
C939   C     0.87260   0.82407   0.93690   0.00000  Uiso   1.00
C940   C     0.79380   0.94435   0.50705   0.00000  Uiso   1.00
C941   C     0.92545   0.80989   0.95536   0.00000  Uiso   1.00
C942   C     0.68960   0.98614   0.74824   0.00000  Uiso   1.00
C943   C     0.97711   0.68053   0.75200   0.00000  Uiso   1.00
C944   C     0.68823   0.83822   0.84115   0.00000  Uiso   1.00
H945   H     0.77872   0.98074   0.52110   0.00000  Uiso   1.00
H946   H     0.93393   0.99670   0.75555   0.00000  Uiso   1.00
H947   H     0.82898   0.79154   0.71375   0.00000  Uiso   1.00
H948   H     0.83769   0.87513   0.78625   0.00000  Uiso   1.00
H949   H     0.90305   0.91753   0.64488   0.00000  Uiso   1.00
H950   H     0.73518   0.75459   0.87706   0.00000  Uiso   1.00
H951   H     0.94943   0.78466   0.93278   0.00000  Uiso   1.00
H952   H     0.70858   0.78975   0.59043   0.00000  Uiso   1.00
H953   H     0.97788   0.91710   0.89211   0.00000  Uiso   1.00
H954   H     0.69261   0.96461   0.96502   0.00000  Uiso   1.00
H955   H     0.68527   0.77914   0.50250   0.00000  Uiso   1.00
H956   H     0.86927   0.95345   0.55486   0.00000  Uiso   1.00
H957   H     0.85803   0.81064   0.89974   0.00000  Uiso   1.00
H958   H     0.73277   0.66998   0.74469   0.00000  Uiso   1.00
N959   N     0.81362   0.81883   0.73739   0.00000  Uiso   1.00
N960   N     0.85305   0.84784   0.76260   0.00000  Uiso   1.00
O961   O     0.96386   0.91298   0.75309   0.00000  Uiso   1.00
O962   O     0.77550   0.75202   0.94269   0.00000  Uiso   1.00
O963   O     0.70281   0.75369   0.74690   0.00000  Uiso   1.00
O964   O     0.72488   0.90368   0.74501   0.00000  Uiso   1.00
O965   O     0.94178   0.76298   0.75498   0.00000  Uiso   1.00
O966   O     0.96995   0.84063   0.82247   0.00000  Uiso   1.00
O967   O     0.69672   0.82603   0.67753   0.00000  Uiso   1.00
O968   O     0.73098   0.83134   0.81439   0.00000  Uiso   1.00
O969   O     0.93569   0.83533   0.68561   0.00000  Uiso   1.00
O970   O     0.83458   0.87366   0.61552   0.00000  Uiso   1.00
Zn971  Zn    0.93700   0.83954   0.75539   0.00000  Uiso   1.00
Zn972  Zn    0.72967   0.82713   0.74460   0.00000  Uiso   1.00
loop_
_geom_bond_atom_site_label_1
_geom_bond_atom_site_label_2
_geom_bond_distance
_geom_bond_site_symmetry_2
_ccdc_geom_bond_type
C1     O46     1.289   .     A
C1     C24     1.402   .     S
C1     O151    1.276   1_455 S
C2     C4      1.469   .     S
C2     O51     1.299   .     A
C2     O103    1.296   .     S
C3     C9      1.396   .     A
C3     C7      1.402   .     A
C3     C26     1.450   .     S
C4     C10     1.416   .     A
C4     C62     1.402   .     S
C5     C14     1.400   .     A
C5     H36     1.084   .     S
C5     C7      1.391   .     A
C6     C15     1.396   .     A
C6     C62     1.387   .     S
C6     H91     1.083   .     S
C7     H143    1.083   1_455 S
C8     H34     1.083   .     S
C8     C112    1.402   1_455 S
C8     C114    1.387   1_455 S
C9     C11     1.411   .     A
C9     C19     1.493   .     S
C10    C18     1.487   .     S
C10    C13     1.419   .     A
C11    C14     1.421   .     A
C11    C16     1.412   .     A
C12    C25     1.402   .     S
C12    O47     1.289   .     A
C12    O99     1.276   .     S
C13    C17     1.417   .     A
C13    C15     1.421   .     A
C14    C508    1.396   .     S
C15    C509    1.397   1_554 S
C16    C21     1.410   .     A
C16    C503    1.406   .     S
C17    C20     1.411   .     A
C17    C502    1.406   1_554 S
C18    O52     1.222   .     D
C18    H31     1.086   .     S
C19    H32     1.085   .     S
C19    O44     1.221   .     D
C20    H38     1.081   .     S
C20    C22     1.390   .     A
C21    H39     1.082   .     S
C21    C23     1.389   .     A
C22    H27     1.084   .     S
C22    C500    1.396   1_554 S
C23    H33     1.084   .     S
C23    C501    1.397   .     S
C24    C295    1.339   1_455 S
C24    H202    1.088   .     S
C25    C402    1.339   1_545 S
C25    H352    1.088   1_545 S
C26    O50     1.296   .     A
C26    O156    1.291   1_455 S
H28    C187    1.088   .     S
H29    N41     1.029   .     S
H30    N42     1.029   .     S
H35    C61     1.083   .     S
H37    C114    1.083   1_455 S
H40    C348    1.088   1_545 S
N41    N42     1.285   .     D
N41    Zn54    2.018   .     S
N42    Zn53    2.018   .     S
O43    Zn53    1.951   .     S
O43    C55     1.276   .     S
O45    Zn54    1.951   .     S
O45    C120    1.276   1_455 S
O46    Zn54    1.978   .     S
O47    Zn53    1.978   .     S
O48    Zn53    1.942   .     S
O48    C80     1.291   .     S
O49    Zn54    1.942   .     S
O49    C110    1.296   1_455 S
O50    Zn54    1.905   .     S
O51    Zn53    1.905   .     S
C55    O100    1.289   .     A
C55    C78     1.402   .     S
C56    C58     1.469   .     S
C56    O105    1.299   .     A
C56    O157    1.296   .     S
C57    C63     1.396   .     A
C57    C61     1.402   .     A
C57    C80     1.450   .     S
C58    C64     1.416   .     A
C58    C116    1.402   .     S
C59    C68     1.400   .     A
C59    H90     1.084   .     S
C59    C61     1.391   .     A
C60    C69     1.396   .     A
C60    C116    1.387   .     S
C60    H145    1.083   .     S
C62    H88     1.083   .     S
C63    C65     1.411   .     A
C63    C73     1.493   .     S
C64    C72     1.487   .     S
C64    C67     1.419   .     A
C65    C68     1.421   .     A
C65    C70     1.412   .     A
C66    C79     1.402   .     S
C66    O101    1.289   .     A
C66    O153    1.276   .     S
C67    C71     1.417   .     A
C67    C69     1.421   .     A
C68    C562    1.396   .     S
C69    C563    1.397   1_554 S
C70    C75     1.410   .     A
C70    C557    1.406   .     S
C71    C74     1.411   .     A
C71    C556    1.406   1_554 S
C72    O106    1.222   .     D
C72    H85     1.086   .     S
C73    H86     1.085   .     S
C73    O98     1.221   .     D
C74    H92     1.081   .     S
C74    C76     1.390   .     A
C75    H93     1.082   .     S
C75    C77     1.389   .     A
C76    H81     1.084   .     S
C76    C554    1.396   1_554 S
C77    H87     1.084   .     S
C77    C555    1.397   .     S
C78    C187    1.339   .     S
C78    H256    1.088   .     S
C79    C456    1.339   1_545 S
C79    H406    1.088   1_545 S
C80    O104    1.296   .     A
H82    C241    1.088   .     S
H83    N95     1.029   .     S
H84    N96     1.029   .     S
H89    C115    1.083   .     S
H94    C402    1.088   1_545 S
N95    N96     1.285   .     D
N95    Zn108   2.018   .     S
N96    Zn107   2.018   .     S
O97    Zn107   1.951   .     S
O97    C109    1.276   .     S
O99    Zn108   1.951   .     S
O100   Zn108   1.978   .     S
O101   Zn107   1.978   .     S
O102   Zn107   1.942   .     S
O102   C134    1.291   .     S
O103   Zn108   1.942   .     S
O104   Zn108   1.905   .     S
O105   Zn107   1.905   .     S
C109   O154    1.289   .     A
C109   C132    1.402   .     S
C110   C112    1.469   .     S
C110   O159    1.299   .     A
C110   O49     1.296   1_655 S
C111   C117    1.396   .     A
C111   C115    1.402   .     A
C111   C134    1.450   .     S
C112   C118    1.416   .     A
C112   C8      1.402   1_655 S
C113   C122    1.400   .     A
C113   H144    1.084   .     S
C113   C115    1.391   .     A
C114   C123    1.396   .     A
C114   C8      1.387   1_655 S
C114   H37     1.083   1_655 S
C116   H142    1.083   .     S
C117   C119    1.411   .     A
C117   C127    1.493   .     S
C118   C126    1.487   .     S
C118   C121    1.419   .     A
C119   C122    1.421   .     A
C119   C124    1.412   .     A
C120   C133    1.402   .     S
C120   O155    1.289   .     A
C120   O45     1.276   1_655 S
C121   C125    1.417   .     A
C121   C123    1.421   .     A
C122   C616    1.396   .     S
C123   C617    1.397   1_554 S
C124   C129    1.410   .     A
C124   C611    1.406   .     S
C125   C128    1.411   .     A
C125   C610    1.406   1_554 S
C126   O160    1.222   .     D
C126   H139    1.086   .     S
C127   H140    1.085   .     S
C127   O152    1.221   .     D
C128   H146    1.081   .     S
C128   C130    1.390   .     A
C129   H147    1.082   .     S
C129   C131    1.389   .     A
C130   H135    1.084   .     S
C130   C608    1.396   1_554 S
C131   H141    1.084   .     S
C131   C609    1.397   .     S
C132   C241    1.339   .     S
C132   H310    1.088   .     S
C133   C348    1.339   1_645 S
C133   H460    1.088   1_545 S
C134   O158    1.296   .     A
H136   C295    1.088   .     S
H137   N149    1.029   .     S
H138   N150    1.029   .     S
H143   C7      1.083   1_655 S
H148   C456    1.088   1_545 S
N149   N150    1.285   .     D
N149   Zn162   2.018   .     S
N150   Zn161   2.018   .     S
O151   Zn161   1.951   .     S
O151   C1      1.276   1_655 S
O153   Zn162   1.951   .     S
O154   Zn162   1.978   .     S
O155   Zn161   1.978   .     S
O156   Zn161   1.942   .     S
O156   C26     1.291   1_655 S
O157   Zn162   1.942   .     S
O158   Zn162   1.905   .     S
O159   Zn161   1.905   .     S
C163   O208    1.289   .     A
C163   C186    1.402   .     S
C163   O313    1.276   1_455 S
C164   C166    1.469   .     S
C164   O213    1.299   .     A
C164   O265    1.296   .     S
C165   C171    1.396   .     A
C165   C169    1.402   .     A
C165   C188    1.450   .     S
C166   C172    1.416   .     A
C166   C224    1.402   .     S
C167   C176    1.400   .     A
C167   H198    1.084   .     S
C167   C169    1.391   .     A
C168   C177    1.396   .     A
C168   C224    1.387   .     S
C168   H253    1.083   .     S
C169   H305    1.083   1_455 S
C170   H196    1.083   .     S
C170   C274    1.402   1_455 S
C170   C276    1.387   1_455 S
C171   C173    1.411   .     A
C171   C181    1.493   .     S
C172   C180    1.487   .     S
C172   C175    1.419   .     A
C173   C176    1.421   .     A
C173   C178    1.412   .     A
C174   C187    1.402   .     S
C174   O209    1.289   .     A
C174   O261    1.276   .     S
C175   C179    1.417   .     A
C175   C177    1.421   .     A
C176   C670    1.396   .     S
C177   C671    1.397   1_554 S
C178   C183    1.410   .     A
C178   C665    1.406   .     S
C179   C182    1.411   .     A
C179   C664    1.406   1_554 S
C180   O214    1.222   .     D
C180   H193    1.086   .     S
C181   H194    1.085   .     S
C181   O206    1.221   .     D
C182   H200    1.081   .     S
C182   C184    1.390   .     A
C183   H201    1.082   .     S
C183   C185    1.389   .     A
C184   H189    1.084   .     S
C184   C662    1.396   1_554 S
C185   H195    1.084   .     S
C185   C663    1.397   .     S
C186   C457    1.339   1_455 S
C186   H364    1.088   .     S
C188   O212    1.296   .     A
C188   O318    1.291   1_455 S
H190   C349    1.088   .     S
H191   N203    1.029   .     S
H192   N204    1.029   .     S
H197   C223    1.083   .     S
H199   C276    1.083   1_455 S
N203   N204    1.285   .     D
N203   Zn216   2.018   .     S
N204   Zn215   2.018   .     S
O205   Zn215   1.951   .     S
O205   C217    1.276   .     S
O207   Zn216   1.951   .     S
O207   C282    1.276   1_455 S
O208   Zn216   1.978   .     S
O209   Zn215   1.978   .     S
O210   Zn215   1.942   .     S
O210   C242    1.291   .     S
O211   Zn216   1.942   .     S
O211   C272    1.296   1_455 S
O212   Zn216   1.905   .     S
O213   Zn215   1.905   .     S
C217   O262    1.289   .     A
C217   C240    1.402   .     S
C218   C220    1.469   .     S
C218   O267    1.299   .     A
C218   O319    1.296   .     S
C219   C225    1.396   .     A
C219   C223    1.402   .     A
C219   C242    1.450   .     S
C220   C226    1.416   .     A
C220   C278    1.402   .     S
C221   C230    1.400   .     A
C221   H252    1.084   .     S
C221   C223    1.391   .     A
C222   C231    1.396   .     A
C222   C278    1.387   .     S
C222   H307    1.083   .     S
C224   H250    1.083   .     S
C225   C227    1.411   .     A
C225   C235    1.493   .     S
C226   C234    1.487   .     S
C226   C229    1.419   .     A
C227   C230    1.421   .     A
C227   C232    1.412   .     A
C228   C241    1.402   .     S
C228   O263    1.289   .     A
C228   O315    1.276   .     S
C229   C233    1.417   .     A
C229   C231    1.421   .     A
C230   C724    1.396   .     S
C231   C725    1.397   1_554 S
C232   C237    1.410   .     A
C232   C719    1.406   .     S
C233   C236    1.411   .     A
C233   C718    1.406   1_554 S
C234   O268    1.222   .     D
C234   H247    1.086   .     S
C235   H248    1.085   .     S
C235   O260    1.221   .     D
C236   H254    1.081   .     S
C236   C238    1.390   .     A
C237   H255    1.082   .     S
C237   C239    1.389   .     A
C238   H243    1.084   .     S
C238   C716    1.396   1_554 S
C239   H249    1.084   .     S
C239   C717    1.397   .     S
C240   C349    1.339   .     S
C240   H418    1.088   .     S
C242   O266    1.296   .     A
H244   C403    1.088   .     S
H245   N257    1.029   .     S
H246   N258    1.029   .     S
H251   C277    1.083   .     S
N257   N258    1.285   .     D
N257   Zn270   2.018   .     S
N258   Zn269   2.018   .     S
O259   Zn269   1.951   .     S
O259   C271    1.276   .     S
O261   Zn270   1.951   .     S
O262   Zn270   1.978   .     S
O263   Zn269   1.978   .     S
O264   Zn269   1.942   .     S
O264   C296    1.291   .     S
O265   Zn270   1.942   .     S
O266   Zn270   1.905   .     S
O267   Zn269   1.905   .     S
C271   O316    1.289   .     A
C271   C294    1.402   .     S
C272   C274    1.469   .     S
C272   O321    1.299   .     A
C272   O211    1.296   1_655 S
C273   C279    1.396   .     A
C273   C277    1.402   .     A
C273   C296    1.450   .     S
C274   C280    1.416   .     A
C274   C170    1.402   1_655 S
C275   C284    1.400   .     A
C275   H306    1.084   .     S
C275   C277    1.391   .     A
C276   C285    1.396   .     A
C276   C170    1.387   1_655 S
C276   H199    1.083   1_655 S
C278   H304    1.083   .     S
C279   C281    1.411   .     A
C279   C289    1.493   .     S
C280   C288    1.487   .     S
C280   C283    1.419   .     A
C281   C284    1.421   .     A
C281   C286    1.412   .     A
C282   C295    1.402   .     S
C282   O317    1.289   .     A
C282   O207    1.276   1_655 S
C283   C287    1.417   .     A
C283   C285    1.421   .     A
C284   C778    1.396   .     S
C285   C779    1.397   1_554 S
C286   C291    1.410   .     A
C286   C773    1.406   .     S
C287   C290    1.411   .     A
C287   C772    1.406   1_554 S
C288   O322    1.222   .     D
C288   H301    1.086   .     S
C289   H302    1.085   .     S
C289   O314    1.221   .     D
C290   H308    1.081   .     S
C290   C292    1.390   .     A
C291   H309    1.082   .     S
C291   C293    1.389   .     A
C292   H297    1.084   .     S
C292   C770    1.396   1_554 S
C293   H303    1.084   .     S
C293   C771    1.397   .     S
C294   C403    1.339   .     S
C294   H472    1.088   .     S
C295   C24     1.339   1_655 S
C296   O320    1.296   .     A
H298   C457    1.088   .     S
H299   N311    1.029   .     S
H300   N312    1.029   .     S
H305   C169    1.083   1_655 S
N311   N312    1.285   .     D
N311   Zn324   2.018   .     S
N312   Zn323   2.018   .     S
O313   Zn323   1.951   .     S
O313   C163    1.276   1_655 S
O315   Zn324   1.951   .     S
O316   Zn324   1.978   .     S
O317   Zn323   1.978   .     S
O318   Zn323   1.942   .     S
O318   C188    1.291   1_655 S
O319   Zn324   1.942   .     S
O320   Zn324   1.905   .     S
O321   Zn323   1.905   .     S
C325   O370    1.289   .     A
C325   C348    1.402   .     S
C325   O475    1.276   1_455 S
C326   C328    1.469   .     S
C326   O375    1.299   .     A
C326   O427    1.296   .     S
C327   C333    1.396   .     A
C327   C331    1.402   .     A
C327   C350    1.450   .     S
C328   C334    1.416   .     A
C328   C386    1.402   .     S
C329   C338    1.400   .     A
C329   H360    1.084   .     S
C329   C331    1.391   .     A
C330   C339    1.396   .     A
C330   C386    1.387   .     S
C330   H415    1.083   .     S
C331   H467    1.083   1_455 S
C332   H358    1.083   .     S
C332   C436    1.402   1_455 S
C332   C438    1.387   1_455 S
C333   C335    1.411   .     A
C333   C343    1.493   .     S
C334   C342    1.487   .     S
C334   C337    1.419   .     A
C335   C338    1.421   .     A
C335   C340    1.412   .     A
C336   C349    1.402   .     S
C336   O371    1.289   .     A
C336   O423    1.276   .     S
C337   C341    1.417   .     A
C337   C339    1.421   .     A
C338   C832    1.396   .     S
C339   C833    1.397   1_554 S
C340   C345    1.410   .     A
C340   C827    1.406   .     S
C341   C344    1.411   .     A
C341   C826    1.406   1_554 S
C342   O376    1.222   .     D
C342   H355    1.086   .     S
C343   H356    1.085   .     S
C343   O368    1.221   .     D
C344   H362    1.081   .     S
C344   C346    1.390   .     A
C345   H363    1.082   .     S
C345   C347    1.389   .     A
C346   H351    1.084   .     S
C346   C824    1.396   1_554 S
C347   H357    1.084   .     S
C347   C825    1.397   .     S
C348   C133    1.339   1_465 S
C348   H40     1.088   1_565 S
C350   O374    1.296   .     A
C350   O480    1.291   1_455 S
H352   C25     1.088   1_565 S
H353   N365    1.029   .     S
H354   N366    1.029   .     S
H359   C385    1.083   .     S
H361   C438    1.083   1_455 S
N365   N366    1.285   .     D
N365   Zn378   2.018   .     S
N366   Zn377   2.018   .     S
O367   Zn377   1.951   .     S
O367   C379    1.276   .     S
O369   Zn378   1.951   .     S
O369   C444    1.276   1_455 S
O370   Zn378   1.978   .     S
O371   Zn377   1.978   .     S
O372   Zn377   1.942   .     S
O372   C404    1.291   .     S
O373   Zn378   1.942   .     S
O373   C434    1.296   1_455 S
O374   Zn378   1.905   .     S
O375   Zn377   1.905   .     S
C379   O424    1.289   .     A
C379   C402    1.402   .     S
C380   C382    1.469   .     S
C380   O429    1.299   .     A
C380   O481    1.296   .     S
C381   C387    1.396   .     A
C381   C385    1.402   .     A
C381   C404    1.450   .     S
C382   C388    1.416   .     A
C382   C440    1.402   .     S
C383   C392    1.400   .     A
C383   H414    1.084   .     S
C383   C385    1.391   .     A
C384   C393    1.396   .     A
C384   C440    1.387   .     S
C384   H469    1.083   .     S
C386   H412    1.083   .     S
C387   C389    1.411   .     A
C387   C397    1.493   .     S
C388   C396    1.487   .     S
C388   C391    1.419   .     A
C389   C392    1.421   .     A
C389   C394    1.412   .     A
C390   C403    1.402   .     S
C390   O425    1.289   .     A
C390   O477    1.276   .     S
C391   C395    1.417   .     A
C391   C393    1.421   .     A
C392   C886    1.396   .     S
C393   C887    1.397   1_554 S
C394   C399    1.410   .     A
C394   C881    1.406   .     S
C395   C398    1.411   .     A
C395   C880    1.406   1_554 S
C396   O430    1.222   .     D
C396   H409    1.086   .     S
C397   H410    1.085   .     S
C397   O422    1.221   .     D
C398   H416    1.081   .     S
C398   C400    1.390   .     A
C399   H417    1.082   .     S
C399   C401    1.389   .     A
C400   H405    1.084   .     S
C400   C878    1.396   1_554 S
C401   H411    1.084   .     S
C401   C879    1.397   .     S
C402   C25     1.339   1_565 S
C402   H94     1.088   1_565 S
C404   O428    1.296   .     A
H406   C79     1.088   1_565 S
H407   N419    1.029   .     S
H408   N420    1.029   .     S
H413   C439    1.083   .     S
N419   N420    1.285   .     D
N419   Zn432   2.018   .     S
N420   Zn431   2.018   .     S
O421   Zn431   1.951   .     S
O421   C433    1.276   .     S
O423   Zn432   1.951   .     S
O424   Zn432   1.978   .     S
O425   Zn431   1.978   .     S
O426   Zn431   1.942   .     S
O426   C458    1.291   .     S
O427   Zn432   1.942   .     S
O428   Zn432   1.905   .     S
O429   Zn431   1.905   .     S
C433   O478    1.289   .     A
C433   C456    1.402   .     S
C434   C436    1.469   .     S
C434   O483    1.299   .     A
C434   O373    1.296   1_655 S
C435   C441    1.396   .     A
C435   C439    1.402   .     A
C435   C458    1.450   .     S
C436   C442    1.416   .     A
C436   C332    1.402   1_655 S
C437   C446    1.400   .     A
C437   H468    1.084   .     S
C437   C439    1.391   .     A
C438   C447    1.396   .     A
C438   C332    1.387   1_655 S
C438   H361    1.083   1_655 S
C440   H466    1.083   .     S
C441   C443    1.411   .     A
C441   C451    1.493   .     S
C442   C450    1.487   .     S
C442   C445    1.419   .     A
C443   C446    1.421   .     A
C443   C448    1.412   .     A
C444   C457    1.402   .     S
C444   O479    1.289   .     A
C444   O369    1.276   1_655 S
C445   C449    1.417   .     A
C445   C447    1.421   .     A
C446   C940    1.396   .     S
C447   C941    1.397   1_554 S
C448   C453    1.410   .     A
C448   C935    1.406   .     S
C449   C452    1.411   .     A
C449   C934    1.406   1_554 S
C450   O484    1.222   .     D
C450   H463    1.086   .     S
C451   H464    1.085   .     S
C451   O476    1.221   .     D
C452   H470    1.081   .     S
C452   C454    1.390   .     A
C453   H471    1.082   .     S
C453   C455    1.389   .     A
C454   H459    1.084   .     S
C454   C932    1.396   1_554 S
C455   H465    1.084   .     S
C455   C933    1.397   .     S
C456   C79     1.339   1_565 S
C456   H148    1.088   1_565 S
C457   C186    1.339   1_655 S
C458   O482    1.296   .     A
H460   C133    1.088   1_565 S
H461   N473    1.029   .     S
H462   N474    1.029   .     S
H467   C331    1.083   1_655 S
N473   N474    1.285   .     D
N473   Zn486   2.018   .     S
N474   Zn485   2.018   .     S
O475   Zn485   1.951   .     S
O475   C325    1.276   1_655 S
O477   Zn486   1.951   .     S
O478   Zn486   1.978   .     S
O479   Zn485   1.978   .     S
O480   Zn485   1.942   .     S
O480   C350    1.291   1_655 S
O481   Zn486   1.942   .     S
O482   Zn486   1.905   .     S
O483   Zn485   1.905   .     S
C487   O532    1.289   .     A
C487   C510    1.402   .     S
C487   O637    1.276   1_455 S
C488   C490    1.469   .     S
C488   O537    1.299   .     A
C488   O589    1.296   .     S
C489   C495    1.396   .     A
C489   C493    1.402   .     A
C489   C512    1.450   .     S
C490   C496    1.416   .     A
C490   C548    1.402   .     S
C491   C500    1.400   .     A
C491   H522    1.084   .     S
C491   C493    1.391   .     A
C492   C501    1.396   .     A
C492   C548    1.387   .     S
C492   H577    1.083   .     S
C493   H629    1.083   1_455 S
C494   H520    1.083   .     S
C494   C598    1.402   1_455 S
C494   C600    1.387   1_455 S
C495   C497    1.411   .     A
C495   C505    1.493   .     S
C496   C504    1.487   .     S
C496   C499    1.419   .     A
C497   C500    1.421   .     A
C497   C502    1.412   .     A
C498   C511    1.402   .     S
C498   O533    1.289   .     A
C498   O585    1.276   .     S
C499   C503    1.417   .     A
C499   C501    1.421   .     A
C500   C22     1.396   1_556 S
C502   C507    1.410   .     A
C502   C17     1.406   1_556 S
C503   C506    1.411   .     A
C504   O538    1.222   .     D
C504   H517    1.086   .     S
C505   H518    1.085   .     S
C505   O530    1.221   .     D
C506   H524    1.081   .     S
C506   C508    1.390   .     A
C507   H525    1.082   .     S
C507   C509    1.389   .     A
C508   H513    1.084   .     S
C509   H519    1.084   .     S
C509   C15     1.397   1_556 S
C510   C781    1.339   1_455 S
C510   H688    1.088   .     S
C511   C888    1.339   1_545 S
C511   H838    1.088   1_545 S
C512   O536    1.296   .     A
C512   O642    1.291   1_455 S
H514   C673    1.088   .     S
H515   N527    1.029   .     S
H516   N528    1.029   .     S
H521   C547    1.083   .     S
H523   C600    1.083   1_455 S
H526   C834    1.088   1_545 S
N527   N528    1.285   .     D
N527   Zn540   2.018   .     S
N528   Zn539   2.018   .     S
O529   Zn539   1.951   .     S
O529   C541    1.276   .     S
O531   Zn540   1.951   .     S
O531   C606    1.276   1_455 S
O532   Zn540   1.978   .     S
O533   Zn539   1.978   .     S
O534   Zn539   1.942   .     S
O534   C566    1.291   .     S
O535   Zn540   1.942   .     S
O535   C596    1.296   1_455 S
O536   Zn540   1.905   .     S
O537   Zn539   1.905   .     S
C541   O586    1.289   .     A
C541   C564    1.402   .     S
C542   C544    1.469   .     S
C542   O591    1.299   .     A
C542   O643    1.296   .     S
C543   C549    1.396   .     A
C543   C547    1.402   .     A
C543   C566    1.450   .     S
C544   C550    1.416   .     A
C544   C602    1.402   .     S
C545   C554    1.400   .     A
C545   H576    1.084   .     S
C545   C547    1.391   .     A
C546   C555    1.396   .     A
C546   C602    1.387   .     S
C546   H631    1.083   .     S
C548   H574    1.083   .     S
C549   C551    1.411   .     A
C549   C559    1.493   .     S
C550   C558    1.487   .     S
C550   C553    1.419   .     A
C551   C554    1.421   .     A
C551   C556    1.412   .     A
C552   C565    1.402   .     S
C552   O587    1.289   .     A
C552   O639    1.276   .     S
C553   C557    1.417   .     A
C553   C555    1.421   .     A
C554   C76     1.396   1_556 S
C556   C561    1.410   .     A
C556   C71     1.406   1_556 S
C557   C560    1.411   .     A
C558   O592    1.222   .     D
C558   H571    1.086   .     S
C559   H572    1.085   .     S
C559   O584    1.221   .     D
C560   H578    1.081   .     S
C560   C562    1.390   .     A
C561   H579    1.082   .     S
C561   C563    1.389   .     A
C562   H567    1.084   .     S
C563   H573    1.084   .     S
C563   C69     1.397   1_556 S
C564   C673    1.339   .     S
C564   H742    1.088   .     S
C565   C942    1.339   1_545 S
C565   H892    1.088   1_545 S
C566   O590    1.296   .     A
H568   C727    1.088   .     S
H569   N581    1.029   .     S
H570   N582    1.029   .     S
H575   C601    1.083   .     S
H580   C888    1.088   1_545 S
N581   N582    1.285   .     D
N581   Zn594   2.018   .     S
N582   Zn593   2.018   .     S
O583   Zn593   1.951   .     S
O583   C595    1.276   .     S
O585   Zn594   1.951   .     S
O586   Zn594   1.978   .     S
O587   Zn593   1.978   .     S
O588   Zn593   1.942   .     S
O588   C620    1.291   .     S
O589   Zn594   1.942   .     S
O590   Zn594   1.905   .     S
O591   Zn593   1.905   .     S
C595   O640    1.289   .     A
C595   C618    1.402   .     S
C596   C598    1.469   .     S
C596   O645    1.299   .     A
C596   O535    1.296   1_655 S
C597   C603    1.396   .     A
C597   C601    1.402   .     A
C597   C620    1.450   .     S
C598   C604    1.416   .     A
C598   C494    1.402   1_655 S
C599   C608    1.400   .     A
C599   H630    1.084   .     S
C599   C601    1.391   .     A
C600   C609    1.396   .     A
C600   C494    1.387   1_655 S
C600   H523    1.083   1_655 S
C602   H628    1.083   .     S
C603   C605    1.411   .     A
C603   C613    1.493   .     S
C604   C612    1.487   .     S
C604   C607    1.419   .     A
C605   C608    1.421   .     A
C605   C610    1.412   .     A
C606   C619    1.402   .     S
C606   O641    1.289   .     A
C606   O531    1.276   1_655 S
C607   C611    1.417   .     A
C607   C609    1.421   .     A
C608   C130    1.396   1_556 S
C610   C615    1.410   .     A
C610   C125    1.406   1_556 S
C611   C614    1.411   .     A
C612   O646    1.222   .     D
C612   H625    1.086   .     S
C613   H626    1.085   .     S
C613   O638    1.221   .     D
C614   H632    1.081   .     S
C614   C616    1.390   .     A
C615   H633    1.082   .     S
C615   C617    1.389   .     A
C616   H621    1.084   .     S
C617   H627    1.084   .     S
C617   C123    1.397   1_556 S
C618   C727    1.339   .     S
C618   H796    1.088   .     S
C619   C834    1.339   1_645 S
C619   H946    1.088   1_545 S
C620   O644    1.296   .     A
H622   C781    1.088   .     S
H623   N635    1.029   .     S
H624   N636    1.029   .     S
H629   C493    1.083   1_655 S
H634   C942    1.088   1_545 S
N635   N636    1.285   .     D
N635   Zn648   2.018   .     S
N636   Zn647   2.018   .     S
O637   Zn647   1.951   .     S
O637   C487    1.276   1_655 S
O639   Zn648   1.951   .     S
O640   Zn648   1.978   .     S
O641   Zn647   1.978   .     S
O642   Zn647   1.942   .     S
O642   C512    1.291   1_655 S
O643   Zn648   1.942   .     S
O644   Zn648   1.905   .     S
O645   Zn647   1.905   .     S
C649   O694    1.289   .     A
C649   C672    1.402   .     S
C649   O799    1.276   1_455 S
C650   C652    1.469   .     S
C650   O699    1.299   .     A
C650   O751    1.296   .     S
C651   C657    1.396   .     A
C651   C655    1.402   .     A
C651   C674    1.450   .     S
C652   C658    1.416   .     A
C652   C710    1.402   .     S
C653   C662    1.400   .     A
C653   H684    1.084   .     S
C653   C655    1.391   .     A
C654   C663    1.396   .     A
C654   C710    1.387   .     S
C654   H739    1.083   .     S
C655   H791    1.083   1_455 S
C656   H682    1.083   .     S
C656   C760    1.402   1_455 S
C656   C762    1.387   1_455 S
C657   C659    1.411   .     A
C657   C667    1.493   .     S
C658   C666    1.487   .     S
C658   C661    1.419   .     A
C659   C662    1.421   .     A
C659   C664    1.412   .     A
C660   C673    1.402   .     S
C660   O695    1.289   .     A
C660   O747    1.276   .     S
C661   C665    1.417   .     A
C661   C663    1.421   .     A
C662   C184    1.396   1_556 S
C664   C669    1.410   .     A
C664   C179    1.406   1_556 S
C665   C668    1.411   .     A
C666   O700    1.222   .     D
C666   H679    1.086   .     S
C667   H680    1.085   .     S
C667   O692    1.221   .     D
C668   H686    1.081   .     S
C668   C670    1.390   .     A
C669   H687    1.082   .     S
C669   C671    1.389   .     A
C670   H675    1.084   .     S
C671   H681    1.084   .     S
C671   C177    1.397   1_556 S
C672   C943    1.339   1_455 S
C672   H850    1.088   .     S
C674   O698    1.296   .     A
C674   O804    1.291   1_455 S
H676   C835    1.088   .     S
H677   N689    1.029   .     S
H678   N690    1.029   .     S
H683   C709    1.083   .     S
H685   C762    1.083   1_455 S
N689   N690    1.285   .     D
N689   Zn702   2.018   .     S
N690   Zn701   2.018   .     S
O691   Zn701   1.951   .     S
O691   C703    1.276   .     S
O693   Zn702   1.951   .     S
O693   C768    1.276   1_455 S
O694   Zn702   1.978   .     S
O695   Zn701   1.978   .     S
O696   Zn701   1.942   .     S
O696   C728    1.291   .     S
O697   Zn702   1.942   .     S
O697   C758    1.296   1_455 S
O698   Zn702   1.905   .     S
O699   Zn701   1.905   .     S
C703   O748    1.289   .     A
C703   C726    1.402   .     S
C704   C706    1.469   .     S
C704   O753    1.299   .     A
C704   O805    1.296   .     S
C705   C711    1.396   .     A
C705   C709    1.402   .     A
C705   C728    1.450   .     S
C706   C712    1.416   .     A
C706   C764    1.402   .     S
C707   C716    1.400   .     A
C707   H738    1.084   .     S
C707   C709    1.391   .     A
C708   C717    1.396   .     A
C708   C764    1.387   .     S
C708   H793    1.083   .     S
C710   H736    1.083   .     S
C711   C713    1.411   .     A
C711   C721    1.493   .     S
C712   C720    1.487   .     S
C712   C715    1.419   .     A
C713   C716    1.421   .     A
C713   C718    1.412   .     A
C714   C727    1.402   .     S
C714   O749    1.289   .     A
C714   O801    1.276   .     S
C715   C719    1.417   .     A
C715   C717    1.421   .     A
C716   C238    1.396   1_556 S
C718   C723    1.410   .     A
C718   C233    1.406   1_556 S
C719   C722    1.411   .     A
C720   O754    1.222   .     D
C720   H733    1.086   .     S
C721   H734    1.085   .     S
C721   O746    1.221   .     D
C722   H740    1.081   .     S
C722   C724    1.390   .     A
C723   H741    1.082   .     S
C723   C725    1.389   .     A
C724   H729    1.084   .     S
C725   H735    1.084   .     S
C725   C231    1.397   1_556 S
C726   C835    1.339   .     S
C726   H904    1.088   .     S
C728   O752    1.296   .     A
H730   C889    1.088   .     S
H731   N743    1.029   .     S
H732   N744    1.029   .     S
H737   C763    1.083   .     S
N743   N744    1.285   .     D
N743   Zn756   2.018   .     S
N744   Zn755   2.018   .     S
O745   Zn755   1.951   .     S
O745   C757    1.276   .     S
O747   Zn756   1.951   .     S
O748   Zn756   1.978   .     S
O749   Zn755   1.978   .     S
O750   Zn755   1.942   .     S
O750   C782    1.291   .     S
O751   Zn756   1.942   .     S
O752   Zn756   1.905   .     S
O753   Zn755   1.905   .     S
C757   O802    1.289   .     A
C757   C780    1.402   .     S
C758   C760    1.469   .     S
C758   O807    1.299   .     A
C758   O697    1.296   1_655 S
C759   C765    1.396   .     A
C759   C763    1.402   .     A
C759   C782    1.450   .     S
C760   C766    1.416   .     A
C760   C656    1.402   1_655 S
C761   C770    1.400   .     A
C761   H792    1.084   .     S
C761   C763    1.391   .     A
C762   C771    1.396   .     A
C762   C656    1.387   1_655 S
C762   H685    1.083   1_655 S
C764   H790    1.083   .     S
C765   C767    1.411   .     A
C765   C775    1.493   .     S
C766   C774    1.487   .     S
C766   C769    1.419   .     A
C767   C770    1.421   .     A
C767   C772    1.412   .     A
C768   C781    1.402   .     S
C768   O803    1.289   .     A
C768   O693    1.276   1_655 S
C769   C773    1.417   .     A
C769   C771    1.421   .     A
C770   C292    1.396   1_556 S
C772   C777    1.410   .     A
C772   C287    1.406   1_556 S
C773   C776    1.411   .     A
C774   O808    1.222   .     D
C774   H787    1.086   .     S
C775   H788    1.085   .     S
C775   O800    1.221   .     D
C776   H794    1.081   .     S
C776   C778    1.390   .     A
C777   H795    1.082   .     S
C777   C779    1.389   .     A
C778   H783    1.084   .     S
C779   H789    1.084   .     S
C779   C285    1.397   1_556 S
C780   C889    1.339   .     S
C780   H958    1.088   .     S
C781   C510    1.339   1_655 S
C782   O806    1.296   .     A
H784   C943    1.088   .     S
H785   N797    1.029   .     S
H786   N798    1.029   .     S
H791   C655    1.083   1_655 S
N797   N798    1.285   .     D
N797   Zn810   2.018   .     S
N798   Zn809   2.018   .     S
O799   Zn809   1.951   .     S
O799   C649    1.276   1_655 S
O801   Zn810   1.951   .     S
O802   Zn810   1.978   .     S
O803   Zn809   1.978   .     S
O804   Zn809   1.942   .     S
O804   C674    1.291   1_655 S
O805   Zn810   1.942   .     S
O806   Zn810   1.905   .     S
O807   Zn809   1.905   .     S
C811   O856    1.289   .     A
C811   C834    1.402   .     S
C811   O961    1.276   1_455 S
C812   C814    1.469   .     S
C812   O861    1.299   .     A
C812   O913    1.296   .     S
C813   C819    1.396   .     A
C813   C817    1.402   .     A
C813   C836    1.450   .     S
C814   C820    1.416   .     A
C814   C872    1.402   .     S
C815   C824    1.400   .     A
C815   H846    1.084   .     S
C815   C817    1.391   .     A
C816   C825    1.396   .     A
C816   C872    1.387   .     S
C816   H901    1.083   .     S
C817   H953    1.083   1_455 S
C818   H844    1.083   .     S
C818   C922    1.402   1_455 S
C818   C924    1.387   1_455 S
C819   C821    1.411   .     A
C819   C829    1.493   .     S
C820   C828    1.487   .     S
C820   C823    1.419   .     A
C821   C824    1.421   .     A
C821   C826    1.412   .     A
C822   C835    1.402   .     S
C822   O857    1.289   .     A
C822   O909    1.276   .     S
C823   C827    1.417   .     A
C823   C825    1.421   .     A
C824   C346    1.396   1_556 S
C826   C831    1.410   .     A
C826   C341    1.406   1_556 S
C827   C830    1.411   .     A
C828   O862    1.222   .     D
C828   H841    1.086   .     S
C829   H842    1.085   .     S
C829   O854    1.221   .     D
C830   H848    1.081   .     S
C830   C832    1.390   .     A
C831   H849    1.082   .     S
C831   C833    1.389   .     A
C832   H837    1.084   .     S
C833   H843    1.084   .     S
C833   C339    1.397   1_556 S
C834   C619    1.339   1_465 S
C834   H526    1.088   1_565 S
C836   O860    1.296   .     A
C836   O966    1.291   1_455 S
H838   C511    1.088   1_565 S
H839   N851    1.029   .     S
H840   N852    1.029   .     S
H845   C871    1.083   .     S
H847   C924    1.083   1_455 S
N851   N852    1.285   .     D
N851   Zn864   2.018   .     S
N852   Zn863   2.018   .     S
O853   Zn863   1.951   .     S
O853   C865    1.276   .     S
O855   Zn864   1.951   .     S
O855   C930    1.276   1_455 S
O856   Zn864   1.978   .     S
O857   Zn863   1.978   .     S
O858   Zn863   1.942   .     S
O858   C890    1.291   .     S
O859   Zn864   1.942   .     S
O859   C920    1.296   1_455 S
O860   Zn864   1.905   .     S
O861   Zn863   1.905   .     S
C865   O910    1.289   .     A
C865   C888    1.402   .     S
C866   C868    1.469   .     S
C866   O915    1.299   .     A
C866   O967    1.296   .     S
C867   C873    1.396   .     A
C867   C871    1.402   .     A
C867   C890    1.450   .     S
C868   C874    1.416   .     A
C868   C926    1.402   .     S
C869   C878    1.400   .     A
C869   H900    1.084   .     S
C869   C871    1.391   .     A
C870   C879    1.396   .     A
C870   C926    1.387   .     S
C870   H955    1.083   .     S
C872   H898    1.083   .     S
C873   C875    1.411   .     A
C873   C883    1.493   .     S
C874   C882    1.487   .     S
C874   C877    1.419   .     A
C875   C878    1.421   .     A
C875   C880    1.412   .     A
C876   C889    1.402   .     S
C876   O911    1.289   .     A
C876   O963    1.276   .     S
C877   C881    1.417   .     A
C877   C879    1.421   .     A
C878   C400    1.396   1_556 S
C880   C885    1.410   .     A
C880   C395    1.406   1_556 S
C881   C884    1.411   .     A
C882   O916    1.222   .     D
C882   H895    1.086   .     S
C883   H896    1.085   .     S
C883   O908    1.221   .     D
C884   H902    1.081   .     S
C884   C886    1.390   .     A
C885   H903    1.082   .     S
C885   C887    1.389   .     A
C886   H891    1.084   .     S
C887   H897    1.084   .     S
C887   C393    1.397   1_556 S
C888   C511    1.339   1_565 S
C888   H580    1.088   1_565 S
C890   O914    1.296   .     A
H892   C565    1.088   1_565 S
H893   N905    1.029   .     S
H894   N906    1.029   .     S
H899   C925    1.083   .     S
N905   N906    1.285   .     D
N905   Zn918   2.018   .     S
N906   Zn917   2.018   .     S
O907   Zn917   1.951   .     S
O907   C919    1.276   .     S
O909   Zn918   1.951   .     S
O910   Zn918   1.978   .     S
O911   Zn917   1.978   .     S
O912   Zn917   1.942   .     S
O912   C944    1.291   .     S
O913   Zn918   1.942   .     S
O914   Zn918   1.905   .     S
O915   Zn917   1.905   .     S
C919   O964    1.289   .     A
C919   C942    1.402   .     S
C920   C922    1.469   .     S
C920   O969    1.299   .     A
C920   O859    1.296   1_655 S
C921   C927    1.396   .     A
C921   C925    1.402   .     A
C921   C944    1.450   .     S
C922   C928    1.416   .     A
C922   C818    1.402   1_655 S
C923   C932    1.400   .     A
C923   H954    1.084   .     S
C923   C925    1.391   .     A
C924   C933    1.396   .     A
C924   C818    1.387   1_655 S
C924   H847    1.083   1_655 S
C926   H952    1.083   .     S
C927   C929    1.411   .     A
C927   C937    1.493   .     S
C928   C936    1.487   .     S
C928   C931    1.419   .     A
C929   C932    1.421   .     A
C929   C934    1.412   .     A
C930   C943    1.402   .     S
C930   O965    1.289   .     A
C930   O855    1.276   1_655 S
C931   C935    1.417   .     A
C931   C933    1.421   .     A
C932   C454    1.396   1_556 S
C934   C939    1.410   .     A
C934   C449    1.406   1_556 S
C935   C938    1.411   .     A
C936   O970    1.222   .     D
C936   H949    1.086   .     S
C937   H950    1.085   .     S
C937   O962    1.221   .     D
C938   H956    1.081   .     S
C938   C940    1.390   .     A
C939   H957    1.082   .     S
C939   C941    1.389   .     A
C940   H945    1.084   .     S
C941   H951    1.084   .     S
C941   C447    1.397   1_556 S
C942   C565    1.339   1_565 S
C942   H634    1.088   1_565 S
C943   C672    1.339   1_655 S
C944   O968    1.296   .     A
H946   C619    1.088   1_565 S
H947   N959    1.029   .     S
H948   N960    1.029   .     S
H953   C817    1.083   1_655 S
N959   N960    1.285   .     D
N959   Zn972   2.018   .     S
N960   Zn971   2.018   .     S
O961   Zn971   1.951   .     S
O961   C811    1.276   1_655 S
O963   Zn972   1.951   .     S
O964   Zn972   1.978   .     S
O965   Zn971   1.978   .     S
O966   Zn971   1.942   .     S
O966   C836    1.291   1_655 S
O967   Zn972   1.942   .     S
O968   Zn972   1.905   .     S
O969   Zn971   1.905   .     S
