data_str_m3_o1_o18_pcu_sym.230
_audit_creation_date              2020-01-03
_audit_creation_method            'Materials Studio'
_symmetry_space_group_name_H-M    'P1'
_symmetry_Int_Tables_number       1
_symmetry_cell_setting            triclinic
loop_
_symmetry_equiv_pos_as_xyz
  x,y,z
_cell_length_a                    29.7332
_cell_length_b                    31.9543
_cell_length_c                    30.9627
_cell_angle_alpha                 90.7475
_cell_angle_beta                  68.0538
_cell_angle_gamma                 90.5514
loop_
_atom_site_label
_atom_site_type_symbol
_atom_site_fract_x
_atom_site_fract_y
_atom_site_fract_z
_atom_site_U_iso_or_equiv
_atom_site_adp_type
_atom_site_occupancy
C1     C     0.16736   0.24650   0.24862   0.00000  Uiso   1.00
C2     C     0.16598   0.08683   0.25137   0.00000  Uiso   1.00
C3     C     0.11965   0.21226   0.04566   0.00000  Uiso   1.00
C4     C     0.22824   0.17598   0.44595   0.00000  Uiso   1.00
C5     C     0.08608   0.21722   0.02466   0.00000  Uiso   1.00
C6     C     0.26196   0.17095   0.46661   0.00000  Uiso   1.00
C7     C     0.20832   0.31300   0.21800   0.00000  Uiso   1.00
C8     C     0.12502   0.02031   0.28197   0.00000  Uiso   1.00
C9     C     0.20687   0.02268   0.22143   0.00000  Uiso   1.00
C10    C     0.12649   0.31063   0.27857   0.00000  Uiso   1.00
C11    C     0.16566   0.04264   0.25244   0.00000  Uiso   1.00
C12    C     0.16769   0.29068   0.24755   0.00000  Uiso   1.00
C13    C     0.31601   0.13412   0.23098   0.00000  Uiso   1.00
C14    C     0.01731   0.19919   0.26906   0.00000  Uiso   1.00
C15    C     0.03053   0.13401   0.23051   0.00000  Uiso   1.00
C16    C     0.30279   0.19931   0.26954   0.00000  Uiso   1.00
C17    C     0.13637   0.16732   0.33792   0.00000  Uiso   1.00
C18    C     0.19701   0.16731   0.16211   0.00000  Uiso   1.00
C19    C     0.11845   0.17439   0.38809   0.00000  Uiso   1.00
C20    C     0.21608   0.17111   0.11160   0.00000  Uiso   1.00
C21    C     0.06239   0.20682   0.45829   0.00000  Uiso   1.00
C22    C     0.28006   0.16327   0.03600   0.00000  Uiso   1.00
C23    C     0.07352   0.19306   0.41249   0.00000  Uiso   1.00
C24    C     0.26448   0.16219   0.08434   0.00000  Uiso   1.00
C25    C     0.15127   0.16878   0.40981   0.00000  Uiso   1.00
C26    C     0.18433   0.18353   0.09064   0.00000  Uiso   1.00
C27    C     0.14298   0.18598   0.45365   0.00000  Uiso   1.00
C28    C     0.19913   0.18523   0.04231   0.00000  Uiso   1.00
C29    C     0.09686   0.20336   0.47909   0.00000  Uiso   1.00
C30    C     0.24741   0.17357   0.01479   0.00000  Uiso   1.00
C31    C     0.17915   0.18524   0.47302   0.00000  Uiso   1.00
C32    C     0.16587   0.19458   0.02089   0.00000  Uiso   1.00
H33    H     0.05121   0.23111   0.04450   0.00000  Uiso   1.00
H34    H     0.29900   0.16310   0.44497   0.00000  Uiso   1.00
H35    H     0.14717   0.18948   0.11269   0.00000  Uiso   1.00
H36    H     0.18388   0.15135   0.39135   0.00000  Uiso   1.00
H37    H     0.28965   0.15298   0.10025   0.00000  Uiso   1.00
H38    H     0.04790   0.19821   0.39581   0.00000  Uiso   1.00
H39    H     0.02751   0.22117   0.47695   0.00000  Uiso   1.00
H40    H     0.31701   0.15444   0.01526   0.00000  Uiso   1.00
H41    H     0.10905   0.22386   0.08093   0.00000  Uiso   1.00
H42    H     0.24179   0.17338   0.40846   0.00000  Uiso   1.00
H43    H     0.23715   0.04096   0.19849   0.00000  Uiso   1.00
H44    H     0.09622   0.29235   0.30152   0.00000  Uiso   1.00
H45    H     0.30327   0.10834   0.21546   0.00000  Uiso   1.00
H46    H     0.03003   0.22496   0.28461   0.00000  Uiso   1.00
N47    N     0.04759   0.16668   0.25001   0.00000  Uiso   1.00
N48    N     0.28574   0.16666   0.24999   0.00000  Uiso   1.00
O49    O     0.12846   0.22775   0.25000   0.00000  Uiso   1.00
O50    O     0.20488   0.10558   0.25000   0.00000  Uiso   1.00
O51    O     0.20490   0.22774   0.25000   0.00000  Uiso   1.00
O52    O     0.12843   0.10559   0.25000   0.00000  Uiso   1.00
O53    O     0.10661   0.16667   0.31612   0.00000  Uiso   1.00
O54    O     0.22672   0.16666   0.18388   0.00000  Uiso   1.00
O55    O     0.18305   0.16666   0.31612   0.00000  Uiso   1.00
O56    O     0.15028   0.16667   0.18388   0.00000  Uiso   1.00
Zn57   Zn    0.11562   0.16667   0.25000   0.00000  Uiso   1.00
Zn58   Zn    0.21771   0.16666   0.25000   0.00000  Uiso   1.00
C59    C     0.25140   0.29312   0.18205   0.00000  Uiso   1.00
O60    O     0.24711   0.26081   0.16231   0.00000  Uiso   1.00
O61    O     0.29689   0.31236   0.16959   0.00000  Uiso   1.00
H62    H     0.32334   0.29614   0.14460   0.00000  Uiso   1.00
C63    C     0.08190   0.04019   0.31787   0.00000  Uiso   1.00
O64    O     0.08612   0.07255   0.33757   0.00000  Uiso   1.00
O65    O     0.03645   0.02088   0.33033   0.00000  Uiso   1.00
H66    H     0.00996   0.03709   0.35528   0.00000  Uiso   1.00
C67    C     0.06076   0.09774   0.20828   0.00000  Uiso   1.00
O68    O     0.09825   0.10247   0.17446   0.00000  Uiso   1.00
O69    O     0.04477   0.05755   0.22447   0.00000  Uiso   1.00
H70    H     0.06828   0.03500   0.20636   0.00000  Uiso   1.00
C71    C     0.27253   0.23554   0.29183   0.00000  Uiso   1.00
O72    O     0.23516   0.23079   0.32577   0.00000  Uiso   1.00
O73    O     0.28838   0.27574   0.27557   0.00000  Uiso   1.00
H74    H     0.26487   0.29826   0.29373   0.00000  Uiso   1.00
C75    C     0.50069   0.24650   0.24862   0.00000  Uiso   1.00
C76    C     0.49931   0.08683   0.25137   0.00000  Uiso   1.00
C77    C     0.45298   0.21226   0.04566   0.00000  Uiso   1.00
C78    C     0.56157   0.17598   0.44595   0.00000  Uiso   1.00
C79    C     0.41941   0.21722   0.02466   0.00000  Uiso   1.00
C80    C     0.59529   0.17095   0.46661   0.00000  Uiso   1.00
C81    C     0.54165   0.31300   0.21800   0.00000  Uiso   1.00
C82    C     0.45836   0.02031   0.28197   0.00000  Uiso   1.00
C83    C     0.54020   0.02268   0.22143   0.00000  Uiso   1.00
C84    C     0.45982   0.31063   0.27857   0.00000  Uiso   1.00
C85    C     0.49899   0.04264   0.25244   0.00000  Uiso   1.00
C86    C     0.50102   0.29068   0.24755   0.00000  Uiso   1.00
C87    C     0.64934   0.13412   0.23098   0.00000  Uiso   1.00
C88    C     0.35065   0.19919   0.26906   0.00000  Uiso   1.00
C89    C     0.36386   0.13401   0.23051   0.00000  Uiso   1.00
C90    C     0.63612   0.19931   0.26954   0.00000  Uiso   1.00
C91    C     0.46970   0.16732   0.33792   0.00000  Uiso   1.00
C92    C     0.53035   0.16731   0.16211   0.00000  Uiso   1.00
C93    C     0.45179   0.17439   0.38809   0.00000  Uiso   1.00
C94    C     0.54941   0.17111   0.11160   0.00000  Uiso   1.00
C95    C     0.39572   0.20682   0.45829   0.00000  Uiso   1.00
C96    C     0.61339   0.16327   0.03600   0.00000  Uiso   1.00
C97    C     0.40685   0.19306   0.41249   0.00000  Uiso   1.00
C98    C     0.59781   0.16219   0.08434   0.00000  Uiso   1.00
C99    C     0.48461   0.16878   0.40981   0.00000  Uiso   1.00
C100   C     0.51766   0.18353   0.09064   0.00000  Uiso   1.00
C101   C     0.47631   0.18598   0.45365   0.00000  Uiso   1.00
C102   C     0.53246   0.18523   0.04231   0.00000  Uiso   1.00
C103   C     0.43020   0.20336   0.47909   0.00000  Uiso   1.00
C104   C     0.58075   0.17357   0.01479   0.00000  Uiso   1.00
C105   C     0.51248   0.18524   0.47302   0.00000  Uiso   1.00
C106   C     0.49920   0.19458   0.02089   0.00000  Uiso   1.00
H107   H     0.38454   0.23111   0.04450   0.00000  Uiso   1.00
H108   H     0.63233   0.16310   0.44497   0.00000  Uiso   1.00
H109   H     0.48050   0.18948   0.11269   0.00000  Uiso   1.00
H110   H     0.51721   0.15135   0.39135   0.00000  Uiso   1.00
H111   H     0.62299   0.15298   0.10025   0.00000  Uiso   1.00
H112   H     0.38124   0.19821   0.39581   0.00000  Uiso   1.00
H113   H     0.36085   0.22117   0.47695   0.00000  Uiso   1.00
H114   H     0.65034   0.15444   0.01526   0.00000  Uiso   1.00
H115   H     0.44238   0.22386   0.08093   0.00000  Uiso   1.00
H116   H     0.57512   0.17338   0.40846   0.00000  Uiso   1.00
H117   H     0.57048   0.04096   0.19849   0.00000  Uiso   1.00
H118   H     0.42955   0.29235   0.30152   0.00000  Uiso   1.00
H119   H     0.63660   0.10834   0.21546   0.00000  Uiso   1.00
H120   H     0.36337   0.22496   0.28461   0.00000  Uiso   1.00
N121   N     0.38093   0.16668   0.25001   0.00000  Uiso   1.00
N122   N     0.61907   0.16666   0.24999   0.00000  Uiso   1.00
O123   O     0.46179   0.22775   0.25000   0.00000  Uiso   1.00
O124   O     0.53821   0.10558   0.25000   0.00000  Uiso   1.00
O125   O     0.53823   0.22774   0.25000   0.00000  Uiso   1.00
O126   O     0.46177   0.10559   0.25000   0.00000  Uiso   1.00
O127   O     0.43994   0.16667   0.31612   0.00000  Uiso   1.00
O128   O     0.56006   0.16666   0.18388   0.00000  Uiso   1.00
O129   O     0.51639   0.16666   0.31612   0.00000  Uiso   1.00
O130   O     0.48361   0.16667   0.18388   0.00000  Uiso   1.00
Zn131  Zn    0.44896   0.16667   0.25000   0.00000  Uiso   1.00
Zn132  Zn    0.55104   0.16666   0.25000   0.00000  Uiso   1.00
C133   C     0.58473   0.29312   0.18205   0.00000  Uiso   1.00
O134   O     0.58045   0.26081   0.16231   0.00000  Uiso   1.00
O135   O     0.63023   0.31236   0.16959   0.00000  Uiso   1.00
H136   H     0.65667   0.29614   0.14460   0.00000  Uiso   1.00
C137   C     0.41524   0.04019   0.31787   0.00000  Uiso   1.00
O138   O     0.41945   0.07255   0.33757   0.00000  Uiso   1.00
O139   O     0.36978   0.02088   0.33033   0.00000  Uiso   1.00
H140   H     0.34330   0.03709   0.35528   0.00000  Uiso   1.00
C141   C     0.39409   0.09774   0.20828   0.00000  Uiso   1.00
O142   O     0.43158   0.10247   0.17446   0.00000  Uiso   1.00
O143   O     0.37810   0.05755   0.22447   0.00000  Uiso   1.00
H144   H     0.40161   0.03500   0.20636   0.00000  Uiso   1.00
C145   C     0.60586   0.23554   0.29183   0.00000  Uiso   1.00
O146   O     0.56849   0.23079   0.32577   0.00000  Uiso   1.00
O147   O     0.62171   0.27574   0.27557   0.00000  Uiso   1.00
H148   H     0.59820   0.29826   0.29373   0.00000  Uiso   1.00
C149   C     0.83403   0.24650   0.24862   0.00000  Uiso   1.00
C150   C     0.83265   0.08683   0.25137   0.00000  Uiso   1.00
C151   C     0.78632   0.21226   0.04566   0.00000  Uiso   1.00
C152   C     0.89490   0.17598   0.44595   0.00000  Uiso   1.00
C153   C     0.75275   0.21722   0.02466   0.00000  Uiso   1.00
C154   C     0.92862   0.17095   0.46661   0.00000  Uiso   1.00
C155   C     0.87499   0.31300   0.21800   0.00000  Uiso   1.00
C156   C     0.79169   0.02031   0.28197   0.00000  Uiso   1.00
C157   C     0.87354   0.02268   0.22143   0.00000  Uiso   1.00
C158   C     0.79315   0.31063   0.27857   0.00000  Uiso   1.00
C159   C     0.83232   0.04264   0.25244   0.00000  Uiso   1.00
C160   C     0.83436   0.29068   0.24755   0.00000  Uiso   1.00
C161   C     0.98267   0.13412   0.23098   0.00000  Uiso   1.00
C162   C     0.68398   0.19919   0.26906   0.00000  Uiso   1.00
C163   C     0.69719   0.13401   0.23051   0.00000  Uiso   1.00
C164   C     0.96945   0.19931   0.26954   0.00000  Uiso   1.00
C165   C     0.80304   0.16732   0.33792   0.00000  Uiso   1.00
C166   C     0.86368   0.16731   0.16211   0.00000  Uiso   1.00
C167   C     0.78512   0.17439   0.38809   0.00000  Uiso   1.00
C168   C     0.88275   0.17111   0.11160   0.00000  Uiso   1.00
C169   C     0.72906   0.20682   0.45829   0.00000  Uiso   1.00
C170   C     0.94672   0.16327   0.03600   0.00000  Uiso   1.00
C171   C     0.74018   0.19306   0.41249   0.00000  Uiso   1.00
C172   C     0.93114   0.16219   0.08434   0.00000  Uiso   1.00
C173   C     0.81794   0.16878   0.40981   0.00000  Uiso   1.00
C174   C     0.85100   0.18353   0.09064   0.00000  Uiso   1.00
C175   C     0.80965   0.18598   0.45365   0.00000  Uiso   1.00
C176   C     0.86579   0.18523   0.04231   0.00000  Uiso   1.00
C177   C     0.76353   0.20336   0.47909   0.00000  Uiso   1.00
C178   C     0.91408   0.17357   0.01479   0.00000  Uiso   1.00
C179   C     0.84582   0.18524   0.47302   0.00000  Uiso   1.00
C180   C     0.83253   0.19458   0.02089   0.00000  Uiso   1.00
H181   H     0.71787   0.23111   0.04450   0.00000  Uiso   1.00
H182   H     0.96567   0.16310   0.44497   0.00000  Uiso   1.00
H183   H     0.81384   0.18948   0.11269   0.00000  Uiso   1.00
H184   H     0.85054   0.15135   0.39135   0.00000  Uiso   1.00
H185   H     0.95632   0.15298   0.10025   0.00000  Uiso   1.00
H186   H     0.71457   0.19821   0.39581   0.00000  Uiso   1.00
H187   H     0.69418   0.22117   0.47695   0.00000  Uiso   1.00
H188   H     0.98368   0.15444   0.01526   0.00000  Uiso   1.00
H189   H     0.77572   0.22386   0.08093   0.00000  Uiso   1.00
H190   H     0.90846   0.17338   0.40846   0.00000  Uiso   1.00
H191   H     0.90381   0.04096   0.19849   0.00000  Uiso   1.00
H192   H     0.76289   0.29235   0.30152   0.00000  Uiso   1.00
H193   H     0.96994   0.10834   0.21546   0.00000  Uiso   1.00
H194   H     0.69670   0.22496   0.28461   0.00000  Uiso   1.00
N195   N     0.71426   0.16668   0.25001   0.00000  Uiso   1.00
N196   N     0.95241   0.16666   0.24999   0.00000  Uiso   1.00
O197   O     0.79512   0.22775   0.25000   0.00000  Uiso   1.00
O198   O     0.87154   0.10558   0.25000   0.00000  Uiso   1.00
O199   O     0.87157   0.22774   0.25000   0.00000  Uiso   1.00
O200   O     0.79510   0.10559   0.25000   0.00000  Uiso   1.00
O201   O     0.77328   0.16667   0.31612   0.00000  Uiso   1.00
O202   O     0.89339   0.16666   0.18388   0.00000  Uiso   1.00
O203   O     0.84972   0.16666   0.31612   0.00000  Uiso   1.00
O204   O     0.81695   0.16667   0.18388   0.00000  Uiso   1.00
Zn205  Zn    0.78229   0.16667   0.25000   0.00000  Uiso   1.00
Zn206  Zn    0.88438   0.16666   0.25000   0.00000  Uiso   1.00
C207   C     0.91807   0.29312   0.18205   0.00000  Uiso   1.00
O208   O     0.91378   0.26081   0.16231   0.00000  Uiso   1.00
O209   O     0.96356   0.31236   0.16959   0.00000  Uiso   1.00
H210   H     0.99000   0.29614   0.14460   0.00000  Uiso   1.00
C211   C     0.74857   0.04019   0.31787   0.00000  Uiso   1.00
O212   O     0.75279   0.07255   0.33757   0.00000  Uiso   1.00
O213   O     0.70312   0.02088   0.33033   0.00000  Uiso   1.00
H214   H     0.67663   0.03709   0.35528   0.00000  Uiso   1.00
C215   C     0.72742   0.09774   0.20828   0.00000  Uiso   1.00
O216   O     0.76491   0.10247   0.17446   0.00000  Uiso   1.00
O217   O     0.71144   0.05755   0.22447   0.00000  Uiso   1.00
H218   H     0.73495   0.03500   0.20636   0.00000  Uiso   1.00
C219   C     0.93919   0.23554   0.29183   0.00000  Uiso   1.00
O220   O     0.90182   0.23079   0.32577   0.00000  Uiso   1.00
O221   O     0.95504   0.27574   0.27557   0.00000  Uiso   1.00
H222   H     0.93154   0.29826   0.29373   0.00000  Uiso   1.00
C223   C     0.16736   0.57983   0.24862   0.00000  Uiso   1.00
C224   C     0.16598   0.42016   0.25137   0.00000  Uiso   1.00
C225   C     0.11965   0.54559   0.04566   0.00000  Uiso   1.00
C226   C     0.22824   0.50932   0.44595   0.00000  Uiso   1.00
C227   C     0.08608   0.55055   0.02466   0.00000  Uiso   1.00
C228   C     0.26196   0.50428   0.46661   0.00000  Uiso   1.00
C229   C     0.20832   0.64634   0.21800   0.00000  Uiso   1.00
C230   C     0.12502   0.35365   0.28197   0.00000  Uiso   1.00
C231   C     0.20687   0.35602   0.22143   0.00000  Uiso   1.00
C232   C     0.12649   0.64397   0.27857   0.00000  Uiso   1.00
C233   C     0.16566   0.37597   0.25244   0.00000  Uiso   1.00
C234   C     0.16769   0.62401   0.24755   0.00000  Uiso   1.00
C235   C     0.31601   0.46746   0.23098   0.00000  Uiso   1.00
C236   C     0.01731   0.53253   0.26906   0.00000  Uiso   1.00
C237   C     0.03053   0.46734   0.23051   0.00000  Uiso   1.00
C238   C     0.30279   0.53264   0.26954   0.00000  Uiso   1.00
C239   C     0.13637   0.50065   0.33792   0.00000  Uiso   1.00
C240   C     0.19701   0.50064   0.16211   0.00000  Uiso   1.00
C241   C     0.11845   0.50773   0.38809   0.00000  Uiso   1.00
C242   C     0.21608   0.50444   0.11160   0.00000  Uiso   1.00
C243   C     0.06239   0.54015   0.45829   0.00000  Uiso   1.00
C244   C     0.28006   0.49660   0.03600   0.00000  Uiso   1.00
C245   C     0.07352   0.52640   0.41249   0.00000  Uiso   1.00
C246   C     0.26448   0.49552   0.08434   0.00000  Uiso   1.00
C247   C     0.15127   0.50211   0.40981   0.00000  Uiso   1.00
C248   C     0.18433   0.51686   0.09064   0.00000  Uiso   1.00
C249   C     0.14298   0.51931   0.45365   0.00000  Uiso   1.00
C250   C     0.19913   0.51856   0.04231   0.00000  Uiso   1.00
C251   C     0.09686   0.53670   0.47909   0.00000  Uiso   1.00
C252   C     0.24741   0.50690   0.01479   0.00000  Uiso   1.00
C253   C     0.17915   0.51857   0.47302   0.00000  Uiso   1.00
C254   C     0.16587   0.52792   0.02089   0.00000  Uiso   1.00
H255   H     0.05121   0.56445   0.04450   0.00000  Uiso   1.00
H256   H     0.29900   0.49644   0.44497   0.00000  Uiso   1.00
H257   H     0.14717   0.52281   0.11269   0.00000  Uiso   1.00
H258   H     0.18388   0.48468   0.39135   0.00000  Uiso   1.00
H259   H     0.28965   0.48632   0.10025   0.00000  Uiso   1.00
H260   H     0.04790   0.53155   0.39581   0.00000  Uiso   1.00
H261   H     0.02751   0.55451   0.47695   0.00000  Uiso   1.00
H262   H     0.31701   0.48777   0.01526   0.00000  Uiso   1.00
H263   H     0.10905   0.55720   0.08093   0.00000  Uiso   1.00
H264   H     0.24179   0.50671   0.40846   0.00000  Uiso   1.00
H265   H     0.23715   0.37429   0.19849   0.00000  Uiso   1.00
H266   H     0.09622   0.62568   0.30152   0.00000  Uiso   1.00
H267   H     0.30327   0.44167   0.21546   0.00000  Uiso   1.00
H268   H     0.03003   0.55830   0.28461   0.00000  Uiso   1.00
N269   N     0.04759   0.50001   0.25001   0.00000  Uiso   1.00
N270   N     0.28574   0.49999   0.24999   0.00000  Uiso   1.00
O271   O     0.12846   0.56108   0.25000   0.00000  Uiso   1.00
O272   O     0.20488   0.43892   0.25000   0.00000  Uiso   1.00
O273   O     0.20490   0.56107   0.25000   0.00000  Uiso   1.00
O274   O     0.12843   0.43893   0.25000   0.00000  Uiso   1.00
O275   O     0.10661   0.50001   0.31612   0.00000  Uiso   1.00
O276   O     0.22672   0.49999   0.18388   0.00000  Uiso   1.00
O277   O     0.18305   0.50000   0.31612   0.00000  Uiso   1.00
O278   O     0.15028   0.50000   0.18388   0.00000  Uiso   1.00
Zn279  Zn    0.11562   0.50001   0.25000   0.00000  Uiso   1.00
Zn280  Zn    0.21771   0.49999   0.25000   0.00000  Uiso   1.00
C281   C     0.25140   0.62645   0.18205   0.00000  Uiso   1.00
O282   O     0.24711   0.59414   0.16231   0.00000  Uiso   1.00
O283   O     0.29689   0.64569   0.16959   0.00000  Uiso   1.00
H284   H     0.32334   0.62947   0.14460   0.00000  Uiso   1.00
C285   C     0.08190   0.37352   0.31787   0.00000  Uiso   1.00
O286   O     0.08612   0.40588   0.33757   0.00000  Uiso   1.00
O287   O     0.03645   0.35421   0.33033   0.00000  Uiso   1.00
H288   H     0.00996   0.37042   0.35528   0.00000  Uiso   1.00
C289   C     0.06076   0.43108   0.20828   0.00000  Uiso   1.00
O290   O     0.09825   0.43580   0.17446   0.00000  Uiso   1.00
O291   O     0.04477   0.39088   0.22447   0.00000  Uiso   1.00
H292   H     0.06828   0.36834   0.20636   0.00000  Uiso   1.00
C293   C     0.27253   0.56887   0.29183   0.00000  Uiso   1.00
O294   O     0.23516   0.56412   0.32577   0.00000  Uiso   1.00
O295   O     0.28838   0.60907   0.27557   0.00000  Uiso   1.00
H296   H     0.26487   0.63159   0.29373   0.00000  Uiso   1.00
C297   C     0.50069   0.57983   0.24862   0.00000  Uiso   1.00
C298   C     0.49931   0.42016   0.25137   0.00000  Uiso   1.00
C299   C     0.45298   0.54559   0.04566   0.00000  Uiso   1.00
C300   C     0.56157   0.50932   0.44595   0.00000  Uiso   1.00
C301   C     0.41941   0.55055   0.02466   0.00000  Uiso   1.00
C302   C     0.59529   0.50428   0.46661   0.00000  Uiso   1.00
C303   C     0.54165   0.64634   0.21800   0.00000  Uiso   1.00
C304   C     0.45836   0.35365   0.28197   0.00000  Uiso   1.00
C305   C     0.54020   0.35602   0.22143   0.00000  Uiso   1.00
C306   C     0.45982   0.64397   0.27857   0.00000  Uiso   1.00
C307   C     0.49899   0.37597   0.25244   0.00000  Uiso   1.00
C308   C     0.50102   0.62401   0.24755   0.00000  Uiso   1.00
C309   C     0.64934   0.46746   0.23098   0.00000  Uiso   1.00
C310   C     0.35065   0.53253   0.26906   0.00000  Uiso   1.00
C311   C     0.36386   0.46734   0.23051   0.00000  Uiso   1.00
C312   C     0.63612   0.53264   0.26954   0.00000  Uiso   1.00
C313   C     0.46970   0.50065   0.33792   0.00000  Uiso   1.00
C314   C     0.53035   0.50064   0.16211   0.00000  Uiso   1.00
C315   C     0.45179   0.50773   0.38809   0.00000  Uiso   1.00
C316   C     0.54941   0.50444   0.11160   0.00000  Uiso   1.00
C317   C     0.39572   0.54015   0.45829   0.00000  Uiso   1.00
C318   C     0.61339   0.49660   0.03600   0.00000  Uiso   1.00
C319   C     0.40685   0.52640   0.41249   0.00000  Uiso   1.00
C320   C     0.59781   0.49552   0.08434   0.00000  Uiso   1.00
C321   C     0.48461   0.50211   0.40981   0.00000  Uiso   1.00
C322   C     0.51766   0.51686   0.09064   0.00000  Uiso   1.00
C323   C     0.47631   0.51931   0.45365   0.00000  Uiso   1.00
C324   C     0.53246   0.51856   0.04231   0.00000  Uiso   1.00
C325   C     0.43020   0.53670   0.47909   0.00000  Uiso   1.00
C326   C     0.58075   0.50690   0.01479   0.00000  Uiso   1.00
C327   C     0.51248   0.51857   0.47302   0.00000  Uiso   1.00
C328   C     0.49920   0.52792   0.02089   0.00000  Uiso   1.00
H329   H     0.38454   0.56445   0.04450   0.00000  Uiso   1.00
H330   H     0.63233   0.49644   0.44497   0.00000  Uiso   1.00
H331   H     0.48050   0.52281   0.11269   0.00000  Uiso   1.00
H332   H     0.51721   0.48468   0.39135   0.00000  Uiso   1.00
H333   H     0.62299   0.48632   0.10025   0.00000  Uiso   1.00
H334   H     0.38124   0.53155   0.39581   0.00000  Uiso   1.00
H335   H     0.36085   0.55451   0.47695   0.00000  Uiso   1.00
H336   H     0.65034   0.48777   0.01526   0.00000  Uiso   1.00
H337   H     0.44238   0.55720   0.08093   0.00000  Uiso   1.00
H338   H     0.57512   0.50671   0.40846   0.00000  Uiso   1.00
H339   H     0.57048   0.37429   0.19849   0.00000  Uiso   1.00
H340   H     0.42955   0.62568   0.30152   0.00000  Uiso   1.00
H341   H     0.63660   0.44167   0.21546   0.00000  Uiso   1.00
H342   H     0.36337   0.55830   0.28461   0.00000  Uiso   1.00
N343   N     0.38093   0.50001   0.25001   0.00000  Uiso   1.00
N344   N     0.61907   0.49999   0.24999   0.00000  Uiso   1.00
O345   O     0.46179   0.56108   0.25000   0.00000  Uiso   1.00
O346   O     0.53821   0.43892   0.25000   0.00000  Uiso   1.00
O347   O     0.53823   0.56107   0.25000   0.00000  Uiso   1.00
O348   O     0.46177   0.43893   0.25000   0.00000  Uiso   1.00
O349   O     0.43994   0.50001   0.31612   0.00000  Uiso   1.00
O350   O     0.56006   0.49999   0.18388   0.00000  Uiso   1.00
O351   O     0.51639   0.50000   0.31612   0.00000  Uiso   1.00
O352   O     0.48361   0.50000   0.18388   0.00000  Uiso   1.00
Zn353  Zn    0.44896   0.50001   0.25000   0.00000  Uiso   1.00
Zn354  Zn    0.55104   0.49999   0.25000   0.00000  Uiso   1.00
C355   C     0.58473   0.62645   0.18205   0.00000  Uiso   1.00
O356   O     0.58045   0.59414   0.16231   0.00000  Uiso   1.00
O357   O     0.63023   0.64569   0.16959   0.00000  Uiso   1.00
H358   H     0.65667   0.62947   0.14460   0.00000  Uiso   1.00
C359   C     0.41524   0.37352   0.31787   0.00000  Uiso   1.00
O360   O     0.41945   0.40588   0.33757   0.00000  Uiso   1.00
O361   O     0.36978   0.35421   0.33033   0.00000  Uiso   1.00
H362   H     0.34330   0.37042   0.35528   0.00000  Uiso   1.00
C363   C     0.39409   0.43108   0.20828   0.00000  Uiso   1.00
O364   O     0.43158   0.43580   0.17446   0.00000  Uiso   1.00
O365   O     0.37810   0.39088   0.22447   0.00000  Uiso   1.00
H366   H     0.40161   0.36834   0.20636   0.00000  Uiso   1.00
C367   C     0.60586   0.56887   0.29183   0.00000  Uiso   1.00
O368   O     0.56849   0.56412   0.32577   0.00000  Uiso   1.00
O369   O     0.62171   0.60907   0.27557   0.00000  Uiso   1.00
H370   H     0.59820   0.63159   0.29373   0.00000  Uiso   1.00
C371   C     0.83403   0.57983   0.24862   0.00000  Uiso   1.00
C372   C     0.83265   0.42016   0.25137   0.00000  Uiso   1.00
C373   C     0.78632   0.54559   0.04566   0.00000  Uiso   1.00
C374   C     0.89490   0.50932   0.44595   0.00000  Uiso   1.00
C375   C     0.75275   0.55055   0.02466   0.00000  Uiso   1.00
C376   C     0.92862   0.50428   0.46661   0.00000  Uiso   1.00
C377   C     0.87499   0.64634   0.21800   0.00000  Uiso   1.00
C378   C     0.79169   0.35365   0.28197   0.00000  Uiso   1.00
C379   C     0.87354   0.35602   0.22143   0.00000  Uiso   1.00
C380   C     0.79315   0.64397   0.27857   0.00000  Uiso   1.00
C381   C     0.83232   0.37597   0.25244   0.00000  Uiso   1.00
C382   C     0.83436   0.62401   0.24755   0.00000  Uiso   1.00
C383   C     0.98267   0.46746   0.23098   0.00000  Uiso   1.00
C384   C     0.68398   0.53253   0.26906   0.00000  Uiso   1.00
C385   C     0.69719   0.46734   0.23051   0.00000  Uiso   1.00
C386   C     0.96945   0.53264   0.26954   0.00000  Uiso   1.00
C387   C     0.80304   0.50065   0.33792   0.00000  Uiso   1.00
C388   C     0.86368   0.50064   0.16211   0.00000  Uiso   1.00
C389   C     0.78512   0.50773   0.38809   0.00000  Uiso   1.00
C390   C     0.88275   0.50444   0.11160   0.00000  Uiso   1.00
C391   C     0.72906   0.54015   0.45829   0.00000  Uiso   1.00
C392   C     0.94672   0.49660   0.03600   0.00000  Uiso   1.00
C393   C     0.74018   0.52640   0.41249   0.00000  Uiso   1.00
C394   C     0.93114   0.49552   0.08434   0.00000  Uiso   1.00
C395   C     0.81794   0.50211   0.40981   0.00000  Uiso   1.00
C396   C     0.85100   0.51686   0.09064   0.00000  Uiso   1.00
C397   C     0.80965   0.51931   0.45365   0.00000  Uiso   1.00
C398   C     0.86579   0.51856   0.04231   0.00000  Uiso   1.00
C399   C     0.76353   0.53670   0.47909   0.00000  Uiso   1.00
C400   C     0.91408   0.50690   0.01479   0.00000  Uiso   1.00
C401   C     0.84582   0.51857   0.47302   0.00000  Uiso   1.00
C402   C     0.83253   0.52792   0.02089   0.00000  Uiso   1.00
H403   H     0.71787   0.56445   0.04450   0.00000  Uiso   1.00
H404   H     0.96567   0.49644   0.44497   0.00000  Uiso   1.00
H405   H     0.81384   0.52281   0.11269   0.00000  Uiso   1.00
H406   H     0.85054   0.48468   0.39135   0.00000  Uiso   1.00
H407   H     0.95632   0.48632   0.10025   0.00000  Uiso   1.00
H408   H     0.71457   0.53155   0.39581   0.00000  Uiso   1.00
H409   H     0.69418   0.55451   0.47695   0.00000  Uiso   1.00
H410   H     0.98368   0.48777   0.01526   0.00000  Uiso   1.00
H411   H     0.77572   0.55720   0.08093   0.00000  Uiso   1.00
H412   H     0.90846   0.50671   0.40846   0.00000  Uiso   1.00
H413   H     0.90381   0.37429   0.19849   0.00000  Uiso   1.00
H414   H     0.76289   0.62568   0.30152   0.00000  Uiso   1.00
H415   H     0.96994   0.44167   0.21546   0.00000  Uiso   1.00
H416   H     0.69670   0.55830   0.28461   0.00000  Uiso   1.00
N417   N     0.71426   0.50001   0.25001   0.00000  Uiso   1.00
N418   N     0.95241   0.49999   0.24999   0.00000  Uiso   1.00
O419   O     0.79512   0.56108   0.25000   0.00000  Uiso   1.00
O420   O     0.87154   0.43892   0.25000   0.00000  Uiso   1.00
O421   O     0.87157   0.56107   0.25000   0.00000  Uiso   1.00
O422   O     0.79510   0.43893   0.25000   0.00000  Uiso   1.00
O423   O     0.77328   0.50001   0.31612   0.00000  Uiso   1.00
O424   O     0.89339   0.49999   0.18388   0.00000  Uiso   1.00
O425   O     0.84972   0.50000   0.31612   0.00000  Uiso   1.00
O426   O     0.81695   0.50000   0.18388   0.00000  Uiso   1.00
Zn427  Zn    0.78229   0.50001   0.25000   0.00000  Uiso   1.00
Zn428  Zn    0.88438   0.49999   0.25000   0.00000  Uiso   1.00
C429   C     0.91807   0.62645   0.18205   0.00000  Uiso   1.00
O430   O     0.91378   0.59414   0.16231   0.00000  Uiso   1.00
O431   O     0.96356   0.64569   0.16959   0.00000  Uiso   1.00
H432   H     0.99000   0.62947   0.14460   0.00000  Uiso   1.00
C433   C     0.74857   0.37352   0.31787   0.00000  Uiso   1.00
O434   O     0.75279   0.40588   0.33757   0.00000  Uiso   1.00
O435   O     0.70312   0.35421   0.33033   0.00000  Uiso   1.00
H436   H     0.67663   0.37042   0.35528   0.00000  Uiso   1.00
C437   C     0.72742   0.43108   0.20828   0.00000  Uiso   1.00
O438   O     0.76491   0.43580   0.17446   0.00000  Uiso   1.00
O439   O     0.71144   0.39088   0.22447   0.00000  Uiso   1.00
H440   H     0.73495   0.36834   0.20636   0.00000  Uiso   1.00
C441   C     0.93919   0.56887   0.29183   0.00000  Uiso   1.00
O442   O     0.90182   0.56412   0.32577   0.00000  Uiso   1.00
O443   O     0.95504   0.60907   0.27557   0.00000  Uiso   1.00
H444   H     0.93154   0.63159   0.29373   0.00000  Uiso   1.00
C445   C     0.16736   0.91317   0.24862   0.00000  Uiso   1.00
C446   C     0.16598   0.75350   0.25137   0.00000  Uiso   1.00
C447   C     0.11965   0.87892   0.04566   0.00000  Uiso   1.00
C448   C     0.22824   0.84265   0.44595   0.00000  Uiso   1.00
C449   C     0.08608   0.88388   0.02466   0.00000  Uiso   1.00
C450   C     0.26196   0.83761   0.46661   0.00000  Uiso   1.00
C451   C     0.20832   0.97967   0.21800   0.00000  Uiso   1.00
C452   C     0.12502   0.68698   0.28197   0.00000  Uiso   1.00
C453   C     0.20687   0.68935   0.22143   0.00000  Uiso   1.00
C454   C     0.12649   0.97730   0.27857   0.00000  Uiso   1.00
C455   C     0.16566   0.70931   0.25244   0.00000  Uiso   1.00
C456   C     0.16769   0.95735   0.24755   0.00000  Uiso   1.00
C457   C     0.31601   0.80079   0.23098   0.00000  Uiso   1.00
C458   C     0.01731   0.86586   0.26906   0.00000  Uiso   1.00
C459   C     0.03053   0.80067   0.23051   0.00000  Uiso   1.00
C460   C     0.30279   0.86597   0.26954   0.00000  Uiso   1.00
C461   C     0.13637   0.83398   0.33792   0.00000  Uiso   1.00
C462   C     0.19701   0.83398   0.16211   0.00000  Uiso   1.00
C463   C     0.11845   0.84106   0.38809   0.00000  Uiso   1.00
C464   C     0.21608   0.83777   0.11160   0.00000  Uiso   1.00
C465   C     0.06239   0.87348   0.45829   0.00000  Uiso   1.00
C466   C     0.28006   0.82993   0.03600   0.00000  Uiso   1.00
C467   C     0.07352   0.85973   0.41249   0.00000  Uiso   1.00
C468   C     0.26448   0.82885   0.08434   0.00000  Uiso   1.00
C469   C     0.15127   0.83545   0.40981   0.00000  Uiso   1.00
C470   C     0.18433   0.85019   0.09064   0.00000  Uiso   1.00
C471   C     0.14298   0.85264   0.45365   0.00000  Uiso   1.00
C472   C     0.19913   0.85189   0.04231   0.00000  Uiso   1.00
C473   C     0.09686   0.87003   0.47909   0.00000  Uiso   1.00
C474   C     0.24741   0.84023   0.01479   0.00000  Uiso   1.00
C475   C     0.17915   0.85191   0.47302   0.00000  Uiso   1.00
C476   C     0.16587   0.86125   0.02089   0.00000  Uiso   1.00
H477   H     0.05121   0.89778   0.04450   0.00000  Uiso   1.00
H478   H     0.29900   0.82977   0.44497   0.00000  Uiso   1.00
H479   H     0.14717   0.85614   0.11269   0.00000  Uiso   1.00
H480   H     0.18388   0.81801   0.39135   0.00000  Uiso   1.00
H481   H     0.28965   0.81965   0.10025   0.00000  Uiso   1.00
H482   H     0.04790   0.86488   0.39581   0.00000  Uiso   1.00
H483   H     0.02751   0.88784   0.47695   0.00000  Uiso   1.00
H484   H     0.31701   0.82110   0.01526   0.00000  Uiso   1.00
H485   H     0.10905   0.89053   0.08093   0.00000  Uiso   1.00
H486   H     0.24179   0.84004   0.40846   0.00000  Uiso   1.00
H487   H     0.23715   0.70763   0.19849   0.00000  Uiso   1.00
H488   H     0.09622   0.95902   0.30152   0.00000  Uiso   1.00
H489   H     0.30327   0.77501   0.21546   0.00000  Uiso   1.00
H490   H     0.03003   0.89163   0.28461   0.00000  Uiso   1.00
N491   N     0.04759   0.83334   0.25001   0.00000  Uiso   1.00
N492   N     0.28574   0.83332   0.24999   0.00000  Uiso   1.00
O493   O     0.12846   0.89442   0.25000   0.00000  Uiso   1.00
O494   O     0.20488   0.77225   0.25000   0.00000  Uiso   1.00
O495   O     0.20490   0.89441   0.25000   0.00000  Uiso   1.00
O496   O     0.12843   0.77226   0.25000   0.00000  Uiso   1.00
O497   O     0.10661   0.83334   0.31612   0.00000  Uiso   1.00
O498   O     0.22672   0.83333   0.18388   0.00000  Uiso   1.00
O499   O     0.18305   0.83333   0.31612   0.00000  Uiso   1.00
O500   O     0.15028   0.83334   0.18388   0.00000  Uiso   1.00
Zn501  Zn    0.11562   0.83334   0.25000   0.00000  Uiso   1.00
Zn502  Zn    0.21771   0.83333   0.25000   0.00000  Uiso   1.00
C503   C     0.25140   0.95979   0.18205   0.00000  Uiso   1.00
O504   O     0.24711   0.92748   0.16231   0.00000  Uiso   1.00
O505   O     0.29689   0.97902   0.16959   0.00000  Uiso   1.00
H506   H     0.32334   0.96281   0.14460   0.00000  Uiso   1.00
C507   C     0.08190   0.70685   0.31787   0.00000  Uiso   1.00
O508   O     0.08612   0.73921   0.33757   0.00000  Uiso   1.00
O509   O     0.03645   0.68754   0.33033   0.00000  Uiso   1.00
H510   H     0.00996   0.70376   0.35528   0.00000  Uiso   1.00
C511   C     0.06076   0.76441   0.20828   0.00000  Uiso   1.00
O512   O     0.09825   0.76914   0.17446   0.00000  Uiso   1.00
O513   O     0.04477   0.72421   0.22447   0.00000  Uiso   1.00
H514   H     0.06828   0.70167   0.20636   0.00000  Uiso   1.00
C515   C     0.27253   0.90220   0.29183   0.00000  Uiso   1.00
O516   O     0.23516   0.89745   0.32577   0.00000  Uiso   1.00
O517   O     0.28838   0.94241   0.27557   0.00000  Uiso   1.00
H518   H     0.26487   0.96493   0.29373   0.00000  Uiso   1.00
C519   C     0.50069   0.91317   0.24862   0.00000  Uiso   1.00
C520   C     0.49931   0.75350   0.25137   0.00000  Uiso   1.00
C521   C     0.45298   0.87892   0.04566   0.00000  Uiso   1.00
C522   C     0.56157   0.84265   0.44595   0.00000  Uiso   1.00
C523   C     0.41941   0.88388   0.02466   0.00000  Uiso   1.00
C524   C     0.59529   0.83761   0.46661   0.00000  Uiso   1.00
C525   C     0.54165   0.97967   0.21800   0.00000  Uiso   1.00
C526   C     0.45836   0.68698   0.28197   0.00000  Uiso   1.00
C527   C     0.54020   0.68935   0.22143   0.00000  Uiso   1.00
C528   C     0.45982   0.97730   0.27857   0.00000  Uiso   1.00
C529   C     0.49899   0.70931   0.25244   0.00000  Uiso   1.00
C530   C     0.50102   0.95735   0.24755   0.00000  Uiso   1.00
C531   C     0.64934   0.80079   0.23098   0.00000  Uiso   1.00
C532   C     0.35065   0.86586   0.26906   0.00000  Uiso   1.00
C533   C     0.36386   0.80067   0.23051   0.00000  Uiso   1.00
C534   C     0.63612   0.86597   0.26954   0.00000  Uiso   1.00
C535   C     0.46970   0.83398   0.33792   0.00000  Uiso   1.00
C536   C     0.53035   0.83398   0.16211   0.00000  Uiso   1.00
C537   C     0.45179   0.84106   0.38809   0.00000  Uiso   1.00
C538   C     0.54941   0.83777   0.11160   0.00000  Uiso   1.00
C539   C     0.39572   0.87348   0.45829   0.00000  Uiso   1.00
C540   C     0.61339   0.82993   0.03600   0.00000  Uiso   1.00
C541   C     0.40685   0.85973   0.41249   0.00000  Uiso   1.00
C542   C     0.59781   0.82885   0.08434   0.00000  Uiso   1.00
C543   C     0.48461   0.83545   0.40981   0.00000  Uiso   1.00
C544   C     0.51766   0.85019   0.09064   0.00000  Uiso   1.00
C545   C     0.47631   0.85264   0.45365   0.00000  Uiso   1.00
C546   C     0.53246   0.85189   0.04231   0.00000  Uiso   1.00
C547   C     0.43020   0.87003   0.47909   0.00000  Uiso   1.00
C548   C     0.58075   0.84023   0.01479   0.00000  Uiso   1.00
C549   C     0.51248   0.85191   0.47302   0.00000  Uiso   1.00
C550   C     0.49920   0.86125   0.02089   0.00000  Uiso   1.00
H551   H     0.38454   0.89778   0.04450   0.00000  Uiso   1.00
H552   H     0.63233   0.82977   0.44497   0.00000  Uiso   1.00
H553   H     0.48050   0.85614   0.11269   0.00000  Uiso   1.00
H554   H     0.51721   0.81801   0.39135   0.00000  Uiso   1.00
H555   H     0.62299   0.81965   0.10025   0.00000  Uiso   1.00
H556   H     0.38124   0.86488   0.39581   0.00000  Uiso   1.00
H557   H     0.36085   0.88784   0.47695   0.00000  Uiso   1.00
H558   H     0.65034   0.82110   0.01526   0.00000  Uiso   1.00
H559   H     0.44238   0.89053   0.08093   0.00000  Uiso   1.00
H560   H     0.57512   0.84004   0.40846   0.00000  Uiso   1.00
H561   H     0.57048   0.70763   0.19849   0.00000  Uiso   1.00
H562   H     0.42955   0.95902   0.30152   0.00000  Uiso   1.00
H563   H     0.63660   0.77501   0.21546   0.00000  Uiso   1.00
H564   H     0.36337   0.89163   0.28461   0.00000  Uiso   1.00
N565   N     0.38093   0.83334   0.25001   0.00000  Uiso   1.00
N566   N     0.61907   0.83332   0.24999   0.00000  Uiso   1.00
O567   O     0.46179   0.89442   0.25000   0.00000  Uiso   1.00
O568   O     0.53821   0.77225   0.25000   0.00000  Uiso   1.00
O569   O     0.53823   0.89441   0.25000   0.00000  Uiso   1.00
O570   O     0.46177   0.77226   0.25000   0.00000  Uiso   1.00
O571   O     0.43994   0.83334   0.31612   0.00000  Uiso   1.00
O572   O     0.56006   0.83333   0.18388   0.00000  Uiso   1.00
O573   O     0.51639   0.83333   0.31612   0.00000  Uiso   1.00
O574   O     0.48361   0.83334   0.18388   0.00000  Uiso   1.00
Zn575  Zn    0.44896   0.83334   0.25000   0.00000  Uiso   1.00
Zn576  Zn    0.55104   0.83333   0.25000   0.00000  Uiso   1.00
C577   C     0.58473   0.95979   0.18205   0.00000  Uiso   1.00
O578   O     0.58045   0.92748   0.16231   0.00000  Uiso   1.00
O579   O     0.63023   0.97902   0.16959   0.00000  Uiso   1.00
H580   H     0.65667   0.96281   0.14460   0.00000  Uiso   1.00
C581   C     0.41524   0.70685   0.31787   0.00000  Uiso   1.00
O582   O     0.41945   0.73921   0.33757   0.00000  Uiso   1.00
O583   O     0.36978   0.68754   0.33033   0.00000  Uiso   1.00
H584   H     0.34330   0.70376   0.35528   0.00000  Uiso   1.00
C585   C     0.39409   0.76441   0.20828   0.00000  Uiso   1.00
O586   O     0.43158   0.76914   0.17446   0.00000  Uiso   1.00
O587   O     0.37810   0.72421   0.22447   0.00000  Uiso   1.00
H588   H     0.40161   0.70167   0.20636   0.00000  Uiso   1.00
C589   C     0.60586   0.90220   0.29183   0.00000  Uiso   1.00
O590   O     0.56849   0.89745   0.32577   0.00000  Uiso   1.00
O591   O     0.62171   0.94241   0.27557   0.00000  Uiso   1.00
H592   H     0.59820   0.96493   0.29373   0.00000  Uiso   1.00
C593   C     0.83403   0.91317   0.24862   0.00000  Uiso   1.00
C594   C     0.83265   0.75350   0.25137   0.00000  Uiso   1.00
C595   C     0.78632   0.87892   0.04566   0.00000  Uiso   1.00
C596   C     0.89490   0.84265   0.44595   0.00000  Uiso   1.00
C597   C     0.75275   0.88388   0.02466   0.00000  Uiso   1.00
C598   C     0.92862   0.83761   0.46661   0.00000  Uiso   1.00
C599   C     0.87499   0.97967   0.21800   0.00000  Uiso   1.00
C600   C     0.79169   0.68698   0.28197   0.00000  Uiso   1.00
C601   C     0.87354   0.68935   0.22143   0.00000  Uiso   1.00
C602   C     0.79315   0.97730   0.27857   0.00000  Uiso   1.00
C603   C     0.83232   0.70931   0.25244   0.00000  Uiso   1.00
C604   C     0.83436   0.95735   0.24755   0.00000  Uiso   1.00
C605   C     0.98267   0.80079   0.23098   0.00000  Uiso   1.00
C606   C     0.68398   0.86586   0.26906   0.00000  Uiso   1.00
C607   C     0.69719   0.80067   0.23051   0.00000  Uiso   1.00
C608   C     0.96945   0.86597   0.26954   0.00000  Uiso   1.00
C609   C     0.80304   0.83398   0.33792   0.00000  Uiso   1.00
C610   C     0.86368   0.83398   0.16211   0.00000  Uiso   1.00
C611   C     0.78512   0.84106   0.38809   0.00000  Uiso   1.00
C612   C     0.88275   0.83777   0.11160   0.00000  Uiso   1.00
C613   C     0.72906   0.87348   0.45829   0.00000  Uiso   1.00
C614   C     0.94672   0.82993   0.03600   0.00000  Uiso   1.00
C615   C     0.74018   0.85973   0.41249   0.00000  Uiso   1.00
C616   C     0.93114   0.82885   0.08434   0.00000  Uiso   1.00
C617   C     0.81794   0.83545   0.40981   0.00000  Uiso   1.00
C618   C     0.85100   0.85019   0.09064   0.00000  Uiso   1.00
C619   C     0.80965   0.85264   0.45365   0.00000  Uiso   1.00
C620   C     0.86579   0.85189   0.04231   0.00000  Uiso   1.00
C621   C     0.76353   0.87003   0.47909   0.00000  Uiso   1.00
C622   C     0.91408   0.84023   0.01479   0.00000  Uiso   1.00
C623   C     0.84582   0.85191   0.47302   0.00000  Uiso   1.00
C624   C     0.83253   0.86125   0.02089   0.00000  Uiso   1.00
H625   H     0.71787   0.89778   0.04450   0.00000  Uiso   1.00
H626   H     0.96567   0.82977   0.44497   0.00000  Uiso   1.00
H627   H     0.81384   0.85614   0.11269   0.00000  Uiso   1.00
H628   H     0.85054   0.81801   0.39135   0.00000  Uiso   1.00
H629   H     0.95632   0.81965   0.10025   0.00000  Uiso   1.00
H630   H     0.71457   0.86488   0.39581   0.00000  Uiso   1.00
H631   H     0.69418   0.88784   0.47695   0.00000  Uiso   1.00
H632   H     0.98368   0.82110   0.01526   0.00000  Uiso   1.00
H633   H     0.77572   0.89053   0.08093   0.00000  Uiso   1.00
H634   H     0.90846   0.84004   0.40846   0.00000  Uiso   1.00
H635   H     0.90381   0.70763   0.19849   0.00000  Uiso   1.00
H636   H     0.76289   0.95902   0.30152   0.00000  Uiso   1.00
H637   H     0.96994   0.77501   0.21546   0.00000  Uiso   1.00
H638   H     0.69670   0.89163   0.28461   0.00000  Uiso   1.00
N639   N     0.71426   0.83334   0.25001   0.00000  Uiso   1.00
N640   N     0.95241   0.83332   0.24999   0.00000  Uiso   1.00
O641   O     0.79512   0.89442   0.25000   0.00000  Uiso   1.00
O642   O     0.87154   0.77225   0.25000   0.00000  Uiso   1.00
O643   O     0.87157   0.89441   0.25000   0.00000  Uiso   1.00
O644   O     0.79510   0.77226   0.25000   0.00000  Uiso   1.00
O645   O     0.77328   0.83334   0.31612   0.00000  Uiso   1.00
O646   O     0.89339   0.83333   0.18388   0.00000  Uiso   1.00
O647   O     0.84972   0.83333   0.31612   0.00000  Uiso   1.00
O648   O     0.81695   0.83334   0.18388   0.00000  Uiso   1.00
Zn649  Zn    0.78229   0.83334   0.25000   0.00000  Uiso   1.00
Zn650  Zn    0.88438   0.83333   0.25000   0.00000  Uiso   1.00
C651   C     0.91807   0.95979   0.18205   0.00000  Uiso   1.00
O652   O     0.91378   0.92748   0.16231   0.00000  Uiso   1.00
O653   O     0.96356   0.97902   0.16959   0.00000  Uiso   1.00
H654   H     0.99000   0.96281   0.14460   0.00000  Uiso   1.00
C655   C     0.74857   0.70685   0.31787   0.00000  Uiso   1.00
O656   O     0.75279   0.73921   0.33757   0.00000  Uiso   1.00
O657   O     0.70312   0.68754   0.33033   0.00000  Uiso   1.00
H658   H     0.67663   0.70376   0.35528   0.00000  Uiso   1.00
C659   C     0.72742   0.76441   0.20828   0.00000  Uiso   1.00
O660   O     0.76491   0.76914   0.17446   0.00000  Uiso   1.00
O661   O     0.71144   0.72421   0.22447   0.00000  Uiso   1.00
H662   H     0.73495   0.70167   0.20636   0.00000  Uiso   1.00
C663   C     0.93919   0.90220   0.29183   0.00000  Uiso   1.00
O664   O     0.90182   0.89745   0.32577   0.00000  Uiso   1.00
O665   O     0.95504   0.94241   0.27557   0.00000  Uiso   1.00
H666   H     0.93154   0.96493   0.29373   0.00000  Uiso   1.00
C667   C     0.16736   0.24650   0.74862   0.00000  Uiso   1.00
C668   C     0.16598   0.08683   0.75137   0.00000  Uiso   1.00
C669   C     0.11965   0.21226   0.54566   0.00000  Uiso   1.00
C670   C     0.22824   0.17598   0.94595   0.00000  Uiso   1.00
C671   C     0.08608   0.21722   0.52466   0.00000  Uiso   1.00
C672   C     0.26196   0.17095   0.96661   0.00000  Uiso   1.00
C673   C     0.20832   0.31300   0.71800   0.00000  Uiso   1.00
C674   C     0.12502   0.02031   0.78197   0.00000  Uiso   1.00
C675   C     0.20687   0.02268   0.72143   0.00000  Uiso   1.00
C676   C     0.12649   0.31063   0.77857   0.00000  Uiso   1.00
C677   C     0.16566   0.04264   0.75244   0.00000  Uiso   1.00
C678   C     0.16769   0.29068   0.74755   0.00000  Uiso   1.00
C679   C     0.31601   0.13412   0.73098   0.00000  Uiso   1.00
C680   C     0.01731   0.19919   0.76906   0.00000  Uiso   1.00
C681   C     0.03053   0.13401   0.73051   0.00000  Uiso   1.00
C682   C     0.30279   0.19931   0.76954   0.00000  Uiso   1.00
C683   C     0.13637   0.16732   0.83792   0.00000  Uiso   1.00
C684   C     0.19701   0.16731   0.66211   0.00000  Uiso   1.00
C685   C     0.11845   0.17439   0.88809   0.00000  Uiso   1.00
C686   C     0.21608   0.17111   0.61160   0.00000  Uiso   1.00
C687   C     0.06239   0.20682   0.95829   0.00000  Uiso   1.00
C688   C     0.28006   0.16327   0.53600   0.00000  Uiso   1.00
C689   C     0.07352   0.19306   0.91249   0.00000  Uiso   1.00
C690   C     0.26448   0.16219   0.58434   0.00000  Uiso   1.00
C691   C     0.15127   0.16878   0.90981   0.00000  Uiso   1.00
C692   C     0.18433   0.18353   0.59064   0.00000  Uiso   1.00
C693   C     0.14298   0.18598   0.95365   0.00000  Uiso   1.00
C694   C     0.19913   0.18523   0.54231   0.00000  Uiso   1.00
C695   C     0.09686   0.20336   0.97909   0.00000  Uiso   1.00
C696   C     0.24741   0.17357   0.51479   0.00000  Uiso   1.00
C697   C     0.17915   0.18524   0.97302   0.00000  Uiso   1.00
C698   C     0.16587   0.19458   0.52089   0.00000  Uiso   1.00
H699   H     0.05121   0.23111   0.54450   0.00000  Uiso   1.00
H700   H     0.29900   0.16310   0.94497   0.00000  Uiso   1.00
H701   H     0.14717   0.18948   0.61269   0.00000  Uiso   1.00
H702   H     0.18388   0.15135   0.89135   0.00000  Uiso   1.00
H703   H     0.28965   0.15298   0.60025   0.00000  Uiso   1.00
H704   H     0.04790   0.19821   0.89581   0.00000  Uiso   1.00
H705   H     0.02751   0.22117   0.97695   0.00000  Uiso   1.00
H706   H     0.31701   0.15444   0.51526   0.00000  Uiso   1.00
H707   H     0.10905   0.22386   0.58093   0.00000  Uiso   1.00
H708   H     0.24179   0.17338   0.90846   0.00000  Uiso   1.00
H709   H     0.23715   0.04096   0.69849   0.00000  Uiso   1.00
H710   H     0.09622   0.29235   0.80152   0.00000  Uiso   1.00
H711   H     0.30327   0.10834   0.71546   0.00000  Uiso   1.00
H712   H     0.03003   0.22496   0.78461   0.00000  Uiso   1.00
N713   N     0.04759   0.16668   0.75001   0.00000  Uiso   1.00
N714   N     0.28574   0.16666   0.74999   0.00000  Uiso   1.00
O715   O     0.12846   0.22775   0.75000   0.00000  Uiso   1.00
O716   O     0.20488   0.10558   0.75000   0.00000  Uiso   1.00
O717   O     0.20490   0.22774   0.75000   0.00000  Uiso   1.00
O718   O     0.12843   0.10559   0.75000   0.00000  Uiso   1.00
O719   O     0.10661   0.16667   0.81612   0.00000  Uiso   1.00
O720   O     0.22672   0.16666   0.68388   0.00000  Uiso   1.00
O721   O     0.18305   0.16666   0.81612   0.00000  Uiso   1.00
O722   O     0.15028   0.16667   0.68388   0.00000  Uiso   1.00
Zn723  Zn    0.11562   0.16667   0.75000   0.00000  Uiso   1.00
Zn724  Zn    0.21771   0.16666   0.75000   0.00000  Uiso   1.00
C725   C     0.25140   0.29312   0.68205   0.00000  Uiso   1.00
O726   O     0.24711   0.26081   0.66231   0.00000  Uiso   1.00
O727   O     0.29689   0.31236   0.66959   0.00000  Uiso   1.00
H728   H     0.32334   0.29614   0.64460   0.00000  Uiso   1.00
C729   C     0.08190   0.04019   0.81787   0.00000  Uiso   1.00
O730   O     0.08612   0.07255   0.83757   0.00000  Uiso   1.00
O731   O     0.03645   0.02088   0.83033   0.00000  Uiso   1.00
H732   H     0.00996   0.03709   0.85528   0.00000  Uiso   1.00
C733   C     0.06076   0.09774   0.70828   0.00000  Uiso   1.00
O734   O     0.09825   0.10247   0.67446   0.00000  Uiso   1.00
O735   O     0.04477   0.05755   0.72447   0.00000  Uiso   1.00
H736   H     0.06828   0.03500   0.70636   0.00000  Uiso   1.00
C737   C     0.27253   0.23554   0.79183   0.00000  Uiso   1.00
O738   O     0.23516   0.23079   0.82577   0.00000  Uiso   1.00
O739   O     0.28838   0.27574   0.77557   0.00000  Uiso   1.00
H740   H     0.26487   0.29826   0.79373   0.00000  Uiso   1.00
C741   C     0.50069   0.24650   0.74862   0.00000  Uiso   1.00
C742   C     0.49931   0.08683   0.75137   0.00000  Uiso   1.00
C743   C     0.45298   0.21226   0.54566   0.00000  Uiso   1.00
C744   C     0.56157   0.17598   0.94595   0.00000  Uiso   1.00
C745   C     0.41941   0.21722   0.52466   0.00000  Uiso   1.00
C746   C     0.59529   0.17095   0.96661   0.00000  Uiso   1.00
C747   C     0.54165   0.31300   0.71800   0.00000  Uiso   1.00
C748   C     0.45836   0.02031   0.78197   0.00000  Uiso   1.00
C749   C     0.54020   0.02268   0.72143   0.00000  Uiso   1.00
C750   C     0.45982   0.31063   0.77857   0.00000  Uiso   1.00
C751   C     0.49899   0.04264   0.75244   0.00000  Uiso   1.00
C752   C     0.50102   0.29068   0.74755   0.00000  Uiso   1.00
C753   C     0.64934   0.13412   0.73098   0.00000  Uiso   1.00
C754   C     0.35065   0.19919   0.76906   0.00000  Uiso   1.00
C755   C     0.36386   0.13401   0.73051   0.00000  Uiso   1.00
C756   C     0.63612   0.19931   0.76954   0.00000  Uiso   1.00
C757   C     0.46970   0.16732   0.83792   0.00000  Uiso   1.00
C758   C     0.53035   0.16731   0.66211   0.00000  Uiso   1.00
C759   C     0.45179   0.17439   0.88809   0.00000  Uiso   1.00
C760   C     0.54941   0.17111   0.61160   0.00000  Uiso   1.00
C761   C     0.39572   0.20682   0.95829   0.00000  Uiso   1.00
C762   C     0.61339   0.16327   0.53600   0.00000  Uiso   1.00
C763   C     0.40685   0.19306   0.91249   0.00000  Uiso   1.00
C764   C     0.59781   0.16219   0.58434   0.00000  Uiso   1.00
C765   C     0.48461   0.16878   0.90981   0.00000  Uiso   1.00
C766   C     0.51766   0.18353   0.59064   0.00000  Uiso   1.00
C767   C     0.47631   0.18598   0.95365   0.00000  Uiso   1.00
C768   C     0.53246   0.18523   0.54231   0.00000  Uiso   1.00
C769   C     0.43020   0.20336   0.97909   0.00000  Uiso   1.00
C770   C     0.58075   0.17357   0.51479   0.00000  Uiso   1.00
C771   C     0.51248   0.18524   0.97302   0.00000  Uiso   1.00
C772   C     0.49920   0.19458   0.52089   0.00000  Uiso   1.00
H773   H     0.38454   0.23111   0.54450   0.00000  Uiso   1.00
H774   H     0.63233   0.16310   0.94497   0.00000  Uiso   1.00
H775   H     0.48050   0.18948   0.61269   0.00000  Uiso   1.00
H776   H     0.51721   0.15135   0.89135   0.00000  Uiso   1.00
H777   H     0.62299   0.15298   0.60025   0.00000  Uiso   1.00
H778   H     0.38124   0.19821   0.89581   0.00000  Uiso   1.00
H779   H     0.36085   0.22117   0.97695   0.00000  Uiso   1.00
H780   H     0.65034   0.15444   0.51526   0.00000  Uiso   1.00
H781   H     0.44238   0.22386   0.58093   0.00000  Uiso   1.00
H782   H     0.57512   0.17338   0.90846   0.00000  Uiso   1.00
H783   H     0.57048   0.04096   0.69849   0.00000  Uiso   1.00
H784   H     0.42955   0.29235   0.80152   0.00000  Uiso   1.00
H785   H     0.63660   0.10834   0.71546   0.00000  Uiso   1.00
H786   H     0.36337   0.22496   0.78461   0.00000  Uiso   1.00
N787   N     0.38093   0.16668   0.75001   0.00000  Uiso   1.00
N788   N     0.61907   0.16666   0.74999   0.00000  Uiso   1.00
O789   O     0.46179   0.22775   0.75000   0.00000  Uiso   1.00
O790   O     0.53821   0.10558   0.75000   0.00000  Uiso   1.00
O791   O     0.53823   0.22774   0.75000   0.00000  Uiso   1.00
O792   O     0.46177   0.10559   0.75000   0.00000  Uiso   1.00
O793   O     0.43994   0.16667   0.81612   0.00000  Uiso   1.00
O794   O     0.56006   0.16666   0.68388   0.00000  Uiso   1.00
O795   O     0.51639   0.16666   0.81612   0.00000  Uiso   1.00
O796   O     0.48361   0.16667   0.68388   0.00000  Uiso   1.00
Zn797  Zn    0.44896   0.16667   0.75000   0.00000  Uiso   1.00
Zn798  Zn    0.55104   0.16666   0.75000   0.00000  Uiso   1.00
C799   C     0.58473   0.29312   0.68205   0.00000  Uiso   1.00
O800   O     0.58045   0.26081   0.66231   0.00000  Uiso   1.00
O801   O     0.63023   0.31236   0.66959   0.00000  Uiso   1.00
H802   H     0.65667   0.29614   0.64460   0.00000  Uiso   1.00
C803   C     0.41524   0.04019   0.81787   0.00000  Uiso   1.00
O804   O     0.41945   0.07255   0.83757   0.00000  Uiso   1.00
O805   O     0.36978   0.02088   0.83033   0.00000  Uiso   1.00
H806   H     0.34330   0.03709   0.85528   0.00000  Uiso   1.00
C807   C     0.39409   0.09774   0.70828   0.00000  Uiso   1.00
O808   O     0.43158   0.10247   0.67446   0.00000  Uiso   1.00
O809   O     0.37810   0.05755   0.72447   0.00000  Uiso   1.00
H810   H     0.40161   0.03500   0.70636   0.00000  Uiso   1.00
C811   C     0.60586   0.23554   0.79183   0.00000  Uiso   1.00
O812   O     0.56849   0.23079   0.82577   0.00000  Uiso   1.00
O813   O     0.62171   0.27574   0.77557   0.00000  Uiso   1.00
H814   H     0.59820   0.29826   0.79373   0.00000  Uiso   1.00
C815   C     0.83403   0.24650   0.74862   0.00000  Uiso   1.00
C816   C     0.83265   0.08683   0.75137   0.00000  Uiso   1.00
C817   C     0.78632   0.21226   0.54566   0.00000  Uiso   1.00
C818   C     0.89490   0.17598   0.94595   0.00000  Uiso   1.00
C819   C     0.75275   0.21722   0.52466   0.00000  Uiso   1.00
C820   C     0.92862   0.17095   0.96661   0.00000  Uiso   1.00
C821   C     0.87499   0.31300   0.71800   0.00000  Uiso   1.00
C822   C     0.79169   0.02031   0.78197   0.00000  Uiso   1.00
C823   C     0.87354   0.02268   0.72143   0.00000  Uiso   1.00
C824   C     0.79315   0.31063   0.77857   0.00000  Uiso   1.00
C825   C     0.83232   0.04264   0.75244   0.00000  Uiso   1.00
C826   C     0.83436   0.29068   0.74755   0.00000  Uiso   1.00
C827   C     0.98267   0.13412   0.73098   0.00000  Uiso   1.00
C828   C     0.68398   0.19919   0.76906   0.00000  Uiso   1.00
C829   C     0.69719   0.13401   0.73051   0.00000  Uiso   1.00
C830   C     0.96945   0.19931   0.76954   0.00000  Uiso   1.00
C831   C     0.80304   0.16732   0.83792   0.00000  Uiso   1.00
C832   C     0.86368   0.16731   0.66211   0.00000  Uiso   1.00
C833   C     0.78512   0.17439   0.88809   0.00000  Uiso   1.00
C834   C     0.88275   0.17111   0.61160   0.00000  Uiso   1.00
C835   C     0.72906   0.20682   0.95829   0.00000  Uiso   1.00
C836   C     0.94672   0.16327   0.53600   0.00000  Uiso   1.00
C837   C     0.74018   0.19306   0.91249   0.00000  Uiso   1.00
C838   C     0.93114   0.16219   0.58434   0.00000  Uiso   1.00
C839   C     0.81794   0.16878   0.90981   0.00000  Uiso   1.00
C840   C     0.85100   0.18353   0.59064   0.00000  Uiso   1.00
C841   C     0.80965   0.18598   0.95365   0.00000  Uiso   1.00
C842   C     0.86579   0.18523   0.54231   0.00000  Uiso   1.00
C843   C     0.76353   0.20336   0.97909   0.00000  Uiso   1.00
C844   C     0.91408   0.17357   0.51479   0.00000  Uiso   1.00
C845   C     0.84582   0.18524   0.97302   0.00000  Uiso   1.00
C846   C     0.83253   0.19458   0.52089   0.00000  Uiso   1.00
H847   H     0.71787   0.23111   0.54450   0.00000  Uiso   1.00
H848   H     0.96567   0.16310   0.94497   0.00000  Uiso   1.00
H849   H     0.81384   0.18948   0.61269   0.00000  Uiso   1.00
H850   H     0.85054   0.15135   0.89135   0.00000  Uiso   1.00
H851   H     0.95632   0.15298   0.60025   0.00000  Uiso   1.00
H852   H     0.71457   0.19821   0.89581   0.00000  Uiso   1.00
H853   H     0.69418   0.22117   0.97695   0.00000  Uiso   1.00
H854   H     0.98368   0.15444   0.51526   0.00000  Uiso   1.00
H855   H     0.77572   0.22386   0.58093   0.00000  Uiso   1.00
H856   H     0.90846   0.17338   0.90846   0.00000  Uiso   1.00
H857   H     0.90381   0.04096   0.69849   0.00000  Uiso   1.00
H858   H     0.76289   0.29235   0.80152   0.00000  Uiso   1.00
H859   H     0.96994   0.10834   0.71546   0.00000  Uiso   1.00
H860   H     0.69670   0.22496   0.78461   0.00000  Uiso   1.00
N861   N     0.71426   0.16668   0.75001   0.00000  Uiso   1.00
N862   N     0.95241   0.16666   0.74999   0.00000  Uiso   1.00
O863   O     0.79512   0.22775   0.75000   0.00000  Uiso   1.00
O864   O     0.87154   0.10558   0.75000   0.00000  Uiso   1.00
O865   O     0.87157   0.22774   0.75000   0.00000  Uiso   1.00
O866   O     0.79510   0.10559   0.75000   0.00000  Uiso   1.00
O867   O     0.77328   0.16667   0.81612   0.00000  Uiso   1.00
O868   O     0.89339   0.16666   0.68388   0.00000  Uiso   1.00
O869   O     0.84972   0.16666   0.81612   0.00000  Uiso   1.00
O870   O     0.81695   0.16667   0.68388   0.00000  Uiso   1.00
Zn871  Zn    0.78229   0.16667   0.75000   0.00000  Uiso   1.00
Zn872  Zn    0.88438   0.16666   0.75000   0.00000  Uiso   1.00
C873   C     0.91807   0.29312   0.68205   0.00000  Uiso   1.00
O874   O     0.91378   0.26081   0.66231   0.00000  Uiso   1.00
O875   O     0.96356   0.31236   0.66959   0.00000  Uiso   1.00
H876   H     0.99000   0.29614   0.64460   0.00000  Uiso   1.00
C877   C     0.74857   0.04019   0.81787   0.00000  Uiso   1.00
O878   O     0.75279   0.07255   0.83757   0.00000  Uiso   1.00
O879   O     0.70312   0.02088   0.83033   0.00000  Uiso   1.00
H880   H     0.67663   0.03709   0.85528   0.00000  Uiso   1.00
C881   C     0.72742   0.09774   0.70828   0.00000  Uiso   1.00
O882   O     0.76491   0.10247   0.67446   0.00000  Uiso   1.00
O883   O     0.71144   0.05755   0.72447   0.00000  Uiso   1.00
H884   H     0.73495   0.03500   0.70636   0.00000  Uiso   1.00
C885   C     0.93919   0.23554   0.79183   0.00000  Uiso   1.00
O886   O     0.90182   0.23079   0.82577   0.00000  Uiso   1.00
O887   O     0.95504   0.27574   0.77557   0.00000  Uiso   1.00
H888   H     0.93154   0.29826   0.79373   0.00000  Uiso   1.00
C889   C     0.16736   0.57983   0.74862   0.00000  Uiso   1.00
C890   C     0.16598   0.42016   0.75137   0.00000  Uiso   1.00
C891   C     0.11965   0.54559   0.54566   0.00000  Uiso   1.00
C892   C     0.22824   0.50932   0.94595   0.00000  Uiso   1.00
C893   C     0.08608   0.55055   0.52466   0.00000  Uiso   1.00
C894   C     0.26196   0.50428   0.96661   0.00000  Uiso   1.00
C895   C     0.20832   0.64634   0.71800   0.00000  Uiso   1.00
C896   C     0.12502   0.35365   0.78197   0.00000  Uiso   1.00
C897   C     0.20687   0.35602   0.72143   0.00000  Uiso   1.00
C898   C     0.12649   0.64397   0.77857   0.00000  Uiso   1.00
C899   C     0.16566   0.37597   0.75244   0.00000  Uiso   1.00
C900   C     0.16769   0.62401   0.74755   0.00000  Uiso   1.00
C901   C     0.31601   0.46746   0.73098   0.00000  Uiso   1.00
C902   C     0.01731   0.53253   0.76906   0.00000  Uiso   1.00
C903   C     0.03053   0.46734   0.73051   0.00000  Uiso   1.00
C904   C     0.30279   0.53264   0.76954   0.00000  Uiso   1.00
C905   C     0.13637   0.50065   0.83792   0.00000  Uiso   1.00
C906   C     0.19701   0.50064   0.66211   0.00000  Uiso   1.00
C907   C     0.11845   0.50773   0.88809   0.00000  Uiso   1.00
C908   C     0.21608   0.50444   0.61160   0.00000  Uiso   1.00
C909   C     0.06239   0.54015   0.95829   0.00000  Uiso   1.00
C910   C     0.28006   0.49660   0.53600   0.00000  Uiso   1.00
C911   C     0.07352   0.52640   0.91249   0.00000  Uiso   1.00
C912   C     0.26448   0.49552   0.58434   0.00000  Uiso   1.00
C913   C     0.15127   0.50211   0.90981   0.00000  Uiso   1.00
C914   C     0.18433   0.51686   0.59064   0.00000  Uiso   1.00
C915   C     0.14298   0.51931   0.95365   0.00000  Uiso   1.00
C916   C     0.19913   0.51856   0.54231   0.00000  Uiso   1.00
C917   C     0.09686   0.53670   0.97909   0.00000  Uiso   1.00
C918   C     0.24741   0.50690   0.51479   0.00000  Uiso   1.00
C919   C     0.17915   0.51857   0.97302   0.00000  Uiso   1.00
C920   C     0.16587   0.52792   0.52089   0.00000  Uiso   1.00
H921   H     0.05121   0.56445   0.54450   0.00000  Uiso   1.00
H922   H     0.29900   0.49644   0.94497   0.00000  Uiso   1.00
H923   H     0.14717   0.52281   0.61269   0.00000  Uiso   1.00
H924   H     0.18388   0.48468   0.89135   0.00000  Uiso   1.00
H925   H     0.28965   0.48632   0.60025   0.00000  Uiso   1.00
H926   H     0.04790   0.53155   0.89581   0.00000  Uiso   1.00
H927   H     0.02751   0.55451   0.97695   0.00000  Uiso   1.00
H928   H     0.31701   0.48777   0.51526   0.00000  Uiso   1.00
H929   H     0.10905   0.55720   0.58093   0.00000  Uiso   1.00
H930   H     0.24179   0.50671   0.90846   0.00000  Uiso   1.00
H931   H     0.23715   0.37429   0.69849   0.00000  Uiso   1.00
H932   H     0.09622   0.62568   0.80152   0.00000  Uiso   1.00
H933   H     0.30327   0.44167   0.71546   0.00000  Uiso   1.00
H934   H     0.03003   0.55830   0.78461   0.00000  Uiso   1.00
N935   N     0.04759   0.50001   0.75001   0.00000  Uiso   1.00
N936   N     0.28574   0.49999   0.74999   0.00000  Uiso   1.00
O937   O     0.12846   0.56108   0.75000   0.00000  Uiso   1.00
O938   O     0.20488   0.43892   0.75000   0.00000  Uiso   1.00
O939   O     0.20490   0.56107   0.75000   0.00000  Uiso   1.00
O940   O     0.12843   0.43893   0.75000   0.00000  Uiso   1.00
O941   O     0.10661   0.50001   0.81612   0.00000  Uiso   1.00
O942   O     0.22672   0.49999   0.68388   0.00000  Uiso   1.00
O943   O     0.18305   0.50000   0.81612   0.00000  Uiso   1.00
O944   O     0.15028   0.50000   0.68388   0.00000  Uiso   1.00
Zn945  Zn    0.11562   0.50001   0.75000   0.00000  Uiso   1.00
Zn946  Zn    0.21771   0.49999   0.75000   0.00000  Uiso   1.00
C947   C     0.25140   0.62645   0.68205   0.00000  Uiso   1.00
O948   O     0.24711   0.59414   0.66231   0.00000  Uiso   1.00
O949   O     0.29689   0.64569   0.66959   0.00000  Uiso   1.00
H950   H     0.32334   0.62947   0.64460   0.00000  Uiso   1.00
C951   C     0.08190   0.37352   0.81787   0.00000  Uiso   1.00
O952   O     0.08612   0.40588   0.83757   0.00000  Uiso   1.00
O953   O     0.03645   0.35421   0.83033   0.00000  Uiso   1.00
H954   H     0.00996   0.37042   0.85528   0.00000  Uiso   1.00
C955   C     0.06076   0.43108   0.70828   0.00000  Uiso   1.00
O956   O     0.09825   0.43580   0.67446   0.00000  Uiso   1.00
O957   O     0.04477   0.39088   0.72447   0.00000  Uiso   1.00
H958   H     0.06828   0.36834   0.70636   0.00000  Uiso   1.00
C959   C     0.27253   0.56887   0.79183   0.00000  Uiso   1.00
O960   O     0.23516   0.56412   0.82577   0.00000  Uiso   1.00
O961   O     0.28838   0.60907   0.77557   0.00000  Uiso   1.00
H962   H     0.26487   0.63159   0.79373   0.00000  Uiso   1.00
C963   C     0.50069   0.57983   0.74862   0.00000  Uiso   1.00
C964   C     0.49931   0.42016   0.75137   0.00000  Uiso   1.00
C965   C     0.45298   0.54559   0.54566   0.00000  Uiso   1.00
C966   C     0.56157   0.50932   0.94595   0.00000  Uiso   1.00
C967   C     0.41941   0.55055   0.52466   0.00000  Uiso   1.00
C968   C     0.59529   0.50428   0.96661   0.00000  Uiso   1.00
C969   C     0.54165   0.64634   0.71800   0.00000  Uiso   1.00
C970   C     0.45836   0.35365   0.78197   0.00000  Uiso   1.00
C971   C     0.54020   0.35602   0.72143   0.00000  Uiso   1.00
C972   C     0.45982   0.64397   0.77857   0.00000  Uiso   1.00
C973   C     0.49899   0.37597   0.75244   0.00000  Uiso   1.00
C974   C     0.50102   0.62401   0.74755   0.00000  Uiso   1.00
C975   C     0.64934   0.46746   0.73098   0.00000  Uiso   1.00
C976   C     0.35065   0.53253   0.76906   0.00000  Uiso   1.00
C977   C     0.36386   0.46734   0.73051   0.00000  Uiso   1.00
C978   C     0.63612   0.53264   0.76954   0.00000  Uiso   1.00
C979   C     0.46970   0.50065   0.83792   0.00000  Uiso   1.00
C980   C     0.53035   0.50064   0.66211   0.00000  Uiso   1.00
C981   C     0.45179   0.50773   0.88809   0.00000  Uiso   1.00
C982   C     0.54941   0.50444   0.61160   0.00000  Uiso   1.00
C983   C     0.39572   0.54015   0.95829   0.00000  Uiso   1.00
C984   C     0.61339   0.49660   0.53600   0.00000  Uiso   1.00
C985   C     0.40685   0.52640   0.91249   0.00000  Uiso   1.00
C986   C     0.59781   0.49552   0.58434   0.00000  Uiso   1.00
C987   C     0.48461   0.50211   0.90981   0.00000  Uiso   1.00
C988   C     0.51766   0.51686   0.59064   0.00000  Uiso   1.00
C989   C     0.47631   0.51931   0.95365   0.00000  Uiso   1.00
C990   C     0.53246   0.51856   0.54231   0.00000  Uiso   1.00
C991   C     0.43020   0.53670   0.97909   0.00000  Uiso   1.00
C992   C     0.58075   0.50690   0.51479   0.00000  Uiso   1.00
C993   C     0.51248   0.51857   0.97302   0.00000  Uiso   1.00
C994   C     0.49920   0.52792   0.52089   0.00000  Uiso   1.00
H995   H     0.38454   0.56445   0.54450   0.00000  Uiso   1.00
H996   H     0.63233   0.49644   0.94497   0.00000  Uiso   1.00
H997   H     0.48050   0.52281   0.61269   0.00000  Uiso   1.00
H998   H     0.51721   0.48468   0.89135   0.00000  Uiso   1.00
H999   H     0.62299   0.48632   0.60025   0.00000  Uiso   1.00
H1000  H     0.38124   0.53155   0.89581   0.00000  Uiso   1.00
H1001  H     0.36085   0.55451   0.97695   0.00000  Uiso   1.00
H1002  H     0.65034   0.48777   0.51526   0.00000  Uiso   1.00
H1003  H     0.44238   0.55720   0.58093   0.00000  Uiso   1.00
H1004  H     0.57512   0.50671   0.90846   0.00000  Uiso   1.00
H1005  H     0.57048   0.37429   0.69849   0.00000  Uiso   1.00
H1006  H     0.42955   0.62568   0.80152   0.00000  Uiso   1.00
H1007  H     0.63660   0.44167   0.71546   0.00000  Uiso   1.00
H1008  H     0.36337   0.55830   0.78461   0.00000  Uiso   1.00
N1009  N     0.38093   0.50001   0.75001   0.00000  Uiso   1.00
N1010  N     0.61907   0.49999   0.74999   0.00000  Uiso   1.00
O1011  O     0.46179   0.56108   0.75000   0.00000  Uiso   1.00
O1012  O     0.53821   0.43892   0.75000   0.00000  Uiso   1.00
O1013  O     0.53823   0.56107   0.75000   0.00000  Uiso   1.00
O1014  O     0.46177   0.43893   0.75000   0.00000  Uiso   1.00
O1015  O     0.43994   0.50001   0.81612   0.00000  Uiso   1.00
O1016  O     0.56006   0.49999   0.68388   0.00000  Uiso   1.00
O1017  O     0.51639   0.50000   0.81612   0.00000  Uiso   1.00
O1018  O     0.48361   0.50000   0.68388   0.00000  Uiso   1.00
Zn1019 Zn    0.44896   0.50001   0.75000   0.00000  Uiso   1.00
Zn1020 Zn    0.55104   0.49999   0.75000   0.00000  Uiso   1.00
C1021  C     0.58473   0.62645   0.68205   0.00000  Uiso   1.00
O1022  O     0.58045   0.59414   0.66231   0.00000  Uiso   1.00
O1023  O     0.63023   0.64569   0.66959   0.00000  Uiso   1.00
H1024  H     0.65667   0.62947   0.64460   0.00000  Uiso   1.00
C1025  C     0.41524   0.37352   0.81787   0.00000  Uiso   1.00
O1026  O     0.41945   0.40588   0.83757   0.00000  Uiso   1.00
O1027  O     0.36978   0.35421   0.83033   0.00000  Uiso   1.00
H1028  H     0.34330   0.37042   0.85528   0.00000  Uiso   1.00
C1029  C     0.39409   0.43108   0.70828   0.00000  Uiso   1.00
O1030  O     0.43158   0.43580   0.67446   0.00000  Uiso   1.00
O1031  O     0.37810   0.39088   0.72447   0.00000  Uiso   1.00
H1032  H     0.40161   0.36834   0.70636   0.00000  Uiso   1.00
C1033  C     0.60586   0.56887   0.79183   0.00000  Uiso   1.00
O1034  O     0.56849   0.56412   0.82577   0.00000  Uiso   1.00
O1035  O     0.62171   0.60907   0.77557   0.00000  Uiso   1.00
H1036  H     0.59820   0.63159   0.79373   0.00000  Uiso   1.00
C1037  C     0.83403   0.57983   0.74862   0.00000  Uiso   1.00
C1038  C     0.83265   0.42016   0.75137   0.00000  Uiso   1.00
C1039  C     0.78632   0.54559   0.54566   0.00000  Uiso   1.00
C1040  C     0.89490   0.50932   0.94595   0.00000  Uiso   1.00
C1041  C     0.75275   0.55055   0.52466   0.00000  Uiso   1.00
C1042  C     0.92862   0.50428   0.96661   0.00000  Uiso   1.00
C1043  C     0.87499   0.64634   0.71800   0.00000  Uiso   1.00
C1044  C     0.79169   0.35365   0.78197   0.00000  Uiso   1.00
C1045  C     0.87354   0.35602   0.72143   0.00000  Uiso   1.00
C1046  C     0.79315   0.64397   0.77857   0.00000  Uiso   1.00
C1047  C     0.83232   0.37597   0.75244   0.00000  Uiso   1.00
C1048  C     0.83436   0.62401   0.74755   0.00000  Uiso   1.00
C1049  C     0.98267   0.46746   0.73098   0.00000  Uiso   1.00
C1050  C     0.68398   0.53253   0.76906   0.00000  Uiso   1.00
C1051  C     0.69719   0.46734   0.73051   0.00000  Uiso   1.00
C1052  C     0.96945   0.53264   0.76954   0.00000  Uiso   1.00
C1053  C     0.80304   0.50065   0.83792   0.00000  Uiso   1.00
C1054  C     0.86368   0.50064   0.66211   0.00000  Uiso   1.00
C1055  C     0.78512   0.50773   0.88809   0.00000  Uiso   1.00
C1056  C     0.88275   0.50444   0.61160   0.00000  Uiso   1.00
C1057  C     0.72906   0.54015   0.95829   0.00000  Uiso   1.00
C1058  C     0.94672   0.49660   0.53600   0.00000  Uiso   1.00
C1059  C     0.74018   0.52640   0.91249   0.00000  Uiso   1.00
C1060  C     0.93114   0.49552   0.58434   0.00000  Uiso   1.00
C1061  C     0.81794   0.50211   0.90981   0.00000  Uiso   1.00
C1062  C     0.85100   0.51686   0.59064   0.00000  Uiso   1.00
C1063  C     0.80965   0.51931   0.95365   0.00000  Uiso   1.00
C1064  C     0.86579   0.51856   0.54231   0.00000  Uiso   1.00
C1065  C     0.76353   0.53670   0.97909   0.00000  Uiso   1.00
C1066  C     0.91408   0.50690   0.51479   0.00000  Uiso   1.00
C1067  C     0.84582   0.51857   0.97302   0.00000  Uiso   1.00
C1068  C     0.83253   0.52792   0.52089   0.00000  Uiso   1.00
H1069  H     0.71787   0.56445   0.54450   0.00000  Uiso   1.00
H1070  H     0.96567   0.49644   0.94497   0.00000  Uiso   1.00
H1071  H     0.81384   0.52281   0.61269   0.00000  Uiso   1.00
H1072  H     0.85054   0.48468   0.89135   0.00000  Uiso   1.00
H1073  H     0.95632   0.48632   0.60025   0.00000  Uiso   1.00
H1074  H     0.71457   0.53155   0.89581   0.00000  Uiso   1.00
H1075  H     0.69418   0.55451   0.97695   0.00000  Uiso   1.00
H1076  H     0.98368   0.48777   0.51526   0.00000  Uiso   1.00
H1077  H     0.77572   0.55720   0.58093   0.00000  Uiso   1.00
H1078  H     0.90846   0.50671   0.90846   0.00000  Uiso   1.00
H1079  H     0.90381   0.37429   0.69849   0.00000  Uiso   1.00
H1080  H     0.76289   0.62568   0.80152   0.00000  Uiso   1.00
H1081  H     0.96994   0.44167   0.71546   0.00000  Uiso   1.00
H1082  H     0.69670   0.55830   0.78461   0.00000  Uiso   1.00
N1083  N     0.71426   0.50001   0.75001   0.00000  Uiso   1.00
N1084  N     0.95241   0.49999   0.74999   0.00000  Uiso   1.00
O1085  O     0.79512   0.56108   0.75000   0.00000  Uiso   1.00
O1086  O     0.87154   0.43892   0.75000   0.00000  Uiso   1.00
O1087  O     0.87157   0.56107   0.75000   0.00000  Uiso   1.00
O1088  O     0.79510   0.43893   0.75000   0.00000  Uiso   1.00
O1089  O     0.77328   0.50001   0.81612   0.00000  Uiso   1.00
O1090  O     0.89339   0.49999   0.68388   0.00000  Uiso   1.00
O1091  O     0.84972   0.50000   0.81612   0.00000  Uiso   1.00
O1092  O     0.81695   0.50000   0.68388   0.00000  Uiso   1.00
Zn1093 Zn    0.78229   0.50001   0.75000   0.00000  Uiso   1.00
Zn1094 Zn    0.88438   0.49999   0.75000   0.00000  Uiso   1.00
C1095  C     0.91807   0.62645   0.68205   0.00000  Uiso   1.00
O1096  O     0.91378   0.59414   0.66231   0.00000  Uiso   1.00
O1097  O     0.96356   0.64569   0.66959   0.00000  Uiso   1.00
H1098  H     0.99000   0.62947   0.64460   0.00000  Uiso   1.00
C1099  C     0.74857   0.37352   0.81787   0.00000  Uiso   1.00
O1100  O     0.75279   0.40588   0.83757   0.00000  Uiso   1.00
O1101  O     0.70312   0.35421   0.83033   0.00000  Uiso   1.00
H1102  H     0.67663   0.37042   0.85528   0.00000  Uiso   1.00
C1103  C     0.72742   0.43108   0.70828   0.00000  Uiso   1.00
O1104  O     0.76491   0.43580   0.67446   0.00000  Uiso   1.00
O1105  O     0.71144   0.39088   0.72447   0.00000  Uiso   1.00
H1106  H     0.73495   0.36834   0.70636   0.00000  Uiso   1.00
C1107  C     0.93919   0.56887   0.79183   0.00000  Uiso   1.00
O1108  O     0.90182   0.56412   0.82577   0.00000  Uiso   1.00
O1109  O     0.95504   0.60907   0.77557   0.00000  Uiso   1.00
H1110  H     0.93154   0.63159   0.79373   0.00000  Uiso   1.00
C1111  C     0.16736   0.91317   0.74862   0.00000  Uiso   1.00
C1112  C     0.16598   0.75350   0.75137   0.00000  Uiso   1.00
C1113  C     0.11965   0.87892   0.54566   0.00000  Uiso   1.00
C1114  C     0.22824   0.84265   0.94595   0.00000  Uiso   1.00
C1115  C     0.08608   0.88388   0.52466   0.00000  Uiso   1.00
C1116  C     0.26196   0.83761   0.96661   0.00000  Uiso   1.00
C1117  C     0.20832   0.97967   0.71800   0.00000  Uiso   1.00
C1118  C     0.12502   0.68698   0.78197   0.00000  Uiso   1.00
C1119  C     0.20687   0.68935   0.72143   0.00000  Uiso   1.00
C1120  C     0.12649   0.97730   0.77857   0.00000  Uiso   1.00
C1121  C     0.16566   0.70931   0.75244   0.00000  Uiso   1.00
C1122  C     0.16769   0.95735   0.74755   0.00000  Uiso   1.00
C1123  C     0.31601   0.80079   0.73098   0.00000  Uiso   1.00
C1124  C     0.01731   0.86586   0.76906   0.00000  Uiso   1.00
C1125  C     0.03053   0.80067   0.73051   0.00000  Uiso   1.00
C1126  C     0.30279   0.86597   0.76954   0.00000  Uiso   1.00
C1127  C     0.13637   0.83398   0.83792   0.00000  Uiso   1.00
C1128  C     0.19701   0.83398   0.66211   0.00000  Uiso   1.00
C1129  C     0.11845   0.84106   0.88809   0.00000  Uiso   1.00
C1130  C     0.21608   0.83777   0.61160   0.00000  Uiso   1.00
C1131  C     0.06239   0.87348   0.95829   0.00000  Uiso   1.00
C1132  C     0.28006   0.82993   0.53600   0.00000  Uiso   1.00
C1133  C     0.07352   0.85973   0.91249   0.00000  Uiso   1.00
C1134  C     0.26448   0.82885   0.58434   0.00000  Uiso   1.00
C1135  C     0.15127   0.83545   0.90981   0.00000  Uiso   1.00
C1136  C     0.18433   0.85019   0.59064   0.00000  Uiso   1.00
C1137  C     0.14298   0.85264   0.95365   0.00000  Uiso   1.00
C1138  C     0.19913   0.85189   0.54231   0.00000  Uiso   1.00
C1139  C     0.09686   0.87003   0.97909   0.00000  Uiso   1.00
C1140  C     0.24741   0.84023   0.51479   0.00000  Uiso   1.00
C1141  C     0.17915   0.85191   0.97302   0.00000  Uiso   1.00
C1142  C     0.16587   0.86125   0.52089   0.00000  Uiso   1.00
H1143  H     0.05121   0.89778   0.54450   0.00000  Uiso   1.00
H1144  H     0.29900   0.82977   0.94497   0.00000  Uiso   1.00
H1145  H     0.14717   0.85614   0.61269   0.00000  Uiso   1.00
H1146  H     0.18388   0.81801   0.89135   0.00000  Uiso   1.00
H1147  H     0.28965   0.81965   0.60025   0.00000  Uiso   1.00
H1148  H     0.04790   0.86488   0.89581   0.00000  Uiso   1.00
H1149  H     0.02751   0.88784   0.97695   0.00000  Uiso   1.00
H1150  H     0.31701   0.82110   0.51526   0.00000  Uiso   1.00
H1151  H     0.10905   0.89053   0.58093   0.00000  Uiso   1.00
H1152  H     0.24179   0.84004   0.90846   0.00000  Uiso   1.00
H1153  H     0.23715   0.70763   0.69849   0.00000  Uiso   1.00
H1154  H     0.09622   0.95902   0.80152   0.00000  Uiso   1.00
H1155  H     0.30327   0.77501   0.71546   0.00000  Uiso   1.00
H1156  H     0.03003   0.89163   0.78461   0.00000  Uiso   1.00
N1157  N     0.04759   0.83334   0.75001   0.00000  Uiso   1.00
N1158  N     0.28574   0.83332   0.74999   0.00000  Uiso   1.00
O1159  O     0.12846   0.89442   0.75000   0.00000  Uiso   1.00
O1160  O     0.20488   0.77225   0.75000   0.00000  Uiso   1.00
O1161  O     0.20490   0.89441   0.75000   0.00000  Uiso   1.00
O1162  O     0.12843   0.77226   0.75000   0.00000  Uiso   1.00
O1163  O     0.10661   0.83334   0.81612   0.00000  Uiso   1.00
O1164  O     0.22672   0.83333   0.68388   0.00000  Uiso   1.00
O1165  O     0.18305   0.83333   0.81612   0.00000  Uiso   1.00
O1166  O     0.15028   0.83334   0.68388   0.00000  Uiso   1.00
Zn1167 Zn    0.11562   0.83334   0.75000   0.00000  Uiso   1.00
Zn1168 Zn    0.21771   0.83333   0.75000   0.00000  Uiso   1.00
C1169  C     0.25140   0.95979   0.68205   0.00000  Uiso   1.00
O1170  O     0.24711   0.92748   0.66231   0.00000  Uiso   1.00
O1171  O     0.29689   0.97902   0.66959   0.00000  Uiso   1.00
H1172  H     0.32334   0.96281   0.64460   0.00000  Uiso   1.00
C1173  C     0.08190   0.70685   0.81787   0.00000  Uiso   1.00
O1174  O     0.08612   0.73921   0.83757   0.00000  Uiso   1.00
O1175  O     0.03645   0.68754   0.83033   0.00000  Uiso   1.00
H1176  H     0.00996   0.70376   0.85528   0.00000  Uiso   1.00
C1177  C     0.06076   0.76441   0.70828   0.00000  Uiso   1.00
O1178  O     0.09825   0.76914   0.67446   0.00000  Uiso   1.00
O1179  O     0.04477   0.72421   0.72447   0.00000  Uiso   1.00
H1180  H     0.06828   0.70167   0.70636   0.00000  Uiso   1.00
C1181  C     0.27253   0.90220   0.79183   0.00000  Uiso   1.00
O1182  O     0.23516   0.89745   0.82577   0.00000  Uiso   1.00
O1183  O     0.28838   0.94241   0.77557   0.00000  Uiso   1.00
H1184  H     0.26487   0.96493   0.79373   0.00000  Uiso   1.00
C1185  C     0.50069   0.91317   0.74862   0.00000  Uiso   1.00
C1186  C     0.49931   0.75350   0.75137   0.00000  Uiso   1.00
C1187  C     0.45298   0.87892   0.54566   0.00000  Uiso   1.00
C1188  C     0.56157   0.84265   0.94595   0.00000  Uiso   1.00
C1189  C     0.41941   0.88388   0.52466   0.00000  Uiso   1.00
C1190  C     0.59529   0.83761   0.96661   0.00000  Uiso   1.00
C1191  C     0.54165   0.97967   0.71800   0.00000  Uiso   1.00
C1192  C     0.45836   0.68698   0.78197   0.00000  Uiso   1.00
C1193  C     0.54020   0.68935   0.72143   0.00000  Uiso   1.00
C1194  C     0.45982   0.97730   0.77857   0.00000  Uiso   1.00
C1195  C     0.49899   0.70931   0.75244   0.00000  Uiso   1.00
C1196  C     0.50102   0.95735   0.74755   0.00000  Uiso   1.00
C1197  C     0.64934   0.80079   0.73098   0.00000  Uiso   1.00
C1198  C     0.35065   0.86586   0.76906   0.00000  Uiso   1.00
C1199  C     0.36386   0.80067   0.73051   0.00000  Uiso   1.00
C1200  C     0.63612   0.86597   0.76954   0.00000  Uiso   1.00
C1201  C     0.46970   0.83398   0.83792   0.00000  Uiso   1.00
C1202  C     0.53035   0.83398   0.66211   0.00000  Uiso   1.00
C1203  C     0.45179   0.84106   0.88809   0.00000  Uiso   1.00
C1204  C     0.54941   0.83777   0.61160   0.00000  Uiso   1.00
C1205  C     0.39572   0.87348   0.95829   0.00000  Uiso   1.00
C1206  C     0.61339   0.82993   0.53600   0.00000  Uiso   1.00
C1207  C     0.40685   0.85973   0.91249   0.00000  Uiso   1.00
C1208  C     0.59781   0.82885   0.58434   0.00000  Uiso   1.00
C1209  C     0.48461   0.83545   0.90981   0.00000  Uiso   1.00
C1210  C     0.51766   0.85019   0.59064   0.00000  Uiso   1.00
C1211  C     0.47631   0.85264   0.95365   0.00000  Uiso   1.00
C1212  C     0.53246   0.85189   0.54231   0.00000  Uiso   1.00
C1213  C     0.43020   0.87003   0.97909   0.00000  Uiso   1.00
C1214  C     0.58075   0.84023   0.51479   0.00000  Uiso   1.00
C1215  C     0.51248   0.85191   0.97302   0.00000  Uiso   1.00
C1216  C     0.49920   0.86125   0.52089   0.00000  Uiso   1.00
H1217  H     0.38454   0.89778   0.54450   0.00000  Uiso   1.00
H1218  H     0.63233   0.82977   0.94497   0.00000  Uiso   1.00
H1219  H     0.48050   0.85614   0.61269   0.00000  Uiso   1.00
H1220  H     0.51721   0.81801   0.89135   0.00000  Uiso   1.00
H1221  H     0.62299   0.81965   0.60025   0.00000  Uiso   1.00
H1222  H     0.38124   0.86488   0.89581   0.00000  Uiso   1.00
H1223  H     0.36085   0.88784   0.97695   0.00000  Uiso   1.00
H1224  H     0.65034   0.82110   0.51526   0.00000  Uiso   1.00
H1225  H     0.44238   0.89053   0.58093   0.00000  Uiso   1.00
H1226  H     0.57512   0.84004   0.90846   0.00000  Uiso   1.00
H1227  H     0.57048   0.70763   0.69849   0.00000  Uiso   1.00
H1228  H     0.42955   0.95902   0.80152   0.00000  Uiso   1.00
H1229  H     0.63660   0.77501   0.71546   0.00000  Uiso   1.00
H1230  H     0.36337   0.89163   0.78461   0.00000  Uiso   1.00
N1231  N     0.38093   0.83334   0.75001   0.00000  Uiso   1.00
N1232  N     0.61907   0.83332   0.74999   0.00000  Uiso   1.00
O1233  O     0.46179   0.89442   0.75000   0.00000  Uiso   1.00
O1234  O     0.53821   0.77225   0.75000   0.00000  Uiso   1.00
O1235  O     0.53823   0.89441   0.75000   0.00000  Uiso   1.00
O1236  O     0.46177   0.77226   0.75000   0.00000  Uiso   1.00
O1237  O     0.43994   0.83334   0.81612   0.00000  Uiso   1.00
O1238  O     0.56006   0.83333   0.68388   0.00000  Uiso   1.00
O1239  O     0.51639   0.83333   0.81612   0.00000  Uiso   1.00
O1240  O     0.48361   0.83334   0.68388   0.00000  Uiso   1.00
Zn1241 Zn    0.44896   0.83334   0.75000   0.00000  Uiso   1.00
Zn1242 Zn    0.55104   0.83333   0.75000   0.00000  Uiso   1.00
C1243  C     0.58473   0.95979   0.68205   0.00000  Uiso   1.00
O1244  O     0.58045   0.92748   0.66231   0.00000  Uiso   1.00
O1245  O     0.63023   0.97902   0.66959   0.00000  Uiso   1.00
H1246  H     0.65667   0.96281   0.64460   0.00000  Uiso   1.00
C1247  C     0.41524   0.70685   0.81787   0.00000  Uiso   1.00
O1248  O     0.41945   0.73921   0.83757   0.00000  Uiso   1.00
O1249  O     0.36978   0.68754   0.83033   0.00000  Uiso   1.00
H1250  H     0.34330   0.70376   0.85528   0.00000  Uiso   1.00
C1251  C     0.39409   0.76441   0.70828   0.00000  Uiso   1.00
O1252  O     0.43158   0.76914   0.67446   0.00000  Uiso   1.00
O1253  O     0.37810   0.72421   0.72447   0.00000  Uiso   1.00
H1254  H     0.40161   0.70167   0.70636   0.00000  Uiso   1.00
C1255  C     0.60586   0.90220   0.79183   0.00000  Uiso   1.00
O1256  O     0.56849   0.89745   0.82577   0.00000  Uiso   1.00
O1257  O     0.62171   0.94241   0.77557   0.00000  Uiso   1.00
H1258  H     0.59820   0.96493   0.79373   0.00000  Uiso   1.00
C1259  C     0.83403   0.91317   0.74862   0.00000  Uiso   1.00
C1260  C     0.83265   0.75350   0.75137   0.00000  Uiso   1.00
C1261  C     0.78632   0.87892   0.54566   0.00000  Uiso   1.00
C1262  C     0.89490   0.84265   0.94595   0.00000  Uiso   1.00
C1263  C     0.75275   0.88388   0.52466   0.00000  Uiso   1.00
C1264  C     0.92862   0.83761   0.96661   0.00000  Uiso   1.00
C1265  C     0.87499   0.97967   0.71800   0.00000  Uiso   1.00
C1266  C     0.79169   0.68698   0.78197   0.00000  Uiso   1.00
C1267  C     0.87354   0.68935   0.72143   0.00000  Uiso   1.00
C1268  C     0.79315   0.97730   0.77857   0.00000  Uiso   1.00
C1269  C     0.83232   0.70931   0.75244   0.00000  Uiso   1.00
C1270  C     0.83436   0.95735   0.74755   0.00000  Uiso   1.00
C1271  C     0.98267   0.80079   0.73098   0.00000  Uiso   1.00
C1272  C     0.68398   0.86586   0.76906   0.00000  Uiso   1.00
C1273  C     0.69719   0.80067   0.73051   0.00000  Uiso   1.00
C1274  C     0.96945   0.86597   0.76954   0.00000  Uiso   1.00
C1275  C     0.80304   0.83398   0.83792   0.00000  Uiso   1.00
C1276  C     0.86368   0.83398   0.66211   0.00000  Uiso   1.00
C1277  C     0.78512   0.84106   0.88809   0.00000  Uiso   1.00
C1278  C     0.88275   0.83777   0.61160   0.00000  Uiso   1.00
C1279  C     0.72906   0.87348   0.95829   0.00000  Uiso   1.00
C1280  C     0.94672   0.82993   0.53600   0.00000  Uiso   1.00
C1281  C     0.74018   0.85973   0.91249   0.00000  Uiso   1.00
C1282  C     0.93114   0.82885   0.58434   0.00000  Uiso   1.00
C1283  C     0.81794   0.83545   0.90981   0.00000  Uiso   1.00
C1284  C     0.85100   0.85019   0.59064   0.00000  Uiso   1.00
C1285  C     0.80965   0.85264   0.95365   0.00000  Uiso   1.00
C1286  C     0.86579   0.85189   0.54231   0.00000  Uiso   1.00
C1287  C     0.76353   0.87003   0.97909   0.00000  Uiso   1.00
C1288  C     0.91408   0.84023   0.51479   0.00000  Uiso   1.00
C1289  C     0.84582   0.85191   0.97302   0.00000  Uiso   1.00
C1290  C     0.83253   0.86125   0.52089   0.00000  Uiso   1.00
H1291  H     0.71787   0.89778   0.54450   0.00000  Uiso   1.00
H1292  H     0.96567   0.82977   0.94497   0.00000  Uiso   1.00
H1293  H     0.81384   0.85614   0.61269   0.00000  Uiso   1.00
H1294  H     0.85054   0.81801   0.89135   0.00000  Uiso   1.00
H1295  H     0.95632   0.81965   0.60025   0.00000  Uiso   1.00
H1296  H     0.71457   0.86488   0.89581   0.00000  Uiso   1.00
H1297  H     0.69418   0.88784   0.97695   0.00000  Uiso   1.00
H1298  H     0.98368   0.82110   0.51526   0.00000  Uiso   1.00
H1299  H     0.77572   0.89053   0.58093   0.00000  Uiso   1.00
H1300  H     0.90846   0.84004   0.90846   0.00000  Uiso   1.00
H1301  H     0.90381   0.70763   0.69849   0.00000  Uiso   1.00
H1302  H     0.76289   0.95902   0.80152   0.00000  Uiso   1.00
H1303  H     0.96994   0.77501   0.71546   0.00000  Uiso   1.00
H1304  H     0.69670   0.89163   0.78461   0.00000  Uiso   1.00
N1305  N     0.71426   0.83334   0.75001   0.00000  Uiso   1.00
N1306  N     0.95241   0.83332   0.74999   0.00000  Uiso   1.00
O1307  O     0.79512   0.89442   0.75000   0.00000  Uiso   1.00
O1308  O     0.87154   0.77225   0.75000   0.00000  Uiso   1.00
O1309  O     0.87157   0.89441   0.75000   0.00000  Uiso   1.00
O1310  O     0.79510   0.77226   0.75000   0.00000  Uiso   1.00
O1311  O     0.77328   0.83334   0.81612   0.00000  Uiso   1.00
O1312  O     0.89339   0.83333   0.68388   0.00000  Uiso   1.00
O1313  O     0.84972   0.83333   0.81612   0.00000  Uiso   1.00
O1314  O     0.81695   0.83334   0.68388   0.00000  Uiso   1.00
Zn1315 Zn    0.78229   0.83334   0.75000   0.00000  Uiso   1.00
Zn1316 Zn    0.88438   0.83333   0.75000   0.00000  Uiso   1.00
C1317  C     0.91807   0.95979   0.68205   0.00000  Uiso   1.00
O1318  O     0.91378   0.92748   0.66231   0.00000  Uiso   1.00
O1319  O     0.96356   0.97902   0.66959   0.00000  Uiso   1.00
H1320  H     0.99000   0.96281   0.64460   0.00000  Uiso   1.00
C1321  C     0.74857   0.70685   0.81787   0.00000  Uiso   1.00
O1322  O     0.75279   0.73921   0.83757   0.00000  Uiso   1.00
O1323  O     0.70312   0.68754   0.83033   0.00000  Uiso   1.00
H1324  H     0.67663   0.70376   0.85528   0.00000  Uiso   1.00
C1325  C     0.72742   0.76441   0.70828   0.00000  Uiso   1.00
O1326  O     0.76491   0.76914   0.67446   0.00000  Uiso   1.00
O1327  O     0.71144   0.72421   0.72447   0.00000  Uiso   1.00
H1328  H     0.73495   0.70167   0.70636   0.00000  Uiso   1.00
C1329  C     0.93919   0.90220   0.79183   0.00000  Uiso   1.00
O1330  O     0.90182   0.89745   0.82577   0.00000  Uiso   1.00
O1331  O     0.95504   0.94241   0.77557   0.00000  Uiso   1.00
H1332  H     0.93154   0.96493   0.79373   0.00000  Uiso   1.00
loop_
_geom_bond_atom_site_label_1
_geom_bond_atom_site_label_2
_geom_bond_distance
_geom_bond_site_symmetry_2
_ccdc_geom_bond_type
C1     O51     1.287   .     A
C1     C12     1.412   .     S
C1     O49     1.284   .     A
C2     O52     1.287   .     A
C2     C11     1.413   .     S
C2     O50     1.284   .     A
C3     C5      1.391   .     A
C3     C32     1.418   .     A
C3     H41     1.079   .     S
C4     H42     1.079   .     S
C4     C31     1.417   .     A
C4     C6      1.388   .     A
C5     H33     1.084   .     S
C5     C695    1.392   1_554 S
C6     H34     1.084   .     S
C6     C696    1.391   .     S
C7     C59     1.488   .     S
C7     C12     1.407   .     A
C7     C231    1.377   .     S
C8     C11     1.407   .     A
C8     C63     1.488   .     S
C8     C454    1.377   1_545 S
C9     C11     1.396   .     A
C9     H43     1.086   .     S
C9     C451    1.377   1_545 S
C10    C12     1.396   .     A
C10    H44     1.086   .     S
C10    C230    1.377   .     S
C13    N48     1.358   .     A
C13    H45     1.083   .     S
C13    C89     1.418   .     S
C14    N47     1.358   .     A
C14    H46     1.083   .     S
C14    C164    1.418   1_455 S
C15    N47     1.384   .     A
C15    C67     1.470   .     S
C15    C161    1.418   1_455 S
C16    N48     1.384   .     A
C16    C71     1.470   .     S
C16    C88     1.418   .     S
C17    O55     1.297   .     A
C17    C19     1.457   .     S
C17    O53     1.298   .     A
C18    O56     1.298   .     A
C18    O54     1.296   .     A
C18    C20     1.457   .     S
C19    C23     1.400   .     A
C19    C25     1.391   .     A
C20    C24     1.399   .     A
C20    C26     1.394   .     A
C21    C29     1.405   .     A
C21    H39     1.084   .     S
C21    C23     1.396   .     A
C22    H40     1.083   .     S
C22    C24     1.392   .     A
C22    C30     1.403   .     A
C23    H38     1.083   .     S
C24    H37     1.083   .     S
C25    H36     1.079   .     S
C25    C27     1.392   .     A
C26    C28     1.395   .     A
C26    H35     1.077   .     S
C27    C29     1.416   .     A
C27    C31     1.414   .     A
C28    C30     1.419   .     A
C28    C32     1.417   .     A
C29    C671    1.392   .     S
C30    C672    1.391   1_554 S
C31    C698    1.412   .     S
C32    C697    1.412   1_554 S
N47    Zn57    2.023   .     S
N48    Zn58    2.023   .     S
O49    Zn57    1.985   .     S
O50    Zn58    1.985   .     S
O51    Zn58    1.992   .     S
O52    Zn57    1.992   .     S
O53    Zn57    1.963   .     S
O54    Zn58    1.963   .     S
O55    Zn58    1.917   .     S
O56    Zn57    1.917   .     S
C59    O60     1.223   .     D
C59    O61     1.399   .     S
O61    H62     1.014   .     S
C63    O65     1.399   .     S
C63    O64     1.223   .     D
O65    H66     1.014   .     S
C67    O68     1.221   .     D
C67    O69     1.398   .     S
O69    H70     1.014   .     S
C71    O72     1.221   .     D
C71    O73     1.398   .     S
O73    H74     1.014   .     S
C75    O125    1.287   .     A
C75    C86     1.412   .     S
C75    O123    1.284   .     A
C76    O126    1.287   .     A
C76    C85     1.413   .     S
C76    O124    1.284   .     A
C77    C79     1.391   .     A
C77    C106    1.418   .     A
C77    H115    1.079   .     S
C78    H116    1.079   .     S
C78    C105    1.417   .     A
C78    C80     1.388   .     A
C79    H107    1.084   .     S
C79    C769    1.392   1_554 S
C80    H108    1.084   .     S
C80    C770    1.391   .     S
C81    C133    1.488   .     S
C81    C86     1.407   .     A
C81    C305    1.377   .     S
C82    C85     1.407   .     A
C82    C137    1.488   .     S
C82    C528    1.377   1_545 S
C83    C85     1.396   .     A
C83    H117    1.086   .     S
C83    C525    1.377   1_545 S
C84    C86     1.396   .     A
C84    H118    1.086   .     S
C84    C304    1.377   .     S
C87    N122    1.358   .     A
C87    H119    1.083   .     S
C87    C163    1.418   .     S
C88    N121    1.358   .     A
C88    H120    1.083   .     S
C89    N121    1.384   .     A
C89    C141    1.470   .     S
C90    N122    1.384   .     A
C90    C145    1.470   .     S
C90    C162    1.418   .     S
C91    O129    1.297   .     A
C91    C93     1.457   .     S
C91    O127    1.298   .     A
C92    O130    1.298   .     A
C92    O128    1.296   .     A
C92    C94     1.457   .     S
C93    C97     1.400   .     A
C93    C99     1.391   .     A
C94    C98     1.399   .     A
C94    C100    1.394   .     A
C95    C103    1.405   .     A
C95    H113    1.084   .     S
C95    C97     1.396   .     A
C96    H114    1.083   .     S
C96    C98     1.392   .     A
C96    C104    1.403   .     A
C97    H112    1.083   .     S
C98    H111    1.083   .     S
C99    H110    1.079   .     S
C99    C101    1.392   .     A
C100   C102    1.395   .     A
C100   H109    1.077   .     S
C101   C103    1.416   .     A
C101   C105    1.414   .     A
C102   C104    1.419   .     A
C102   C106    1.417   .     A
C103   C745    1.392   .     S
C104   C746    1.391   1_554 S
C105   C772    1.412   .     S
C106   C771    1.412   1_554 S
N121   Zn131   2.023   .     S
N122   Zn132   2.023   .     S
O123   Zn131   1.985   .     S
O124   Zn132   1.985   .     S
O125   Zn132   1.992   .     S
O126   Zn131   1.992   .     S
O127   Zn131   1.963   .     S
O128   Zn132   1.963   .     S
O129   Zn132   1.917   .     S
O130   Zn131   1.917   .     S
C133   O134    1.223   .     D
C133   O135    1.399   .     S
O135   H136    1.014   .     S
C137   O139    1.399   .     S
C137   O138    1.223   .     D
O139   H140    1.014   .     S
C141   O142    1.221   .     D
C141   O143    1.398   .     S
O143   H144    1.014   .     S
C145   O146    1.221   .     D
C145   O147    1.398   .     S
O147   H148    1.014   .     S
C149   O199    1.287   .     A
C149   C160    1.412   .     S
C149   O197    1.284   .     A
C150   O200    1.287   .     A
C150   C159    1.413   .     S
C150   O198    1.284   .     A
C151   C153    1.391   .     A
C151   C180    1.418   .     A
C151   H189    1.079   .     S
C152   H190    1.079   .     S
C152   C179    1.417   .     A
C152   C154    1.388   .     A
C153   H181    1.084   .     S
C153   C843    1.392   1_554 S
C154   H182    1.084   .     S
C154   C844    1.391   .     S
C155   C207    1.488   .     S
C155   C160    1.407   .     A
C155   C379    1.377   .     S
C156   C159    1.407   .     A
C156   C211    1.488   .     S
C156   C602    1.377   1_545 S
C157   C159    1.396   .     A
C157   H191    1.086   .     S
C157   C599    1.377   1_545 S
C158   C160    1.396   .     A
C158   H192    1.086   .     S
C158   C378    1.377   .     S
C161   N196    1.358   .     A
C161   H193    1.083   .     S
C161   C15     1.418   1_655 S
C162   N195    1.358   .     A
C162   H194    1.083   .     S
C163   N195    1.384   .     A
C163   C215    1.470   .     S
C164   N196    1.384   .     A
C164   C219    1.470   .     S
C164   C14     1.418   1_655 S
C165   O203    1.297   .     A
C165   C167    1.457   .     S
C165   O201    1.298   .     A
C166   O204    1.298   .     A
C166   O202    1.296   .     A
C166   C168    1.457   .     S
C167   C171    1.400   .     A
C167   C173    1.391   .     A
C168   C172    1.399   .     A
C168   C174    1.394   .     A
C169   C177    1.405   .     A
C169   H187    1.084   .     S
C169   C171    1.396   .     A
C170   H188    1.083   .     S
C170   C172    1.392   .     A
C170   C178    1.403   .     A
C171   H186    1.083   .     S
C172   H185    1.083   .     S
C173   H184    1.079   .     S
C173   C175    1.392   .     A
C174   C176    1.395   .     A
C174   H183    1.077   .     S
C175   C177    1.416   .     A
C175   C179    1.414   .     A
C176   C178    1.419   .     A
C176   C180    1.417   .     A
C177   C819    1.392   .     S
C178   C820    1.391   1_554 S
C179   C846    1.412   .     S
C180   C845    1.412   1_554 S
N195   Zn205   2.023   .     S
N196   Zn206   2.023   .     S
O197   Zn205   1.985   .     S
O198   Zn206   1.985   .     S
O199   Zn206   1.992   .     S
O200   Zn205   1.992   .     S
O201   Zn205   1.963   .     S
O202   Zn206   1.963   .     S
O203   Zn206   1.917   .     S
O204   Zn205   1.917   .     S
C207   O208    1.223   .     D
C207   O209    1.399   .     S
O209   H210    1.014   .     S
C211   O213    1.399   .     S
C211   O212    1.223   .     D
O213   H214    1.014   .     S
C215   O216    1.221   .     D
C215   O217    1.398   .     S
O217   H218    1.014   .     S
C219   O220    1.221   .     D
C219   O221    1.398   .     S
O221   H222    1.014   .     S
C223   O273    1.287   .     A
C223   C234    1.412   .     S
C223   O271    1.284   .     A
C224   O274    1.287   .     A
C224   C233    1.413   .     S
C224   O272    1.284   .     A
C225   C227    1.391   .     A
C225   C254    1.418   .     A
C225   H263    1.079   .     S
C226   H264    1.079   .     S
C226   C253    1.417   .     A
C226   C228    1.388   .     A
C227   H255    1.084   .     S
C227   C917    1.392   1_554 S
C228   H256    1.084   .     S
C228   C918    1.391   .     S
C229   C281    1.488   .     S
C229   C234    1.407   .     A
C229   C453    1.377   .     S
C230   C233    1.407   .     A
C230   C285    1.488   .     S
C231   C233    1.396   .     A
C231   H265    1.086   .     S
C232   C234    1.396   .     A
C232   H266    1.086   .     S
C232   C452    1.377   .     S
C235   N270    1.358   .     A
C235   H267    1.083   .     S
C235   C311    1.418   .     S
C236   N269    1.358   .     A
C236   H268    1.083   .     S
C236   C386    1.418   1_455 S
C237   N269    1.384   .     A
C237   C289    1.470   .     S
C237   C383    1.418   1_455 S
C238   N270    1.384   .     A
C238   C293    1.470   .     S
C238   C310    1.418   .     S
C239   O277    1.297   .     A
C239   C241    1.457   .     S
C239   O275    1.298   .     A
C240   O278    1.298   .     A
C240   O276    1.296   .     A
C240   C242    1.457   .     S
C241   C245    1.400   .     A
C241   C247    1.391   .     A
C242   C246    1.399   .     A
C242   C248    1.394   .     A
C243   C251    1.405   .     A
C243   H261    1.084   .     S
C243   C245    1.396   .     A
C244   H262    1.083   .     S
C244   C246    1.392   .     A
C244   C252    1.403   .     A
C245   H260    1.083   .     S
C246   H259    1.083   .     S
C247   H258    1.079   .     S
C247   C249    1.392   .     A
C248   C250    1.395   .     A
C248   H257    1.077   .     S
C249   C251    1.416   .     A
C249   C253    1.414   .     A
C250   C252    1.419   .     A
C250   C254    1.417   .     A
C251   C893    1.392   .     S
C252   C894    1.391   1_554 S
C253   C920    1.412   .     S
C254   C919    1.412   1_554 S
N269   Zn279   2.023   .     S
N270   Zn280   2.023   .     S
O271   Zn279   1.985   .     S
O272   Zn280   1.985   .     S
O273   Zn280   1.992   .     S
O274   Zn279   1.992   .     S
O275   Zn279   1.963   .     S
O276   Zn280   1.963   .     S
O277   Zn280   1.917   .     S
O278   Zn279   1.917   .     S
C281   O282    1.223   .     D
C281   O283    1.399   .     S
O283   H284    1.014   .     S
C285   O287    1.399   .     S
C285   O286    1.223   .     D
O287   H288    1.014   .     S
C289   O290    1.221   .     D
C289   O291    1.398   .     S
O291   H292    1.014   .     S
C293   O294    1.221   .     D
C293   O295    1.398   .     S
O295   H296    1.014   .     S
C297   O347    1.287   .     A
C297   C308    1.412   .     S
C297   O345    1.284   .     A
C298   O348    1.287   .     A
C298   C307    1.413   .     S
C298   O346    1.284   .     A
C299   C301    1.391   .     A
C299   C328    1.418   .     A
C299   H337    1.079   .     S
C300   H338    1.079   .     S
C300   C327    1.417   .     A
C300   C302    1.388   .     A
C301   H329    1.084   .     S
C301   C991    1.392   1_554 S
C302   H330    1.084   .     S
C302   C992    1.391   .     S
C303   C355    1.488   .     S
C303   C308    1.407   .     A
C303   C527    1.377   .     S
C304   C307    1.407   .     A
C304   C359    1.488   .     S
C305   C307    1.396   .     A
C305   H339    1.086   .     S
C306   C308    1.396   .     A
C306   H340    1.086   .     S
C306   C526    1.377   .     S
C309   N344    1.358   .     A
C309   H341    1.083   .     S
C309   C385    1.418   .     S
C310   N343    1.358   .     A
C310   H342    1.083   .     S
C311   N343    1.384   .     A
C311   C363    1.470   .     S
C312   N344    1.384   .     A
C312   C367    1.470   .     S
C312   C384    1.418   .     S
C313   O351    1.297   .     A
C313   C315    1.457   .     S
C313   O349    1.298   .     A
C314   O352    1.298   .     A
C314   O350    1.296   .     A
C314   C316    1.457   .     S
C315   C319    1.400   .     A
C315   C321    1.391   .     A
C316   C320    1.399   .     A
C316   C322    1.394   .     A
C317   C325    1.405   .     A
C317   H335    1.084   .     S
C317   C319    1.396   .     A
C318   H336    1.083   .     S
C318   C320    1.392   .     A
C318   C326    1.403   .     A
C319   H334    1.083   .     S
C320   H333    1.083   .     S
C321   H332    1.079   .     S
C321   C323    1.392   .     A
C322   C324    1.395   .     A
C322   H331    1.077   .     S
C323   C325    1.416   .     A
C323   C327    1.414   .     A
C324   C326    1.419   .     A
C324   C328    1.417   .     A
C325   C967    1.392   .     S
C326   C968    1.391   1_554 S
C327   C994    1.412   .     S
C328   C993    1.412   1_554 S
N343   Zn353   2.023   .     S
N344   Zn354   2.023   .     S
O345   Zn353   1.985   .     S
O346   Zn354   1.985   .     S
O347   Zn354   1.992   .     S
O348   Zn353   1.992   .     S
O349   Zn353   1.963   .     S
O350   Zn354   1.963   .     S
O351   Zn354   1.917   .     S
O352   Zn353   1.917   .     S
C355   O356    1.223   .     D
C355   O357    1.399   .     S
O357   H358    1.014   .     S
C359   O361    1.399   .     S
C359   O360    1.223   .     D
O361   H362    1.014   .     S
C363   O364    1.221   .     D
C363   O365    1.398   .     S
O365   H366    1.014   .     S
C367   O368    1.221   .     D
C367   O369    1.398   .     S
O369   H370    1.014   .     S
C371   O421    1.287   .     A
C371   C382    1.412   .     S
C371   O419    1.284   .     A
C372   O422    1.287   .     A
C372   C381    1.413   .     S
C372   O420    1.284   .     A
C373   C375    1.391   .     A
C373   C402    1.418   .     A
C373   H411    1.079   .     S
C374   H412    1.079   .     S
C374   C401    1.417   .     A
C374   C376    1.388   .     A
C375   H403    1.084   .     S
C375   C1065   1.392   1_554 S
C376   H404    1.084   .     S
C376   C1066   1.391   .     S
C377   C429    1.488   .     S
C377   C382    1.407   .     A
C377   C601    1.377   .     S
C378   C381    1.407   .     A
C378   C433    1.488   .     S
C379   C381    1.396   .     A
C379   H413    1.086   .     S
C380   C382    1.396   .     A
C380   H414    1.086   .     S
C380   C600    1.377   .     S
C383   N418    1.358   .     A
C383   H415    1.083   .     S
C383   C237    1.418   1_655 S
C384   N417    1.358   .     A
C384   H416    1.083   .     S
C385   N417    1.384   .     A
C385   C437    1.470   .     S
C386   N418    1.384   .     A
C386   C441    1.470   .     S
C386   C236    1.418   1_655 S
C387   O425    1.297   .     A
C387   C389    1.457   .     S
C387   O423    1.298   .     A
C388   O426    1.298   .     A
C388   O424    1.296   .     A
C388   C390    1.457   .     S
C389   C393    1.400   .     A
C389   C395    1.391   .     A
C390   C394    1.399   .     A
C390   C396    1.394   .     A
C391   C399    1.405   .     A
C391   H409    1.084   .     S
C391   C393    1.396   .     A
C392   H410    1.083   .     S
C392   C394    1.392   .     A
C392   C400    1.403   .     A
C393   H408    1.083   .     S
C394   H407    1.083   .     S
C395   H406    1.079   .     S
C395   C397    1.392   .     A
C396   C398    1.395   .     A
C396   H405    1.077   .     S
C397   C399    1.416   .     A
C397   C401    1.414   .     A
C398   C400    1.419   .     A
C398   C402    1.417   .     A
C399   C1041   1.392   .     S
C400   C1042   1.391   1_554 S
C401   C1068   1.412   .     S
C402   C1067   1.412   1_554 S
N417   Zn427   2.023   .     S
N418   Zn428   2.023   .     S
O419   Zn427   1.985   .     S
O420   Zn428   1.985   .     S
O421   Zn428   1.992   .     S
O422   Zn427   1.992   .     S
O423   Zn427   1.963   .     S
O424   Zn428   1.963   .     S
O425   Zn428   1.917   .     S
O426   Zn427   1.917   .     S
C429   O430    1.223   .     D
C429   O431    1.399   .     S
O431   H432    1.014   .     S
C433   O435    1.399   .     S
C433   O434    1.223   .     D
O435   H436    1.014   .     S
C437   O438    1.221   .     D
C437   O439    1.398   .     S
O439   H440    1.014   .     S
C441   O442    1.221   .     D
C441   O443    1.398   .     S
O443   H444    1.014   .     S
C445   O495    1.287   .     A
C445   C456    1.412   .     S
C445   O493    1.284   .     A
C446   O496    1.287   .     A
C446   C455    1.413   .     S
C446   O494    1.284   .     A
C447   C449    1.391   .     A
C447   C476    1.418   .     A
C447   H485    1.079   .     S
C448   H486    1.079   .     S
C448   C475    1.417   .     A
C448   C450    1.388   .     A
C449   H477    1.084   .     S
C449   C1139   1.392   1_554 S
C450   H478    1.084   .     S
C450   C1140   1.391   .     S
C451   C503    1.488   .     S
C451   C456    1.407   .     A
C451   C9      1.377   1_565 S
C452   C455    1.407   .     A
C452   C507    1.488   .     S
C453   C455    1.396   .     A
C453   H487    1.086   .     S
C454   C456    1.396   .     A
C454   H488    1.086   .     S
C454   C8      1.377   1_565 S
C457   N492    1.358   .     A
C457   H489    1.083   .     S
C457   C533    1.418   .     S
C458   N491    1.358   .     A
C458   H490    1.083   .     S
C458   C608    1.418   1_455 S
C459   N491    1.384   .     A
C459   C511    1.470   .     S
C459   C605    1.418   1_455 S
C460   N492    1.384   .     A
C460   C515    1.470   .     S
C460   C532    1.418   .     S
C461   O499    1.297   .     A
C461   C463    1.457   .     S
C461   O497    1.298   .     A
C462   O500    1.298   .     A
C462   O498    1.296   .     A
C462   C464    1.457   .     S
C463   C467    1.400   .     A
C463   C469    1.391   .     A
C464   C468    1.399   .     A
C464   C470    1.394   .     A
C465   C473    1.405   .     A
C465   H483    1.084   .     S
C465   C467    1.396   .     A
C466   H484    1.083   .     S
C466   C468    1.392   .     A
C466   C474    1.403   .     A
C467   H482    1.083   .     S
C468   H481    1.083   .     S
C469   H480    1.079   .     S
C469   C471    1.392   .     A
C470   C472    1.395   .     A
C470   H479    1.077   .     S
C471   C473    1.416   .     A
C471   C475    1.414   .     A
C472   C474    1.419   .     A
C472   C476    1.417   .     A
C473   C1115   1.392   .     S
C474   C1116   1.391   1_554 S
C475   C1142   1.412   .     S
C476   C1141   1.412   1_554 S
N491   Zn501   2.023   .     S
N492   Zn502   2.023   .     S
O493   Zn501   1.985   .     S
O494   Zn502   1.985   .     S
O495   Zn502   1.992   .     S
O496   Zn501   1.992   .     S
O497   Zn501   1.963   .     S
O498   Zn502   1.963   .     S
O499   Zn502   1.917   .     S
O500   Zn501   1.917   .     S
C503   O504    1.223   .     D
C503   O505    1.399   .     S
O505   H506    1.014   .     S
C507   O509    1.399   .     S
C507   O508    1.223   .     D
O509   H510    1.014   .     S
C511   O512    1.221   .     D
C511   O513    1.398   .     S
O513   H514    1.014   .     S
C515   O516    1.221   .     D
C515   O517    1.398   .     S
O517   H518    1.014   .     S
C519   O569    1.287   .     A
C519   C530    1.412   .     S
C519   O567    1.284   .     A
C520   O570    1.287   .     A
C520   C529    1.413   .     S
C520   O568    1.284   .     A
C521   C523    1.391   .     A
C521   C550    1.418   .     A
C521   H559    1.079   .     S
C522   H560    1.079   .     S
C522   C549    1.417   .     A
C522   C524    1.388   .     A
C523   H551    1.084   .     S
C523   C1213   1.392   1_554 S
C524   H552    1.084   .     S
C524   C1214   1.391   .     S
C525   C577    1.488   .     S
C525   C530    1.407   .     A
C525   C83     1.377   1_565 S
C526   C529    1.407   .     A
C526   C581    1.488   .     S
C527   C529    1.396   .     A
C527   H561    1.086   .     S
C528   C530    1.396   .     A
C528   H562    1.086   .     S
C528   C82     1.377   1_565 S
C531   N566    1.358   .     A
C531   H563    1.083   .     S
C531   C607    1.418   .     S
C532   N565    1.358   .     A
C532   H564    1.083   .     S
C533   N565    1.384   .     A
C533   C585    1.470   .     S
C534   N566    1.384   .     A
C534   C589    1.470   .     S
C534   C606    1.418   .     S
C535   O573    1.297   .     A
C535   C537    1.457   .     S
C535   O571    1.298   .     A
C536   O574    1.298   .     A
C536   O572    1.296   .     A
C536   C538    1.457   .     S
C537   C541    1.400   .     A
C537   C543    1.391   .     A
C538   C542    1.399   .     A
C538   C544    1.394   .     A
C539   C547    1.405   .     A
C539   H557    1.084   .     S
C539   C541    1.396   .     A
C540   H558    1.083   .     S
C540   C542    1.392   .     A
C540   C548    1.403   .     A
C541   H556    1.083   .     S
C542   H555    1.083   .     S
C543   H554    1.079   .     S
C543   C545    1.392   .     A
C544   C546    1.395   .     A
C544   H553    1.077   .     S
C545   C547    1.416   .     A
C545   C549    1.414   .     A
C546   C548    1.419   .     A
C546   C550    1.417   .     A
C547   C1189   1.392   .     S
C548   C1190   1.391   1_554 S
C549   C1216   1.412   .     S
C550   C1215   1.412   1_554 S
N565   Zn575   2.023   .     S
N566   Zn576   2.023   .     S
O567   Zn575   1.985   .     S
O568   Zn576   1.985   .     S
O569   Zn576   1.992   .     S
O570   Zn575   1.992   .     S
O571   Zn575   1.963   .     S
O572   Zn576   1.963   .     S
O573   Zn576   1.917   .     S
O574   Zn575   1.917   .     S
C577   O578    1.223   .     D
C577   O579    1.399   .     S
O579   H580    1.014   .     S
C581   O583    1.399   .     S
C581   O582    1.223   .     D
O583   H584    1.014   .     S
C585   O586    1.221   .     D
C585   O587    1.398   .     S
O587   H588    1.014   .     S
C589   O590    1.221   .     D
C589   O591    1.398   .     S
O591   H592    1.014   .     S
C593   O643    1.287   .     A
C593   C604    1.412   .     S
C593   O641    1.284   .     A
C594   O644    1.287   .     A
C594   C603    1.413   .     S
C594   O642    1.284   .     A
C595   C597    1.391   .     A
C595   C624    1.418   .     A
C595   H633    1.079   .     S
C596   H634    1.079   .     S
C596   C623    1.417   .     A
C596   C598    1.388   .     A
C597   H625    1.084   .     S
C597   C1287   1.392   1_554 S
C598   H626    1.084   .     S
C598   C1288   1.391   .     S
C599   C651    1.488   .     S
C599   C604    1.407   .     A
C599   C157    1.377   1_565 S
C600   C603    1.407   .     A
C600   C655    1.488   .     S
C601   C603    1.396   .     A
C601   H635    1.086   .     S
C602   C604    1.396   .     A
C602   H636    1.086   .     S
C602   C156    1.377   1_565 S
C605   N640    1.358   .     A
C605   H637    1.083   .     S
C605   C459    1.418   1_655 S
C606   N639    1.358   .     A
C606   H638    1.083   .     S
C607   N639    1.384   .     A
C607   C659    1.470   .     S
C608   N640    1.384   .     A
C608   C663    1.470   .     S
C608   C458    1.418   1_655 S
C609   O647    1.297   .     A
C609   C611    1.457   .     S
C609   O645    1.298   .     A
C610   O648    1.298   .     A
C610   O646    1.296   .     A
C610   C612    1.457   .     S
C611   C615    1.400   .     A
C611   C617    1.391   .     A
C612   C616    1.399   .     A
C612   C618    1.394   .     A
C613   C621    1.405   .     A
C613   H631    1.084   .     S
C613   C615    1.396   .     A
C614   H632    1.083   .     S
C614   C616    1.392   .     A
C614   C622    1.403   .     A
C615   H630    1.083   .     S
C616   H629    1.083   .     S
C617   H628    1.079   .     S
C617   C619    1.392   .     A
C618   C620    1.395   .     A
C618   H627    1.077   .     S
C619   C621    1.416   .     A
C619   C623    1.414   .     A
C620   C622    1.419   .     A
C620   C624    1.417   .     A
C621   C1263   1.392   .     S
C622   C1264   1.391   1_554 S
C623   C1290   1.412   .     S
C624   C1289   1.412   1_554 S
N639   Zn649   2.023   .     S
N640   Zn650   2.023   .     S
O641   Zn649   1.985   .     S
O642   Zn650   1.985   .     S
O643   Zn650   1.992   .     S
O644   Zn649   1.992   .     S
O645   Zn649   1.963   .     S
O646   Zn650   1.963   .     S
O647   Zn650   1.917   .     S
O648   Zn649   1.917   .     S
C651   O652    1.223   .     D
C651   O653    1.399   .     S
O653   H654    1.014   .     S
C655   O657    1.399   .     S
C655   O656    1.223   .     D
O657   H658    1.014   .     S
C659   O660    1.221   .     D
C659   O661    1.398   .     S
O661   H662    1.014   .     S
C663   O664    1.221   .     D
C663   O665    1.398   .     S
O665   H666    1.014   .     S
C667   O717    1.287   .     A
C667   C678    1.412   .     S
C667   O715    1.284   .     A
C668   O718    1.287   .     A
C668   C677    1.413   .     S
C668   O716    1.284   .     A
C669   C671    1.391   .     A
C669   C698    1.418   .     A
C669   H707    1.079   .     S
C670   H708    1.079   .     S
C670   C697    1.417   .     A
C670   C672    1.388   .     A
C671   H699    1.084   .     S
C672   H700    1.084   .     S
C672   C30     1.391   1_556 S
C673   C725    1.488   .     S
C673   C678    1.407   .     A
C673   C897    1.377   .     S
C674   C677    1.407   .     A
C674   C729    1.488   .     S
C674   C1120   1.377   1_545 S
C675   C677    1.396   .     A
C675   H709    1.086   .     S
C675   C1117   1.377   1_545 S
C676   C678    1.396   .     A
C676   H710    1.086   .     S
C676   C896    1.377   .     S
C679   N714    1.358   .     A
C679   H711    1.083   .     S
C679   C755    1.418   .     S
C680   N713    1.358   .     A
C680   H712    1.083   .     S
C680   C830    1.418   1_455 S
C681   N713    1.384   .     A
C681   C733    1.470   .     S
C681   C827    1.418   1_455 S
C682   N714    1.384   .     A
C682   C737    1.470   .     S
C682   C754    1.418   .     S
C683   O721    1.297   .     A
C683   C685    1.457   .     S
C683   O719    1.298   .     A
C684   O722    1.298   .     A
C684   O720    1.296   .     A
C684   C686    1.457   .     S
C685   C689    1.400   .     A
C685   C691    1.391   .     A
C686   C690    1.399   .     A
C686   C692    1.394   .     A
C687   C695    1.405   .     A
C687   H705    1.084   .     S
C687   C689    1.396   .     A
C688   H706    1.083   .     S
C688   C690    1.392   .     A
C688   C696    1.403   .     A
C689   H704    1.083   .     S
C690   H703    1.083   .     S
C691   H702    1.079   .     S
C691   C693    1.392   .     A
C692   C694    1.395   .     A
C692   H701    1.077   .     S
C693   C695    1.416   .     A
C693   C697    1.414   .     A
C694   C696    1.419   .     A
C694   C698    1.417   .     A
C695   C5      1.392   1_556 S
C697   C32     1.412   1_556 S
N713   Zn723   2.023   .     S
N714   Zn724   2.023   .     S
O715   Zn723   1.985   .     S
O716   Zn724   1.985   .     S
O717   Zn724   1.992   .     S
O718   Zn723   1.992   .     S
O719   Zn723   1.963   .     S
O720   Zn724   1.963   .     S
O721   Zn724   1.917   .     S
O722   Zn723   1.917   .     S
C725   O726    1.223   .     D
C725   O727    1.399   .     S
O727   H728    1.014   .     S
C729   O731    1.399   .     S
C729   O730    1.223   .     D
O731   H732    1.014   .     S
C733   O734    1.221   .     D
C733   O735    1.398   .     S
O735   H736    1.014   .     S
C737   O738    1.221   .     D
C737   O739    1.398   .     S
O739   H740    1.014   .     S
C741   O791    1.287   .     A
C741   C752    1.412   .     S
C741   O789    1.284   .     A
C742   O792    1.287   .     A
C742   C751    1.413   .     S
C742   O790    1.284   .     A
C743   C745    1.391   .     A
C743   C772    1.418   .     A
C743   H781    1.079   .     S
C744   H782    1.079   .     S
C744   C771    1.417   .     A
C744   C746    1.388   .     A
C745   H773    1.084   .     S
C746   H774    1.084   .     S
C746   C104    1.391   1_556 S
C747   C799    1.488   .     S
C747   C752    1.407   .     A
C747   C971    1.377   .     S
C748   C751    1.407   .     A
C748   C803    1.488   .     S
C748   C1194   1.377   1_545 S
C749   C751    1.396   .     A
C749   H783    1.086   .     S
C749   C1191   1.377   1_545 S
C750   C752    1.396   .     A
C750   H784    1.086   .     S
C750   C970    1.377   .     S
C753   N788    1.358   .     A
C753   H785    1.083   .     S
C753   C829    1.418   .     S
C754   N787    1.358   .     A
C754   H786    1.083   .     S
C755   N787    1.384   .     A
C755   C807    1.470   .     S
C756   N788    1.384   .     A
C756   C811    1.470   .     S
C756   C828    1.418   .     S
C757   O795    1.297   .     A
C757   C759    1.457   .     S
C757   O793    1.298   .     A
C758   O796    1.298   .     A
C758   O794    1.296   .     A
C758   C760    1.457   .     S
C759   C763    1.400   .     A
C759   C765    1.391   .     A
C760   C764    1.399   .     A
C760   C766    1.394   .     A
C761   C769    1.405   .     A
C761   H779    1.084   .     S
C761   C763    1.396   .     A
C762   H780    1.083   .     S
C762   C764    1.392   .     A
C762   C770    1.403   .     A
C763   H778    1.083   .     S
C764   H777    1.083   .     S
C765   H776    1.079   .     S
C765   C767    1.392   .     A
C766   C768    1.395   .     A
C766   H775    1.077   .     S
C767   C769    1.416   .     A
C767   C771    1.414   .     A
C768   C770    1.419   .     A
C768   C772    1.417   .     A
C769   C79     1.392   1_556 S
C771   C106    1.412   1_556 S
N787   Zn797   2.023   .     S
N788   Zn798   2.023   .     S
O789   Zn797   1.985   .     S
O790   Zn798   1.985   .     S
O791   Zn798   1.992   .     S
O792   Zn797   1.992   .     S
O793   Zn797   1.963   .     S
O794   Zn798   1.963   .     S
O795   Zn798   1.917   .     S
O796   Zn797   1.917   .     S
C799   O800    1.223   .     D
C799   O801    1.399   .     S
O801   H802    1.014   .     S
C803   O805    1.399   .     S
C803   O804    1.223   .     D
O805   H806    1.014   .     S
C807   O808    1.221   .     D
C807   O809    1.398   .     S
O809   H810    1.014   .     S
C811   O812    1.221   .     D
C811   O813    1.398   .     S
O813   H814    1.014   .     S
C815   O865    1.287   .     A
C815   C826    1.412   .     S
C815   O863    1.284   .     A
C816   O866    1.287   .     A
C816   C825    1.413   .     S
C816   O864    1.284   .     A
C817   C819    1.391   .     A
C817   C846    1.418   .     A
C817   H855    1.079   .     S
C818   H856    1.079   .     S
C818   C845    1.417   .     A
C818   C820    1.388   .     A
C819   H847    1.084   .     S
C820   H848    1.084   .     S
C820   C178    1.391   1_556 S
C821   C873    1.488   .     S
C821   C826    1.407   .     A
C821   C1045   1.377   .     S
C822   C825    1.407   .     A
C822   C877    1.488   .     S
C822   C1268   1.377   1_545 S
C823   C825    1.396   .     A
C823   H857    1.086   .     S
C823   C1265   1.377   1_545 S
C824   C826    1.396   .     A
C824   H858    1.086   .     S
C824   C1044   1.377   .     S
C827   N862    1.358   .     A
C827   H859    1.083   .     S
C827   C681    1.418   1_655 S
C828   N861    1.358   .     A
C828   H860    1.083   .     S
C829   N861    1.384   .     A
C829   C881    1.470   .     S
C830   N862    1.384   .     A
C830   C885    1.470   .     S
C830   C680    1.418   1_655 S
C831   O869    1.297   .     A
C831   C833    1.457   .     S
C831   O867    1.298   .     A
C832   O870    1.298   .     A
C832   O868    1.296   .     A
C832   C834    1.457   .     S
C833   C837    1.400   .     A
C833   C839    1.391   .     A
C834   C838    1.399   .     A
C834   C840    1.394   .     A
C835   C843    1.405   .     A
C835   H853    1.084   .     S
C835   C837    1.396   .     A
C836   H854    1.083   .     S
C836   C838    1.392   .     A
C836   C844    1.403   .     A
C837   H852    1.083   .     S
C838   H851    1.083   .     S
C839   H850    1.079   .     S
C839   C841    1.392   .     A
C840   C842    1.395   .     A
C840   H849    1.077   .     S
C841   C843    1.416   .     A
C841   C845    1.414   .     A
C842   C844    1.419   .     A
C842   C846    1.417   .     A
C843   C153    1.392   1_556 S
C845   C180    1.412   1_556 S
N861   Zn871   2.023   .     S
N862   Zn872   2.023   .     S
O863   Zn871   1.985   .     S
O864   Zn872   1.985   .     S
O865   Zn872   1.992   .     S
O866   Zn871   1.992   .     S
O867   Zn871   1.963   .     S
O868   Zn872   1.963   .     S
O869   Zn872   1.917   .     S
O870   Zn871   1.917   .     S
C873   O874    1.223   .     D
C873   O875    1.399   .     S
O875   H876    1.014   .     S
C877   O879    1.399   .     S
C877   O878    1.223   .     D
O879   H880    1.014   .     S
C881   O882    1.221   .     D
C881   O883    1.398   .     S
O883   H884    1.014   .     S
C885   O886    1.221   .     D
C885   O887    1.398   .     S
O887   H888    1.014   .     S
C889   O939    1.287   .     A
C889   C900    1.412   .     S
C889   O937    1.284   .     A
C890   O940    1.287   .     A
C890   C899    1.413   .     S
C890   O938    1.284   .     A
C891   C893    1.391   .     A
C891   C920    1.418   .     A
C891   H929    1.079   .     S
C892   H930    1.079   .     S
C892   C919    1.417   .     A
C892   C894    1.388   .     A
C893   H921    1.084   .     S
C894   H922    1.084   .     S
C894   C252    1.391   1_556 S
C895   C947    1.488   .     S
C895   C900    1.407   .     A
C895   C1119   1.377   .     S
C896   C899    1.407   .     A
C896   C951    1.488   .     S
C897   C899    1.396   .     A
C897   H931    1.086   .     S
C898   C900    1.396   .     A
C898   H932    1.086   .     S
C898   C1118   1.377   .     S
C901   N936    1.358   .     A
C901   H933    1.083   .     S
C901   C977    1.418   .     S
C902   N935    1.358   .     A
C902   H934    1.083   .     S
C902   C1052   1.418   1_455 S
C903   N935    1.384   .     A
C903   C955    1.470   .     S
C903   C1049   1.418   1_455 S
C904   N936    1.384   .     A
C904   C959    1.470   .     S
C904   C976    1.418   .     S
C905   O943    1.297   .     A
C905   C907    1.457   .     S
C905   O941    1.298   .     A
C906   O944    1.298   .     A
C906   O942    1.296   .     A
C906   C908    1.457   .     S
C907   C911    1.400   .     A
C907   C913    1.391   .     A
C908   C912    1.399   .     A
C908   C914    1.394   .     A
C909   C917    1.405   .     A
C909   H927    1.084   .     S
C909   C911    1.396   .     A
C910   H928    1.083   .     S
C910   C912    1.392   .     A
C910   C918    1.403   .     A
C911   H926    1.083   .     S
C912   H925    1.083   .     S
C913   H924    1.079   .     S
C913   C915    1.392   .     A
C914   C916    1.395   .     A
C914   H923    1.077   .     S
C915   C917    1.416   .     A
C915   C919    1.414   .     A
C916   C918    1.419   .     A
C916   C920    1.417   .     A
C917   C227    1.392   1_556 S
C919   C254    1.412   1_556 S
N935   Zn945   2.023   .     S
N936   Zn946   2.023   .     S
O937   Zn945   1.985   .     S
O938   Zn946   1.985   .     S
O939   Zn946   1.992   .     S
O940   Zn945   1.992   .     S
O941   Zn945   1.963   .     S
O942   Zn946   1.963   .     S
O943   Zn946   1.917   .     S
O944   Zn945   1.917   .     S
C947   O948    1.223   .     D
C947   O949    1.399   .     S
O949   H950    1.014   .     S
C951   O953    1.399   .     S
C951   O952    1.223   .     D
O953   H954    1.014   .     S
C955   O956    1.221   .     D
C955   O957    1.398   .     S
O957   H958    1.014   .     S
C959   O960    1.221   .     D
C959   O961    1.398   .     S
O961   H962    1.014   .     S
C963   O1013   1.287   .     A
C963   C974    1.412   .     S
C963   O1011   1.284   .     A
C964   O1014   1.287   .     A
C964   C973    1.413   .     S
C964   O1012   1.284   .     A
C965   C967    1.391   .     A
C965   C994    1.418   .     A
C965   H1003   1.079   .     S
C966   H1004   1.079   .     S
C966   C993    1.417   .     A
C966   C968    1.388   .     A
C967   H995    1.084   .     S
C968   H996    1.084   .     S
C968   C326    1.391   1_556 S
C969   C1021   1.488   .     S
C969   C974    1.407   .     A
C969   C1193   1.377   .     S
C970   C973    1.407   .     A
C970   C1025   1.488   .     S
C971   C973    1.396   .     A
C971   H1005   1.086   .     S
C972   C974    1.396   .     A
C972   H1006   1.086   .     S
C972   C1192   1.377   .     S
C975   N1010   1.358   .     A
C975   H1007   1.083   .     S
C975   C1051   1.418   .     S
C976   N1009   1.358   .     A
C976   H1008   1.083   .     S
C977   N1009   1.384   .     A
C977   C1029   1.470   .     S
C978   N1010   1.384   .     A
C978   C1033   1.470   .     S
C978   C1050   1.418   .     S
C979   O1017   1.297   .     A
C979   C981    1.457   .     S
C979   O1015   1.298   .     A
C980   O1018   1.298   .     A
C980   O1016   1.296   .     A
C980   C982    1.457   .     S
C981   C985    1.400   .     A
C981   C987    1.391   .     A
C982   C986    1.399   .     A
C982   C988    1.394   .     A
C983   C991    1.405   .     A
C983   H1001   1.084   .     S
C983   C985    1.396   .     A
C984   H1002   1.083   .     S
C984   C986    1.392   .     A
C984   C992    1.403   .     A
C985   H1000   1.083   .     S
C986   H999    1.083   .     S
C987   H998    1.079   .     S
C987   C989    1.392   .     A
C988   C990    1.395   .     A
C988   H997    1.077   .     S
C989   C991    1.416   .     A
C989   C993    1.414   .     A
C990   C992    1.419   .     A
C990   C994    1.417   .     A
C991   C301    1.392   1_556 S
C993   C328    1.412   1_556 S
N1009  Zn1019  2.023   .     S
N1010  Zn1020  2.023   .     S
O1011  Zn1019  1.985   .     S
O1012  Zn1020  1.985   .     S
O1013  Zn1020  1.992   .     S
O1014  Zn1019  1.992   .     S
O1015  Zn1019  1.963   .     S
O1016  Zn1020  1.963   .     S
O1017  Zn1020  1.917   .     S
O1018  Zn1019  1.917   .     S
C1021  O1022   1.223   .     D
C1021  O1023   1.399   .     S
O1023  H1024   1.014   .     S
C1025  O1027   1.399   .     S
C1025  O1026   1.223   .     D
O1027  H1028   1.014   .     S
C1029  O1030   1.221   .     D
C1029  O1031   1.398   .     S
O1031  H1032   1.014   .     S
C1033  O1034   1.221   .     D
C1033  O1035   1.398   .     S
O1035  H1036   1.014   .     S
C1037  O1087   1.287   .     A
C1037  C1048   1.412   .     S
C1037  O1085   1.284   .     A
C1038  O1088   1.287   .     A
C1038  C1047   1.413   .     S
C1038  O1086   1.284   .     A
C1039  C1041   1.391   .     A
C1039  C1068   1.418   .     A
C1039  H1077   1.079   .     S
C1040  H1078   1.079   .     S
C1040  C1067   1.417   .     A
C1040  C1042   1.388   .     A
C1041  H1069   1.084   .     S
C1042  H1070   1.084   .     S
C1042  C400    1.391   1_556 S
C1043  C1095   1.488   .     S
C1043  C1048   1.407   .     A
C1043  C1267   1.377   .     S
C1044  C1047   1.407   .     A
C1044  C1099   1.488   .     S
C1045  C1047   1.396   .     A
C1045  H1079   1.086   .     S
C1046  C1048   1.396   .     A
C1046  H1080   1.086   .     S
C1046  C1266   1.377   .     S
C1049  N1084   1.358   .     A
C1049  H1081   1.083   .     S
C1049  C903    1.418   1_655 S
C1050  N1083   1.358   .     A
C1050  H1082   1.083   .     S
C1051  N1083   1.384   .     A
C1051  C1103   1.470   .     S
C1052  N1084   1.384   .     A
C1052  C1107   1.470   .     S
C1052  C902    1.418   1_655 S
C1053  O1091   1.297   .     A
C1053  C1055   1.457   .     S
C1053  O1089   1.298   .     A
C1054  O1092   1.298   .     A
C1054  O1090   1.296   .     A
C1054  C1056   1.457   .     S
C1055  C1059   1.400   .     A
C1055  C1061   1.391   .     A
C1056  C1060   1.399   .     A
C1056  C1062   1.394   .     A
C1057  C1065   1.405   .     A
C1057  H1075   1.084   .     S
C1057  C1059   1.396   .     A
C1058  H1076   1.083   .     S
C1058  C1060   1.392   .     A
C1058  C1066   1.403   .     A
C1059  H1074   1.083   .     S
C1060  H1073   1.083   .     S
C1061  H1072   1.079   .     S
C1061  C1063   1.392   .     A
C1062  C1064   1.395   .     A
C1062  H1071   1.077   .     S
C1063  C1065   1.416   .     A
C1063  C1067   1.414   .     A
C1064  C1066   1.419   .     A
C1064  C1068   1.417   .     A
C1065  C375    1.392   1_556 S
C1067  C402    1.412   1_556 S
N1083  Zn1093  2.023   .     S
N1084  Zn1094  2.023   .     S
O1085  Zn1093  1.985   .     S
O1086  Zn1094  1.985   .     S
O1087  Zn1094  1.992   .     S
O1088  Zn1093  1.992   .     S
O1089  Zn1093  1.963   .     S
O1090  Zn1094  1.963   .     S
O1091  Zn1094  1.917   .     S
O1092  Zn1093  1.917   .     S
C1095  O1096   1.223   .     D
C1095  O1097   1.399   .     S
O1097  H1098   1.014   .     S
C1099  O1101   1.399   .     S
C1099  O1100   1.223   .     D
O1101  H1102   1.014   .     S
C1103  O1104   1.221   .     D
C1103  O1105   1.398   .     S
O1105  H1106   1.014   .     S
C1107  O1108   1.221   .     D
C1107  O1109   1.398   .     S
O1109  H1110   1.014   .     S
C1111  O1161   1.287   .     A
C1111  C1122   1.412   .     S
C1111  O1159   1.284   .     A
C1112  O1162   1.287   .     A
C1112  C1121   1.413   .     S
C1112  O1160   1.284   .     A
C1113  C1115   1.391   .     A
C1113  C1142   1.418   .     A
C1113  H1151   1.079   .     S
C1114  H1152   1.079   .     S
C1114  C1141   1.417   .     A
C1114  C1116   1.388   .     A
C1115  H1143   1.084   .     S
C1116  H1144   1.084   .     S
C1116  C474    1.391   1_556 S
C1117  C1169   1.488   .     S
C1117  C1122   1.407   .     A
C1117  C675    1.377   1_565 S
C1118  C1121   1.407   .     A
C1118  C1173   1.488   .     S
C1119  C1121   1.396   .     A
C1119  H1153   1.086   .     S
C1120  C1122   1.396   .     A
C1120  H1154   1.086   .     S
C1120  C674    1.377   1_565 S
C1123  N1158   1.358   .     A
C1123  H1155   1.083   .     S
C1123  C1199   1.418   .     S
C1124  N1157   1.358   .     A
C1124  H1156   1.083   .     S
C1124  C1274   1.418   1_455 S
C1125  N1157   1.384   .     A
C1125  C1177   1.470   .     S
C1125  C1271   1.418   1_455 S
C1126  N1158   1.384   .     A
C1126  C1181   1.470   .     S
C1126  C1198   1.418   .     S
C1127  O1165   1.297   .     A
C1127  C1129   1.457   .     S
C1127  O1163   1.298   .     A
C1128  O1166   1.298   .     A
C1128  O1164   1.296   .     A
C1128  C1130   1.457   .     S
C1129  C1133   1.400   .     A
C1129  C1135   1.391   .     A
C1130  C1134   1.399   .     A
C1130  C1136   1.394   .     A
C1131  C1139   1.405   .     A
C1131  H1149   1.084   .     S
C1131  C1133   1.396   .     A
C1132  H1150   1.083   .     S
C1132  C1134   1.392   .     A
C1132  C1140   1.403   .     A
C1133  H1148   1.083   .     S
C1134  H1147   1.083   .     S
C1135  H1146   1.079   .     S
C1135  C1137   1.392   .     A
C1136  C1138   1.395   .     A
C1136  H1145   1.077   .     S
C1137  C1139   1.416   .     A
C1137  C1141   1.414   .     A
C1138  C1140   1.419   .     A
C1138  C1142   1.417   .     A
C1139  C449    1.392   1_556 S
C1141  C476    1.412   1_556 S
N1157  Zn1167  2.023   .     S
N1158  Zn1168  2.023   .     S
O1159  Zn1167  1.985   .     S
O1160  Zn1168  1.985   .     S
O1161  Zn1168  1.992   .     S
O1162  Zn1167  1.992   .     S
O1163  Zn1167  1.963   .     S
O1164  Zn1168  1.963   .     S
O1165  Zn1168  1.917   .     S
O1166  Zn1167  1.917   .     S
C1169  O1170   1.223   .     D
C1169  O1171   1.399   .     S
O1171  H1172   1.014   .     S
C1173  O1175   1.399   .     S
C1173  O1174   1.223   .     D
O1175  H1176   1.014   .     S
C1177  O1178   1.221   .     D
C1177  O1179   1.398   .     S
O1179  H1180   1.014   .     S
C1181  O1182   1.221   .     D
C1181  O1183   1.398   .     S
O1183  H1184   1.014   .     S
C1185  O1235   1.287   .     A
C1185  C1196   1.412   .     S
C1185  O1233   1.284   .     A
C1186  O1236   1.287   .     A
C1186  C1195   1.413   .     S
C1186  O1234   1.284   .     A
C1187  C1189   1.391   .     A
C1187  C1216   1.418   .     A
C1187  H1225   1.079   .     S
C1188  H1226   1.079   .     S
C1188  C1215   1.417   .     A
C1188  C1190   1.388   .     A
C1189  H1217   1.084   .     S
C1190  H1218   1.084   .     S
C1190  C548    1.391   1_556 S
C1191  C1243   1.488   .     S
C1191  C1196   1.407   .     A
C1191  C749    1.377   1_565 S
C1192  C1195   1.407   .     A
C1192  C1247   1.488   .     S
C1193  C1195   1.396   .     A
C1193  H1227   1.086   .     S
C1194  C1196   1.396   .     A
C1194  H1228   1.086   .     S
C1194  C748    1.377   1_565 S
C1197  N1232   1.358   .     A
C1197  H1229   1.083   .     S
C1197  C1273   1.418   .     S
C1198  N1231   1.358   .     A
C1198  H1230   1.083   .     S
C1199  N1231   1.384   .     A
C1199  C1251   1.470   .     S
C1200  N1232   1.384   .     A
C1200  C1255   1.470   .     S
C1200  C1272   1.418   .     S
C1201  O1239   1.297   .     A
C1201  C1203   1.457   .     S
C1201  O1237   1.298   .     A
C1202  O1240   1.298   .     A
C1202  O1238   1.296   .     A
C1202  C1204   1.457   .     S
C1203  C1207   1.400   .     A
C1203  C1209   1.391   .     A
C1204  C1208   1.399   .     A
C1204  C1210   1.394   .     A
C1205  C1213   1.405   .     A
C1205  H1223   1.084   .     S
C1205  C1207   1.396   .     A
C1206  H1224   1.083   .     S
C1206  C1208   1.392   .     A
C1206  C1214   1.403   .     A
C1207  H1222   1.083   .     S
C1208  H1221   1.083   .     S
C1209  H1220   1.079   .     S
C1209  C1211   1.392   .     A
C1210  C1212   1.395   .     A
C1210  H1219   1.077   .     S
C1211  C1213   1.416   .     A
C1211  C1215   1.414   .     A
C1212  C1214   1.419   .     A
C1212  C1216   1.417   .     A
C1213  C523    1.392   1_556 S
C1215  C550    1.412   1_556 S
N1231  Zn1241  2.023   .     S
N1232  Zn1242  2.023   .     S
O1233  Zn1241  1.985   .     S
O1234  Zn1242  1.985   .     S
O1235  Zn1242  1.992   .     S
O1236  Zn1241  1.992   .     S
O1237  Zn1241  1.963   .     S
O1238  Zn1242  1.963   .     S
O1239  Zn1242  1.917   .     S
O1240  Zn1241  1.917   .     S
C1243  O1244   1.223   .     D
C1243  O1245   1.399   .     S
O1245  H1246   1.014   .     S
C1247  O1249   1.399   .     S
C1247  O1248   1.223   .     D
O1249  H1250   1.014   .     S
C1251  O1252   1.221   .     D
C1251  O1253   1.398   .     S
O1253  H1254   1.014   .     S
C1255  O1256   1.221   .     D
C1255  O1257   1.398   .     S
O1257  H1258   1.014   .     S
C1259  O1309   1.287   .     A
C1259  C1270   1.412   .     S
C1259  O1307   1.284   .     A
C1260  O1310   1.287   .     A
C1260  C1269   1.413   .     S
C1260  O1308   1.284   .     A
C1261  C1263   1.391   .     A
C1261  C1290   1.418   .     A
C1261  H1299   1.079   .     S
C1262  H1300   1.079   .     S
C1262  C1289   1.417   .     A
C1262  C1264   1.388   .     A
C1263  H1291   1.084   .     S
C1264  H1292   1.084   .     S
C1264  C622    1.391   1_556 S
C1265  C1317   1.488   .     S
C1265  C1270   1.407   .     A
C1265  C823    1.377   1_565 S
C1266  C1269   1.407   .     A
C1266  C1321   1.488   .     S
C1267  C1269   1.396   .     A
C1267  H1301   1.086   .     S
C1268  C1270   1.396   .     A
C1268  H1302   1.086   .     S
C1268  C822    1.377   1_565 S
C1271  N1306   1.358   .     A
C1271  H1303   1.083   .     S
C1271  C1125   1.418   1_655 S
C1272  N1305   1.358   .     A
C1272  H1304   1.083   .     S
C1273  N1305   1.384   .     A
C1273  C1325   1.470   .     S
C1274  N1306   1.384   .     A
C1274  C1329   1.470   .     S
C1274  C1124   1.418   1_655 S
C1275  O1313   1.297   .     A
C1275  C1277   1.457   .     S
C1275  O1311   1.298   .     A
C1276  O1314   1.298   .     A
C1276  O1312   1.296   .     A
C1276  C1278   1.457   .     S
C1277  C1281   1.400   .     A
C1277  C1283   1.391   .     A
C1278  C1282   1.399   .     A
C1278  C1284   1.394   .     A
C1279  C1287   1.405   .     A
C1279  H1297   1.084   .     S
C1279  C1281   1.396   .     A
C1280  H1298   1.083   .     S
C1280  C1282   1.392   .     A
C1280  C1288   1.403   .     A
C1281  H1296   1.083   .     S
C1282  H1295   1.083   .     S
C1283  H1294   1.079   .     S
C1283  C1285   1.392   .     A
C1284  C1286   1.395   .     A
C1284  H1293   1.077   .     S
C1285  C1287   1.416   .     A
C1285  C1289   1.414   .     A
C1286  C1288   1.419   .     A
C1286  C1290   1.417   .     A
C1287  C597    1.392   1_556 S
C1289  C624    1.412   1_556 S
N1305  Zn1315  2.023   .     S
N1306  Zn1316  2.023   .     S
O1307  Zn1315  1.985   .     S
O1308  Zn1316  1.985   .     S
O1309  Zn1316  1.992   .     S
O1310  Zn1315  1.992   .     S
O1311  Zn1315  1.963   .     S
O1312  Zn1316  1.963   .     S
O1313  Zn1316  1.917   .     S
O1314  Zn1315  1.917   .     S
C1317  O1318   1.223   .     D
C1317  O1319   1.399   .     S
O1319  H1320   1.014   .     S
C1321  O1323   1.399   .     S
C1321  O1322   1.223   .     D
O1323  H1324   1.014   .     S
C1325  O1326   1.221   .     D
C1325  O1327   1.398   .     S
O1327  H1328   1.014   .     S
C1329  O1330   1.221   .     D
C1329  O1331   1.398   .     S
O1331  H1332   1.014   .     S
