data_str_m3_o10_o16_pcu_sym.145
_audit_creation_date              2020-01-03
_audit_creation_method            'Materials Studio'
_symmetry_space_group_name_H-M    'P1'
_symmetry_Int_Tables_number       1
_symmetry_cell_setting            triclinic
loop_
_symmetry_equiv_pos_as_xyz
  x,y,z
_cell_length_a                    23.4902
_cell_length_b                    25.7055
_cell_length_c                    24.3339
_cell_angle_alpha                 92.7463
_cell_angle_beta                  101.5213
_cell_angle_gamma                 94.0314
loop_
_atom_site_label
_atom_site_type_symbol
_atom_site_fract_x
_atom_site_fract_y
_atom_site_fract_z
_atom_site_U_iso_or_equiv
_atom_site_adp_type
_atom_site_occupancy
O1     O     0.29769   0.24629   0.25357   0.00000  Uiso   1.00
O2     O     0.05742   0.23704   0.24423   0.00000  Uiso   1.00
C3     C     0.01569   0.26496   0.25186   0.00000  Uiso   1.00
O4     O     0.31490   0.17358   0.33380   0.00000  Uiso   1.00
O5     O     0.07463   0.16433   0.32446   0.00000  Uiso   1.00
C6     C     0.03560   0.16839   0.35503   0.00000  Uiso   1.00
Zn7    Zn    0.27119   0.17284   0.25623   0.00000  Uiso   1.00
Zn8    Zn    0.06214   0.16049   0.24376   0.00000  Uiso   1.00
O9     O     0.27592   0.09629   0.25577   0.00000  Uiso   1.00
O10    O     0.03565   0.08704   0.24642   0.00000  Uiso   1.00
O11    O     0.25870   0.16901   0.17554   0.00000  Uiso   1.00
O12    O     0.01843   0.15976   0.16620   0.00000  Uiso   1.00
C13    C     0.31937   0.06866   0.25419   0.00000  Uiso   1.00
C14    C     0.29730   0.16281   0.14483   0.00000  Uiso   1.00
C15    C     0.26788   0.09259   0.00305   0.00000  Uiso   1.00
H16    H     0.00686   0.09767   0.07316   0.00000  Uiso   1.00
H17    H     0.19582   0.05654   0.40746   0.00000  Uiso   1.00
H18    H     0.28625   0.06333   0.47979   0.00000  Uiso   1.00
C19    C     0.27615   0.15153   0.08507   0.00000  Uiso   1.00
C20    C     0.02599   0.20101   0.44875   0.00000  Uiso   1.00
C21    C     0.04707   0.20812   0.00613   0.00000  Uiso   1.00
C22    C     0.09818   0.18642   0.03074   0.00000  Uiso   1.00
C23    C     0.12983   0.15852   0.49615   0.00000  Uiso   1.00
C24    C     0.10257   0.14371   0.44021   0.00000  Uiso   1.00
C25    C     0.18780   0.14542   0.01440   0.00000  Uiso   1.00
C26    C     0.21169   0.10785   0.48279   0.00000  Uiso   1.00
C27    C     0.17902   0.08617   0.43170   0.00000  Uiso   1.00
C28    C     0.12537   0.10444   0.41012   0.00000  Uiso   1.00
C29    C     0.22376   0.17082   0.06181   0.00000  Uiso   1.00
C30    C     0.29935   0.11316   0.05523   0.00000  Uiso   1.00
C31    C     0.05364   0.16919   0.41563   0.00000  Uiso   1.00
H32    H     0.21040   0.20423   0.08323   0.00000  Uiso   1.00
H33    H     0.32119   0.22032   0.43024   0.00000  Uiso   1.00
H34    H     0.02284   0.22976   0.03169   0.00000  Uiso   1.00
H35    H     0.10170   0.08712   0.36990   0.00000  Uiso   1.00
C36    C     0.02354   0.31974   0.25324   0.00000  Uiso   1.00
H37    H     0.05919   0.00213   0.23486   0.00000  Uiso   1.00
C38    C     0.31585   0.01566   0.26715   0.00000  Uiso   1.00
N39    N     0.14493   0.15223   0.23542   0.00000  Uiso   1.00
N40    N     0.18840   0.18110   0.26457   0.00000  Uiso   1.00
N41    N     0.27402   0.33098   0.29966   0.00000  Uiso   1.00
O42    O     0.22042   0.01014   0.28727   0.00000  Uiso   1.00
O43    O     0.29136   0.30784   0.34579   0.00000  Uiso   1.00
F44    F     0.15984   0.10768   0.21380   0.00000  Uiso   1.00
F45    F     0.17357   0.22322   0.29100   0.00000  Uiso   1.00
N46    N     0.11172   0.18569   0.09070   0.00000  Uiso   1.00
O47    O     0.12412   0.14213   0.11353   0.00000  Uiso   1.00
O48    O     0.10387   0.22589   0.12211   0.00000  Uiso   1.00
O49    O     0.63102   0.24629   0.25357   0.00000  Uiso   1.00
O50    O     0.39075   0.23704   0.24423   0.00000  Uiso   1.00
C51    C     0.34902   0.26496   0.25186   0.00000  Uiso   1.00
O52    O     0.64823   0.17358   0.33380   0.00000  Uiso   1.00
O53    O     0.40796   0.16433   0.32446   0.00000  Uiso   1.00
C54    C     0.36893   0.16839   0.35503   0.00000  Uiso   1.00
Zn55   Zn    0.60453   0.17284   0.25623   0.00000  Uiso   1.00
Zn56   Zn    0.39547   0.16049   0.24376   0.00000  Uiso   1.00
O57    O     0.60925   0.09629   0.25577   0.00000  Uiso   1.00
O58    O     0.36898   0.08704   0.24642   0.00000  Uiso   1.00
O59    O     0.59204   0.16901   0.17554   0.00000  Uiso   1.00
O60    O     0.35177   0.15976   0.16620   0.00000  Uiso   1.00
C61    C     0.65270   0.06866   0.25419   0.00000  Uiso   1.00
C62    C     0.63064   0.16281   0.14483   0.00000  Uiso   1.00
C63    C     0.60121   0.09259   0.00305   0.00000  Uiso   1.00
H64    H     0.34019   0.09767   0.07316   0.00000  Uiso   1.00
H65    H     0.52915   0.05654   0.40746   0.00000  Uiso   1.00
H66    H     0.61959   0.06333   0.47979   0.00000  Uiso   1.00
C67    C     0.60948   0.15153   0.08507   0.00000  Uiso   1.00
C68    C     0.35932   0.20101   0.44875   0.00000  Uiso   1.00
C69    C     0.38041   0.20812   0.00613   0.00000  Uiso   1.00
C70    C     0.43151   0.18642   0.03074   0.00000  Uiso   1.00
C71    C     0.46317   0.15852   0.49615   0.00000  Uiso   1.00
C72    C     0.43591   0.14371   0.44021   0.00000  Uiso   1.00
C73    C     0.52113   0.14542   0.01440   0.00000  Uiso   1.00
C74    C     0.54502   0.10785   0.48279   0.00000  Uiso   1.00
C75    C     0.51235   0.08617   0.43170   0.00000  Uiso   1.00
C76    C     0.45870   0.10444   0.41012   0.00000  Uiso   1.00
C77    C     0.55710   0.17082   0.06181   0.00000  Uiso   1.00
C78    C     0.63268   0.11316   0.05523   0.00000  Uiso   1.00
C79    C     0.38698   0.16919   0.41563   0.00000  Uiso   1.00
H80    H     0.54374   0.20423   0.08323   0.00000  Uiso   1.00
H81    H     0.65452   0.22032   0.43024   0.00000  Uiso   1.00
H82    H     0.35618   0.22976   0.03169   0.00000  Uiso   1.00
H83    H     0.43504   0.08712   0.36990   0.00000  Uiso   1.00
C84    C     0.35688   0.31974   0.25324   0.00000  Uiso   1.00
H85    H     0.39252   0.00213   0.23486   0.00000  Uiso   1.00
C86    C     0.64919   0.01566   0.26715   0.00000  Uiso   1.00
N87    N     0.47827   0.15223   0.23542   0.00000  Uiso   1.00
N88    N     0.52173   0.18110   0.26457   0.00000  Uiso   1.00
N89    N     0.60735   0.33098   0.29966   0.00000  Uiso   1.00
O90    O     0.55376   0.01014   0.28727   0.00000  Uiso   1.00
O91    O     0.62470   0.30784   0.34579   0.00000  Uiso   1.00
F92    F     0.49317   0.10768   0.21380   0.00000  Uiso   1.00
F93    F     0.50690   0.22322   0.29100   0.00000  Uiso   1.00
N94    N     0.44505   0.18569   0.09070   0.00000  Uiso   1.00
O95    O     0.45745   0.14213   0.11353   0.00000  Uiso   1.00
O96    O     0.43720   0.22589   0.12211   0.00000  Uiso   1.00
O97    O     0.96435   0.24629   0.25357   0.00000  Uiso   1.00
O98    O     0.72408   0.23704   0.24423   0.00000  Uiso   1.00
C99    C     0.68236   0.26496   0.25186   0.00000  Uiso   1.00
O100   O     0.98157   0.17358   0.33380   0.00000  Uiso   1.00
O101   O     0.74130   0.16433   0.32446   0.00000  Uiso   1.00
C102   C     0.70226   0.16839   0.35503   0.00000  Uiso   1.00
Zn103  Zn    0.93786   0.17284   0.25623   0.00000  Uiso   1.00
Zn104  Zn    0.72881   0.16049   0.24376   0.00000  Uiso   1.00
O105   O     0.94258   0.09629   0.25577   0.00000  Uiso   1.00
O106   O     0.70231   0.08704   0.24642   0.00000  Uiso   1.00
O107   O     0.92537   0.16901   0.17554   0.00000  Uiso   1.00
O108   O     0.68510   0.15976   0.16620   0.00000  Uiso   1.00
C109   C     0.98603   0.06866   0.25419   0.00000  Uiso   1.00
C110   C     0.96397   0.16281   0.14483   0.00000  Uiso   1.00
C111   C     0.93455   0.09259   0.00305   0.00000  Uiso   1.00
H112   H     0.67352   0.09767   0.07316   0.00000  Uiso   1.00
H113   H     0.86248   0.05654   0.40746   0.00000  Uiso   1.00
H114   H     0.95292   0.06333   0.47979   0.00000  Uiso   1.00
C115   C     0.94281   0.15153   0.08507   0.00000  Uiso   1.00
C116   C     0.69265   0.20101   0.44875   0.00000  Uiso   1.00
C117   C     0.71374   0.20812   0.00613   0.00000  Uiso   1.00
C118   C     0.76485   0.18642   0.03074   0.00000  Uiso   1.00
C119   C     0.79650   0.15852   0.49615   0.00000  Uiso   1.00
C120   C     0.76924   0.14371   0.44021   0.00000  Uiso   1.00
C121   C     0.85447   0.14542   0.01440   0.00000  Uiso   1.00
C122   C     0.87836   0.10785   0.48279   0.00000  Uiso   1.00
C123   C     0.84569   0.08617   0.43170   0.00000  Uiso   1.00
C124   C     0.79204   0.10444   0.41012   0.00000  Uiso   1.00
C125   C     0.89043   0.17082   0.06181   0.00000  Uiso   1.00
C126   C     0.96601   0.11316   0.05523   0.00000  Uiso   1.00
C127   C     0.72031   0.16919   0.41563   0.00000  Uiso   1.00
H128   H     0.87707   0.20423   0.08323   0.00000  Uiso   1.00
H129   H     0.98785   0.22032   0.43024   0.00000  Uiso   1.00
H130   H     0.68951   0.22976   0.03169   0.00000  Uiso   1.00
H131   H     0.76837   0.08712   0.36990   0.00000  Uiso   1.00
C132   C     0.69021   0.31974   0.25324   0.00000  Uiso   1.00
H133   H     0.72585   0.00213   0.23486   0.00000  Uiso   1.00
C134   C     0.98252   0.01566   0.26715   0.00000  Uiso   1.00
N135   N     0.81160   0.15223   0.23542   0.00000  Uiso   1.00
N136   N     0.85507   0.18110   0.26457   0.00000  Uiso   1.00
N137   N     0.94069   0.33098   0.29966   0.00000  Uiso   1.00
O138   O     0.88709   0.01014   0.28727   0.00000  Uiso   1.00
O139   O     0.95803   0.30784   0.34579   0.00000  Uiso   1.00
F140   F     0.82651   0.10768   0.21380   0.00000  Uiso   1.00
F141   F     0.84024   0.22322   0.29100   0.00000  Uiso   1.00
N142   N     0.77838   0.18569   0.09070   0.00000  Uiso   1.00
O143   O     0.79079   0.14213   0.11353   0.00000  Uiso   1.00
O144   O     0.77054   0.22589   0.12211   0.00000  Uiso   1.00
O145   O     0.29769   0.57963   0.25357   0.00000  Uiso   1.00
O146   O     0.05742   0.57038   0.24423   0.00000  Uiso   1.00
C147   C     0.01569   0.59829   0.25186   0.00000  Uiso   1.00
O148   O     0.31490   0.50691   0.33380   0.00000  Uiso   1.00
O149   O     0.07463   0.49766   0.32446   0.00000  Uiso   1.00
C150   C     0.03560   0.50172   0.35503   0.00000  Uiso   1.00
Zn151  Zn    0.27119   0.50618   0.25623   0.00000  Uiso   1.00
Zn152  Zn    0.06214   0.49382   0.24376   0.00000  Uiso   1.00
O153   O     0.27592   0.42962   0.25577   0.00000  Uiso   1.00
O154   O     0.03565   0.42037   0.24642   0.00000  Uiso   1.00
O155   O     0.25870   0.50234   0.17554   0.00000  Uiso   1.00
O156   O     0.01843   0.49309   0.16620   0.00000  Uiso   1.00
C157   C     0.31937   0.40199   0.25419   0.00000  Uiso   1.00
C158   C     0.29730   0.49614   0.14483   0.00000  Uiso   1.00
C159   C     0.26788   0.42592   0.00305   0.00000  Uiso   1.00
H160   H     0.00686   0.43100   0.07316   0.00000  Uiso   1.00
H161   H     0.19582   0.38987   0.40746   0.00000  Uiso   1.00
H162   H     0.28625   0.39666   0.47979   0.00000  Uiso   1.00
C163   C     0.27615   0.48486   0.08507   0.00000  Uiso   1.00
C164   C     0.02599   0.53435   0.44875   0.00000  Uiso   1.00
C165   C     0.04707   0.54145   0.00613   0.00000  Uiso   1.00
C166   C     0.09818   0.51975   0.03074   0.00000  Uiso   1.00
C167   C     0.12983   0.49185   0.49615   0.00000  Uiso   1.00
C168   C     0.10257   0.47704   0.44021   0.00000  Uiso   1.00
C169   C     0.18780   0.47875   0.01440   0.00000  Uiso   1.00
C170   C     0.21169   0.44119   0.48279   0.00000  Uiso   1.00
C171   C     0.17902   0.41951   0.43170   0.00000  Uiso   1.00
C172   C     0.12537   0.43777   0.41012   0.00000  Uiso   1.00
C173   C     0.22376   0.50416   0.06181   0.00000  Uiso   1.00
C174   C     0.29935   0.44649   0.05523   0.00000  Uiso   1.00
C175   C     0.05364   0.50252   0.41563   0.00000  Uiso   1.00
H176   H     0.21040   0.53756   0.08323   0.00000  Uiso   1.00
H177   H     0.32119   0.55365   0.43024   0.00000  Uiso   1.00
H178   H     0.02284   0.56310   0.03169   0.00000  Uiso   1.00
H179   H     0.10170   0.42045   0.36990   0.00000  Uiso   1.00
C180   C     0.02354   0.65308   0.25324   0.00000  Uiso   1.00
H181   H     0.05919   0.33546   0.23486   0.00000  Uiso   1.00
C182   C     0.31585   0.34900   0.26715   0.00000  Uiso   1.00
N183   N     0.14493   0.48556   0.23542   0.00000  Uiso   1.00
N184   N     0.18840   0.51444   0.26457   0.00000  Uiso   1.00
N185   N     0.27402   0.66431   0.29966   0.00000  Uiso   1.00
O186   O     0.22042   0.34348   0.28727   0.00000  Uiso   1.00
O187   O     0.29136   0.64118   0.34579   0.00000  Uiso   1.00
F188   F     0.15984   0.44101   0.21380   0.00000  Uiso   1.00
F189   F     0.17357   0.55656   0.29100   0.00000  Uiso   1.00
N190   N     0.11172   0.51902   0.09070   0.00000  Uiso   1.00
O191   O     0.12412   0.47546   0.11353   0.00000  Uiso   1.00
O192   O     0.10387   0.55922   0.12211   0.00000  Uiso   1.00
O193   O     0.63102   0.57963   0.25357   0.00000  Uiso   1.00
O194   O     0.39075   0.57038   0.24423   0.00000  Uiso   1.00
C195   C     0.34902   0.59829   0.25186   0.00000  Uiso   1.00
O196   O     0.64823   0.50691   0.33380   0.00000  Uiso   1.00
O197   O     0.40796   0.49766   0.32446   0.00000  Uiso   1.00
C198   C     0.36893   0.50172   0.35503   0.00000  Uiso   1.00
Zn199  Zn    0.60453   0.50618   0.25623   0.00000  Uiso   1.00
Zn200  Zn    0.39547   0.49382   0.24376   0.00000  Uiso   1.00
O201   O     0.60925   0.42962   0.25577   0.00000  Uiso   1.00
O202   O     0.36898   0.42037   0.24642   0.00000  Uiso   1.00
O203   O     0.59204   0.50234   0.17554   0.00000  Uiso   1.00
O204   O     0.35177   0.49309   0.16620   0.00000  Uiso   1.00
C205   C     0.65270   0.40199   0.25419   0.00000  Uiso   1.00
C206   C     0.63064   0.49614   0.14483   0.00000  Uiso   1.00
C207   C     0.60121   0.42592   0.00305   0.00000  Uiso   1.00
H208   H     0.34019   0.43100   0.07316   0.00000  Uiso   1.00
H209   H     0.52915   0.38987   0.40746   0.00000  Uiso   1.00
H210   H     0.61959   0.39666   0.47979   0.00000  Uiso   1.00
C211   C     0.60948   0.48486   0.08507   0.00000  Uiso   1.00
C212   C     0.35932   0.53435   0.44875   0.00000  Uiso   1.00
C213   C     0.38041   0.54145   0.00613   0.00000  Uiso   1.00
C214   C     0.43151   0.51975   0.03074   0.00000  Uiso   1.00
C215   C     0.46317   0.49185   0.49615   0.00000  Uiso   1.00
C216   C     0.43591   0.47704   0.44021   0.00000  Uiso   1.00
C217   C     0.52113   0.47875   0.01440   0.00000  Uiso   1.00
C218   C     0.54502   0.44119   0.48279   0.00000  Uiso   1.00
C219   C     0.51235   0.41951   0.43170   0.00000  Uiso   1.00
C220   C     0.45870   0.43777   0.41012   0.00000  Uiso   1.00
C221   C     0.55710   0.50416   0.06181   0.00000  Uiso   1.00
C222   C     0.63268   0.44649   0.05523   0.00000  Uiso   1.00
C223   C     0.38698   0.50252   0.41563   0.00000  Uiso   1.00
H224   H     0.54374   0.53756   0.08323   0.00000  Uiso   1.00
H225   H     0.65452   0.55365   0.43024   0.00000  Uiso   1.00
H226   H     0.35618   0.56310   0.03169   0.00000  Uiso   1.00
H227   H     0.43504   0.42045   0.36990   0.00000  Uiso   1.00
C228   C     0.35688   0.65308   0.25324   0.00000  Uiso   1.00
H229   H     0.39252   0.33546   0.23486   0.00000  Uiso   1.00
C230   C     0.64919   0.34900   0.26715   0.00000  Uiso   1.00
N231   N     0.47827   0.48556   0.23542   0.00000  Uiso   1.00
N232   N     0.52173   0.51444   0.26457   0.00000  Uiso   1.00
N233   N     0.60735   0.66431   0.29966   0.00000  Uiso   1.00
O234   O     0.55376   0.34348   0.28727   0.00000  Uiso   1.00
O235   O     0.62470   0.64118   0.34579   0.00000  Uiso   1.00
F236   F     0.49317   0.44101   0.21380   0.00000  Uiso   1.00
F237   F     0.50690   0.55656   0.29100   0.00000  Uiso   1.00
N238   N     0.44505   0.51902   0.09070   0.00000  Uiso   1.00
O239   O     0.45745   0.47546   0.11353   0.00000  Uiso   1.00
O240   O     0.43720   0.55922   0.12211   0.00000  Uiso   1.00
O241   O     0.96435   0.57963   0.25357   0.00000  Uiso   1.00
O242   O     0.72408   0.57038   0.24423   0.00000  Uiso   1.00
C243   C     0.68236   0.59829   0.25186   0.00000  Uiso   1.00
O244   O     0.98157   0.50691   0.33380   0.00000  Uiso   1.00
O245   O     0.74130   0.49766   0.32446   0.00000  Uiso   1.00
C246   C     0.70226   0.50172   0.35503   0.00000  Uiso   1.00
Zn247  Zn    0.93786   0.50618   0.25623   0.00000  Uiso   1.00
Zn248  Zn    0.72881   0.49382   0.24376   0.00000  Uiso   1.00
O249   O     0.94258   0.42962   0.25577   0.00000  Uiso   1.00
O250   O     0.70231   0.42037   0.24642   0.00000  Uiso   1.00
O251   O     0.92537   0.50234   0.17554   0.00000  Uiso   1.00
O252   O     0.68510   0.49309   0.16620   0.00000  Uiso   1.00
C253   C     0.98603   0.40199   0.25419   0.00000  Uiso   1.00
C254   C     0.96397   0.49614   0.14483   0.00000  Uiso   1.00
C255   C     0.93455   0.42592   0.00305   0.00000  Uiso   1.00
H256   H     0.67352   0.43100   0.07316   0.00000  Uiso   1.00
H257   H     0.86248   0.38987   0.40746   0.00000  Uiso   1.00
H258   H     0.95292   0.39666   0.47979   0.00000  Uiso   1.00
C259   C     0.94281   0.48486   0.08507   0.00000  Uiso   1.00
C260   C     0.69265   0.53435   0.44875   0.00000  Uiso   1.00
C261   C     0.71374   0.54145   0.00613   0.00000  Uiso   1.00
C262   C     0.76485   0.51975   0.03074   0.00000  Uiso   1.00
C263   C     0.79650   0.49185   0.49615   0.00000  Uiso   1.00
C264   C     0.76924   0.47704   0.44021   0.00000  Uiso   1.00
C265   C     0.85447   0.47875   0.01440   0.00000  Uiso   1.00
C266   C     0.87836   0.44119   0.48279   0.00000  Uiso   1.00
C267   C     0.84569   0.41951   0.43170   0.00000  Uiso   1.00
C268   C     0.79204   0.43777   0.41012   0.00000  Uiso   1.00
C269   C     0.89043   0.50416   0.06181   0.00000  Uiso   1.00
C270   C     0.96601   0.44649   0.05523   0.00000  Uiso   1.00
C271   C     0.72031   0.50252   0.41563   0.00000  Uiso   1.00
H272   H     0.87707   0.53756   0.08323   0.00000  Uiso   1.00
H273   H     0.98785   0.55365   0.43024   0.00000  Uiso   1.00
H274   H     0.68951   0.56310   0.03169   0.00000  Uiso   1.00
H275   H     0.76837   0.42045   0.36990   0.00000  Uiso   1.00
C276   C     0.69021   0.65308   0.25324   0.00000  Uiso   1.00
H277   H     0.72585   0.33546   0.23486   0.00000  Uiso   1.00
C278   C     0.98252   0.34900   0.26715   0.00000  Uiso   1.00
N279   N     0.81160   0.48556   0.23542   0.00000  Uiso   1.00
N280   N     0.85507   0.51444   0.26457   0.00000  Uiso   1.00
N281   N     0.94069   0.66431   0.29966   0.00000  Uiso   1.00
O282   O     0.88709   0.34348   0.28727   0.00000  Uiso   1.00
O283   O     0.95803   0.64118   0.34579   0.00000  Uiso   1.00
F284   F     0.82651   0.44101   0.21380   0.00000  Uiso   1.00
F285   F     0.84024   0.55656   0.29100   0.00000  Uiso   1.00
N286   N     0.77838   0.51902   0.09070   0.00000  Uiso   1.00
O287   O     0.79079   0.47546   0.11353   0.00000  Uiso   1.00
O288   O     0.77054   0.55922   0.12211   0.00000  Uiso   1.00
O289   O     0.29769   0.91296   0.25357   0.00000  Uiso   1.00
O290   O     0.05742   0.90371   0.24423   0.00000  Uiso   1.00
C291   C     0.01569   0.93163   0.25186   0.00000  Uiso   1.00
O292   O     0.31490   0.84024   0.33380   0.00000  Uiso   1.00
O293   O     0.07463   0.83099   0.32446   0.00000  Uiso   1.00
C294   C     0.03560   0.83505   0.35503   0.00000  Uiso   1.00
Zn295  Zn    0.27119   0.83951   0.25623   0.00000  Uiso   1.00
Zn296  Zn    0.06214   0.82716   0.24376   0.00000  Uiso   1.00
O297   O     0.27592   0.76296   0.25577   0.00000  Uiso   1.00
O298   O     0.03565   0.75371   0.24642   0.00000  Uiso   1.00
O299   O     0.25870   0.83567   0.17554   0.00000  Uiso   1.00
O300   O     0.01843   0.82642   0.16620   0.00000  Uiso   1.00
C301   C     0.31937   0.73533   0.25419   0.00000  Uiso   1.00
C302   C     0.29730   0.82948   0.14483   0.00000  Uiso   1.00
C303   C     0.26788   0.75925   0.00305   0.00000  Uiso   1.00
H304   H     0.00686   0.76434   0.07316   0.00000  Uiso   1.00
H305   H     0.19582   0.72321   0.40746   0.00000  Uiso   1.00
H306   H     0.28625   0.72999   0.47979   0.00000  Uiso   1.00
C307   C     0.27615   0.81819   0.08507   0.00000  Uiso   1.00
C308   C     0.02599   0.86768   0.44875   0.00000  Uiso   1.00
C309   C     0.04707   0.87478   0.00613   0.00000  Uiso   1.00
C310   C     0.09818   0.85309   0.03074   0.00000  Uiso   1.00
C311   C     0.12983   0.82519   0.49615   0.00000  Uiso   1.00
C312   C     0.10257   0.81038   0.44021   0.00000  Uiso   1.00
C313   C     0.18780   0.81208   0.01440   0.00000  Uiso   1.00
C314   C     0.21169   0.77452   0.48279   0.00000  Uiso   1.00
C315   C     0.17902   0.75284   0.43170   0.00000  Uiso   1.00
C316   C     0.12537   0.77111   0.41012   0.00000  Uiso   1.00
C317   C     0.22376   0.83749   0.06181   0.00000  Uiso   1.00
C318   C     0.29935   0.77983   0.05523   0.00000  Uiso   1.00
C319   C     0.05364   0.83586   0.41563   0.00000  Uiso   1.00
H320   H     0.21040   0.87089   0.08323   0.00000  Uiso   1.00
H321   H     0.32119   0.88698   0.43024   0.00000  Uiso   1.00
H322   H     0.02284   0.89643   0.03169   0.00000  Uiso   1.00
H323   H     0.10170   0.75379   0.36990   0.00000  Uiso   1.00
C324   C     0.02354   0.98641   0.25324   0.00000  Uiso   1.00
H325   H     0.05919   0.66880   0.23486   0.00000  Uiso   1.00
C326   C     0.31585   0.68233   0.26715   0.00000  Uiso   1.00
N327   N     0.14493   0.81890   0.23542   0.00000  Uiso   1.00
N328   N     0.18840   0.84777   0.26457   0.00000  Uiso   1.00
N329   N     0.27402   0.99765   0.29966   0.00000  Uiso   1.00
O330   O     0.22042   0.67681   0.28727   0.00000  Uiso   1.00
O331   O     0.29136   0.97451   0.34579   0.00000  Uiso   1.00
F332   F     0.15984   0.77435   0.21380   0.00000  Uiso   1.00
F333   F     0.17357   0.88989   0.29100   0.00000  Uiso   1.00
N334   N     0.11172   0.85235   0.09070   0.00000  Uiso   1.00
O335   O     0.12412   0.80880   0.11353   0.00000  Uiso   1.00
O336   O     0.10387   0.89256   0.12211   0.00000  Uiso   1.00
O337   O     0.63102   0.91296   0.25357   0.00000  Uiso   1.00
O338   O     0.39075   0.90371   0.24423   0.00000  Uiso   1.00
C339   C     0.34902   0.93163   0.25186   0.00000  Uiso   1.00
O340   O     0.64823   0.84024   0.33380   0.00000  Uiso   1.00
O341   O     0.40796   0.83099   0.32446   0.00000  Uiso   1.00
C342   C     0.36893   0.83505   0.35503   0.00000  Uiso   1.00
Zn343  Zn    0.60453   0.83951   0.25623   0.00000  Uiso   1.00
Zn344  Zn    0.39547   0.82716   0.24376   0.00000  Uiso   1.00
O345   O     0.60925   0.76296   0.25577   0.00000  Uiso   1.00
O346   O     0.36898   0.75371   0.24642   0.00000  Uiso   1.00
O347   O     0.59204   0.83567   0.17554   0.00000  Uiso   1.00
O348   O     0.35177   0.82642   0.16620   0.00000  Uiso   1.00
C349   C     0.65270   0.73533   0.25419   0.00000  Uiso   1.00
C350   C     0.63064   0.82948   0.14483   0.00000  Uiso   1.00
C351   C     0.60121   0.75925   0.00305   0.00000  Uiso   1.00
H352   H     0.34019   0.76434   0.07316   0.00000  Uiso   1.00
H353   H     0.52915   0.72321   0.40746   0.00000  Uiso   1.00
H354   H     0.61959   0.72999   0.47979   0.00000  Uiso   1.00
C355   C     0.60948   0.81819   0.08507   0.00000  Uiso   1.00
C356   C     0.35932   0.86768   0.44875   0.00000  Uiso   1.00
C357   C     0.38041   0.87478   0.00613   0.00000  Uiso   1.00
C358   C     0.43151   0.85309   0.03074   0.00000  Uiso   1.00
C359   C     0.46317   0.82519   0.49615   0.00000  Uiso   1.00
C360   C     0.43591   0.81038   0.44021   0.00000  Uiso   1.00
C361   C     0.52113   0.81208   0.01440   0.00000  Uiso   1.00
C362   C     0.54502   0.77452   0.48279   0.00000  Uiso   1.00
C363   C     0.51235   0.75284   0.43170   0.00000  Uiso   1.00
C364   C     0.45870   0.77111   0.41012   0.00000  Uiso   1.00
C365   C     0.55710   0.83749   0.06181   0.00000  Uiso   1.00
C366   C     0.63268   0.77983   0.05523   0.00000  Uiso   1.00
C367   C     0.38698   0.83586   0.41563   0.00000  Uiso   1.00
H368   H     0.54374   0.87089   0.08323   0.00000  Uiso   1.00
H369   H     0.65452   0.88698   0.43024   0.00000  Uiso   1.00
H370   H     0.35618   0.89643   0.03169   0.00000  Uiso   1.00
H371   H     0.43504   0.75379   0.36990   0.00000  Uiso   1.00
C372   C     0.35688   0.98641   0.25324   0.00000  Uiso   1.00
H373   H     0.39252   0.66880   0.23486   0.00000  Uiso   1.00
C374   C     0.64919   0.68233   0.26715   0.00000  Uiso   1.00
N375   N     0.47827   0.81890   0.23542   0.00000  Uiso   1.00
N376   N     0.52173   0.84777   0.26457   0.00000  Uiso   1.00
N377   N     0.60735   0.99765   0.29966   0.00000  Uiso   1.00
O378   O     0.55376   0.67681   0.28727   0.00000  Uiso   1.00
O379   O     0.62470   0.97451   0.34579   0.00000  Uiso   1.00
F380   F     0.49317   0.77435   0.21380   0.00000  Uiso   1.00
F381   F     0.50690   0.88989   0.29100   0.00000  Uiso   1.00
N382   N     0.44505   0.85235   0.09070   0.00000  Uiso   1.00
O383   O     0.45745   0.80880   0.11353   0.00000  Uiso   1.00
O384   O     0.43720   0.89256   0.12211   0.00000  Uiso   1.00
O385   O     0.96435   0.91296   0.25357   0.00000  Uiso   1.00
O386   O     0.72408   0.90371   0.24423   0.00000  Uiso   1.00
C387   C     0.68236   0.93163   0.25186   0.00000  Uiso   1.00
O388   O     0.98157   0.84024   0.33380   0.00000  Uiso   1.00
O389   O     0.74130   0.83099   0.32446   0.00000  Uiso   1.00
C390   C     0.70226   0.83505   0.35503   0.00000  Uiso   1.00
Zn391  Zn    0.93786   0.83951   0.25623   0.00000  Uiso   1.00
Zn392  Zn    0.72881   0.82716   0.24376   0.00000  Uiso   1.00
O393   O     0.94258   0.76296   0.25577   0.00000  Uiso   1.00
O394   O     0.70231   0.75371   0.24642   0.00000  Uiso   1.00
O395   O     0.92537   0.83567   0.17554   0.00000  Uiso   1.00
O396   O     0.68510   0.82642   0.16620   0.00000  Uiso   1.00
C397   C     0.98603   0.73533   0.25419   0.00000  Uiso   1.00
C398   C     0.96397   0.82948   0.14483   0.00000  Uiso   1.00
C399   C     0.93455   0.75925   0.00305   0.00000  Uiso   1.00
H400   H     0.67352   0.76434   0.07316   0.00000  Uiso   1.00
H401   H     0.86248   0.72321   0.40746   0.00000  Uiso   1.00
H402   H     0.95292   0.72999   0.47979   0.00000  Uiso   1.00
C403   C     0.94281   0.81819   0.08507   0.00000  Uiso   1.00
C404   C     0.69265   0.86768   0.44875   0.00000  Uiso   1.00
C405   C     0.71374   0.87478   0.00613   0.00000  Uiso   1.00
C406   C     0.76485   0.85309   0.03074   0.00000  Uiso   1.00
C407   C     0.79650   0.82519   0.49615   0.00000  Uiso   1.00
C408   C     0.76924   0.81038   0.44021   0.00000  Uiso   1.00
C409   C     0.85447   0.81208   0.01440   0.00000  Uiso   1.00
C410   C     0.87836   0.77452   0.48279   0.00000  Uiso   1.00
C411   C     0.84569   0.75284   0.43170   0.00000  Uiso   1.00
C412   C     0.79204   0.77111   0.41012   0.00000  Uiso   1.00
C413   C     0.89043   0.83749   0.06181   0.00000  Uiso   1.00
C414   C     0.96601   0.77983   0.05523   0.00000  Uiso   1.00
C415   C     0.72031   0.83586   0.41563   0.00000  Uiso   1.00
H416   H     0.87707   0.87089   0.08323   0.00000  Uiso   1.00
H417   H     0.98785   0.88698   0.43024   0.00000  Uiso   1.00
H418   H     0.68951   0.89643   0.03169   0.00000  Uiso   1.00
H419   H     0.76837   0.75379   0.36990   0.00000  Uiso   1.00
C420   C     0.69021   0.98641   0.25324   0.00000  Uiso   1.00
H421   H     0.72585   0.66880   0.23486   0.00000  Uiso   1.00
C422   C     0.98252   0.68233   0.26715   0.00000  Uiso   1.00
N423   N     0.81160   0.81890   0.23542   0.00000  Uiso   1.00
N424   N     0.85507   0.84777   0.26457   0.00000  Uiso   1.00
N425   N     0.94069   0.99765   0.29966   0.00000  Uiso   1.00
O426   O     0.88709   0.67681   0.28727   0.00000  Uiso   1.00
O427   O     0.95803   0.97451   0.34579   0.00000  Uiso   1.00
F428   F     0.82651   0.77435   0.21380   0.00000  Uiso   1.00
F429   F     0.84024   0.88989   0.29100   0.00000  Uiso   1.00
N430   N     0.77838   0.85235   0.09070   0.00000  Uiso   1.00
O431   O     0.79079   0.80880   0.11353   0.00000  Uiso   1.00
O432   O     0.77054   0.89256   0.12211   0.00000  Uiso   1.00
O433   O     0.29769   0.24629   0.75357   0.00000  Uiso   1.00
O434   O     0.05742   0.23704   0.74423   0.00000  Uiso   1.00
C435   C     0.01569   0.26496   0.75186   0.00000  Uiso   1.00
O436   O     0.31490   0.17358   0.83380   0.00000  Uiso   1.00
O437   O     0.07463   0.16433   0.82446   0.00000  Uiso   1.00
C438   C     0.03560   0.16839   0.85503   0.00000  Uiso   1.00
Zn439  Zn    0.27119   0.17284   0.75623   0.00000  Uiso   1.00
Zn440  Zn    0.06214   0.16049   0.74376   0.00000  Uiso   1.00
O441   O     0.27592   0.09629   0.75577   0.00000  Uiso   1.00
O442   O     0.03565   0.08704   0.74642   0.00000  Uiso   1.00
O443   O     0.25870   0.16901   0.67554   0.00000  Uiso   1.00
O444   O     0.01843   0.15976   0.66620   0.00000  Uiso   1.00
C445   C     0.31937   0.06866   0.75419   0.00000  Uiso   1.00
C446   C     0.29730   0.16281   0.64483   0.00000  Uiso   1.00
C447   C     0.26788   0.09259   0.50305   0.00000  Uiso   1.00
H448   H     0.00686   0.09767   0.57316   0.00000  Uiso   1.00
H449   H     0.19582   0.05654   0.90746   0.00000  Uiso   1.00
H450   H     0.28625   0.06333   0.97979   0.00000  Uiso   1.00
C451   C     0.27615   0.15153   0.58507   0.00000  Uiso   1.00
C452   C     0.02599   0.20101   0.94875   0.00000  Uiso   1.00
C453   C     0.04707   0.20812   0.50613   0.00000  Uiso   1.00
C454   C     0.09818   0.18642   0.53074   0.00000  Uiso   1.00
C455   C     0.12983   0.15852   0.99615   0.00000  Uiso   1.00
C456   C     0.10257   0.14371   0.94021   0.00000  Uiso   1.00
C457   C     0.18780   0.14542   0.51440   0.00000  Uiso   1.00
C458   C     0.21169   0.10785   0.98279   0.00000  Uiso   1.00
C459   C     0.17902   0.08617   0.93170   0.00000  Uiso   1.00
C460   C     0.12537   0.10444   0.91012   0.00000  Uiso   1.00
C461   C     0.22376   0.17082   0.56181   0.00000  Uiso   1.00
C462   C     0.29935   0.11316   0.55523   0.00000  Uiso   1.00
C463   C     0.05364   0.16919   0.91563   0.00000  Uiso   1.00
H464   H     0.21040   0.20423   0.58323   0.00000  Uiso   1.00
H465   H     0.32119   0.22032   0.93024   0.00000  Uiso   1.00
H466   H     0.02284   0.22976   0.53169   0.00000  Uiso   1.00
H467   H     0.10170   0.08712   0.86990   0.00000  Uiso   1.00
C468   C     0.02354   0.31974   0.75324   0.00000  Uiso   1.00
H469   H     0.05919   0.00213   0.73486   0.00000  Uiso   1.00
C470   C     0.31585   0.01566   0.76715   0.00000  Uiso   1.00
N471   N     0.14493   0.15223   0.73542   0.00000  Uiso   1.00
N472   N     0.18840   0.18110   0.76457   0.00000  Uiso   1.00
N473   N     0.27402   0.33098   0.79966   0.00000  Uiso   1.00
O474   O     0.22042   0.01014   0.78727   0.00000  Uiso   1.00
O475   O     0.29136   0.30784   0.84579   0.00000  Uiso   1.00
F476   F     0.15984   0.10768   0.71380   0.00000  Uiso   1.00
F477   F     0.17357   0.22322   0.79100   0.00000  Uiso   1.00
N478   N     0.11172   0.18569   0.59070   0.00000  Uiso   1.00
O479   O     0.12412   0.14213   0.61353   0.00000  Uiso   1.00
O480   O     0.10387   0.22589   0.62211   0.00000  Uiso   1.00
O481   O     0.63102   0.24629   0.75357   0.00000  Uiso   1.00
O482   O     0.39075   0.23704   0.74423   0.00000  Uiso   1.00
C483   C     0.34902   0.26496   0.75186   0.00000  Uiso   1.00
O484   O     0.64823   0.17358   0.83380   0.00000  Uiso   1.00
O485   O     0.40796   0.16433   0.82446   0.00000  Uiso   1.00
C486   C     0.36893   0.16839   0.85503   0.00000  Uiso   1.00
Zn487  Zn    0.60453   0.17284   0.75623   0.00000  Uiso   1.00
Zn488  Zn    0.39547   0.16049   0.74376   0.00000  Uiso   1.00
O489   O     0.60925   0.09629   0.75577   0.00000  Uiso   1.00
O490   O     0.36898   0.08704   0.74642   0.00000  Uiso   1.00
O491   O     0.59204   0.16901   0.67554   0.00000  Uiso   1.00
O492   O     0.35177   0.15976   0.66620   0.00000  Uiso   1.00
C493   C     0.65270   0.06866   0.75419   0.00000  Uiso   1.00
C494   C     0.63064   0.16281   0.64483   0.00000  Uiso   1.00
C495   C     0.60121   0.09259   0.50305   0.00000  Uiso   1.00
H496   H     0.34019   0.09767   0.57316   0.00000  Uiso   1.00
H497   H     0.52915   0.05654   0.90746   0.00000  Uiso   1.00
H498   H     0.61959   0.06333   0.97979   0.00000  Uiso   1.00
C499   C     0.60948   0.15153   0.58507   0.00000  Uiso   1.00
C500   C     0.35932   0.20101   0.94875   0.00000  Uiso   1.00
C501   C     0.38041   0.20812   0.50613   0.00000  Uiso   1.00
C502   C     0.43151   0.18642   0.53074   0.00000  Uiso   1.00
C503   C     0.46317   0.15852   0.99615   0.00000  Uiso   1.00
C504   C     0.43591   0.14371   0.94021   0.00000  Uiso   1.00
C505   C     0.52113   0.14542   0.51440   0.00000  Uiso   1.00
C506   C     0.54502   0.10785   0.98279   0.00000  Uiso   1.00
C507   C     0.51235   0.08617   0.93170   0.00000  Uiso   1.00
C508   C     0.45870   0.10444   0.91012   0.00000  Uiso   1.00
C509   C     0.55710   0.17082   0.56181   0.00000  Uiso   1.00
C510   C     0.63268   0.11316   0.55523   0.00000  Uiso   1.00
C511   C     0.38698   0.16919   0.91563   0.00000  Uiso   1.00
H512   H     0.54374   0.20423   0.58323   0.00000  Uiso   1.00
H513   H     0.65452   0.22032   0.93024   0.00000  Uiso   1.00
H514   H     0.35618   0.22976   0.53169   0.00000  Uiso   1.00
H515   H     0.43504   0.08712   0.86990   0.00000  Uiso   1.00
C516   C     0.35688   0.31974   0.75324   0.00000  Uiso   1.00
H517   H     0.39252   0.00213   0.73486   0.00000  Uiso   1.00
C518   C     0.64919   0.01566   0.76715   0.00000  Uiso   1.00
N519   N     0.47827   0.15223   0.73542   0.00000  Uiso   1.00
N520   N     0.52173   0.18110   0.76457   0.00000  Uiso   1.00
N521   N     0.60735   0.33098   0.79966   0.00000  Uiso   1.00
O522   O     0.55376   0.01014   0.78727   0.00000  Uiso   1.00
O523   O     0.62470   0.30784   0.84579   0.00000  Uiso   1.00
F524   F     0.49317   0.10768   0.71380   0.00000  Uiso   1.00
F525   F     0.50690   0.22322   0.79100   0.00000  Uiso   1.00
N526   N     0.44505   0.18569   0.59070   0.00000  Uiso   1.00
O527   O     0.45745   0.14213   0.61353   0.00000  Uiso   1.00
O528   O     0.43720   0.22589   0.62211   0.00000  Uiso   1.00
O529   O     0.96435   0.24629   0.75357   0.00000  Uiso   1.00
O530   O     0.72408   0.23704   0.74423   0.00000  Uiso   1.00
C531   C     0.68236   0.26496   0.75186   0.00000  Uiso   1.00
O532   O     0.98157   0.17358   0.83380   0.00000  Uiso   1.00
O533   O     0.74130   0.16433   0.82446   0.00000  Uiso   1.00
C534   C     0.70226   0.16839   0.85503   0.00000  Uiso   1.00
Zn535  Zn    0.93786   0.17284   0.75623   0.00000  Uiso   1.00
Zn536  Zn    0.72881   0.16049   0.74376   0.00000  Uiso   1.00
O537   O     0.94258   0.09629   0.75577   0.00000  Uiso   1.00
O538   O     0.70231   0.08704   0.74642   0.00000  Uiso   1.00
O539   O     0.92537   0.16901   0.67554   0.00000  Uiso   1.00
O540   O     0.68510   0.15976   0.66620   0.00000  Uiso   1.00
C541   C     0.98603   0.06866   0.75419   0.00000  Uiso   1.00
C542   C     0.96397   0.16281   0.64483   0.00000  Uiso   1.00
C543   C     0.93455   0.09259   0.50305   0.00000  Uiso   1.00
H544   H     0.67352   0.09767   0.57316   0.00000  Uiso   1.00
H545   H     0.86248   0.05654   0.90746   0.00000  Uiso   1.00
H546   H     0.95292   0.06333   0.97979   0.00000  Uiso   1.00
C547   C     0.94281   0.15153   0.58507   0.00000  Uiso   1.00
C548   C     0.69265   0.20101   0.94875   0.00000  Uiso   1.00
C549   C     0.71374   0.20812   0.50613   0.00000  Uiso   1.00
C550   C     0.76485   0.18642   0.53074   0.00000  Uiso   1.00
C551   C     0.79650   0.15852   0.99615   0.00000  Uiso   1.00
C552   C     0.76924   0.14371   0.94021   0.00000  Uiso   1.00
C553   C     0.85447   0.14542   0.51440   0.00000  Uiso   1.00
C554   C     0.87836   0.10785   0.98279   0.00000  Uiso   1.00
C555   C     0.84569   0.08617   0.93170   0.00000  Uiso   1.00
C556   C     0.79204   0.10444   0.91012   0.00000  Uiso   1.00
C557   C     0.89043   0.17082   0.56181   0.00000  Uiso   1.00
C558   C     0.96601   0.11316   0.55523   0.00000  Uiso   1.00
C559   C     0.72031   0.16919   0.91563   0.00000  Uiso   1.00
H560   H     0.87707   0.20423   0.58323   0.00000  Uiso   1.00
H561   H     0.98785   0.22032   0.93024   0.00000  Uiso   1.00
H562   H     0.68951   0.22976   0.53169   0.00000  Uiso   1.00
H563   H     0.76837   0.08712   0.86990   0.00000  Uiso   1.00
C564   C     0.69021   0.31974   0.75324   0.00000  Uiso   1.00
H565   H     0.72585   0.00213   0.73486   0.00000  Uiso   1.00
C566   C     0.98252   0.01566   0.76715   0.00000  Uiso   1.00
N567   N     0.81160   0.15223   0.73542   0.00000  Uiso   1.00
N568   N     0.85507   0.18110   0.76457   0.00000  Uiso   1.00
N569   N     0.94069   0.33098   0.79966   0.00000  Uiso   1.00
O570   O     0.88709   0.01014   0.78727   0.00000  Uiso   1.00
O571   O     0.95803   0.30784   0.84579   0.00000  Uiso   1.00
F572   F     0.82651   0.10768   0.71380   0.00000  Uiso   1.00
F573   F     0.84024   0.22322   0.79100   0.00000  Uiso   1.00
N574   N     0.77838   0.18569   0.59070   0.00000  Uiso   1.00
O575   O     0.79079   0.14213   0.61353   0.00000  Uiso   1.00
O576   O     0.77054   0.22589   0.62211   0.00000  Uiso   1.00
O577   O     0.29769   0.57963   0.75357   0.00000  Uiso   1.00
O578   O     0.05742   0.57038   0.74423   0.00000  Uiso   1.00
C579   C     0.01569   0.59829   0.75186   0.00000  Uiso   1.00
O580   O     0.31490   0.50691   0.83380   0.00000  Uiso   1.00
O581   O     0.07463   0.49766   0.82446   0.00000  Uiso   1.00
C582   C     0.03560   0.50172   0.85503   0.00000  Uiso   1.00
Zn583  Zn    0.27119   0.50618   0.75623   0.00000  Uiso   1.00
Zn584  Zn    0.06214   0.49382   0.74376   0.00000  Uiso   1.00
O585   O     0.27592   0.42962   0.75577   0.00000  Uiso   1.00
O586   O     0.03565   0.42037   0.74642   0.00000  Uiso   1.00
O587   O     0.25870   0.50234   0.67554   0.00000  Uiso   1.00
O588   O     0.01843   0.49309   0.66620   0.00000  Uiso   1.00
C589   C     0.31937   0.40199   0.75419   0.00000  Uiso   1.00
C590   C     0.29730   0.49614   0.64483   0.00000  Uiso   1.00
C591   C     0.26788   0.42592   0.50305   0.00000  Uiso   1.00
H592   H     0.00686   0.43100   0.57316   0.00000  Uiso   1.00
H593   H     0.19582   0.38987   0.90746   0.00000  Uiso   1.00
H594   H     0.28625   0.39666   0.97979   0.00000  Uiso   1.00
C595   C     0.27615   0.48486   0.58507   0.00000  Uiso   1.00
C596   C     0.02599   0.53435   0.94875   0.00000  Uiso   1.00
C597   C     0.04707   0.54145   0.50613   0.00000  Uiso   1.00
C598   C     0.09818   0.51975   0.53074   0.00000  Uiso   1.00
C599   C     0.12983   0.49185   0.99615   0.00000  Uiso   1.00
C600   C     0.10257   0.47704   0.94021   0.00000  Uiso   1.00
C601   C     0.18780   0.47875   0.51440   0.00000  Uiso   1.00
C602   C     0.21169   0.44119   0.98279   0.00000  Uiso   1.00
C603   C     0.17902   0.41951   0.93170   0.00000  Uiso   1.00
C604   C     0.12537   0.43777   0.91012   0.00000  Uiso   1.00
C605   C     0.22376   0.50416   0.56181   0.00000  Uiso   1.00
C606   C     0.29935   0.44649   0.55523   0.00000  Uiso   1.00
C607   C     0.05364   0.50252   0.91563   0.00000  Uiso   1.00
H608   H     0.21040   0.53756   0.58323   0.00000  Uiso   1.00
H609   H     0.32119   0.55365   0.93024   0.00000  Uiso   1.00
H610   H     0.02284   0.56310   0.53169   0.00000  Uiso   1.00
H611   H     0.10170   0.42045   0.86990   0.00000  Uiso   1.00
C612   C     0.02354   0.65308   0.75324   0.00000  Uiso   1.00
H613   H     0.05919   0.33546   0.73486   0.00000  Uiso   1.00
C614   C     0.31585   0.34900   0.76715   0.00000  Uiso   1.00
N615   N     0.14493   0.48556   0.73542   0.00000  Uiso   1.00
N616   N     0.18840   0.51444   0.76457   0.00000  Uiso   1.00
N617   N     0.27402   0.66431   0.79966   0.00000  Uiso   1.00
O618   O     0.22042   0.34348   0.78727   0.00000  Uiso   1.00
O619   O     0.29136   0.64118   0.84579   0.00000  Uiso   1.00
F620   F     0.15984   0.44101   0.71380   0.00000  Uiso   1.00
F621   F     0.17357   0.55656   0.79100   0.00000  Uiso   1.00
N622   N     0.11172   0.51902   0.59070   0.00000  Uiso   1.00
O623   O     0.12412   0.47546   0.61353   0.00000  Uiso   1.00
O624   O     0.10387   0.55922   0.62211   0.00000  Uiso   1.00
O625   O     0.63102   0.57963   0.75357   0.00000  Uiso   1.00
O626   O     0.39075   0.57038   0.74423   0.00000  Uiso   1.00
C627   C     0.34902   0.59829   0.75186   0.00000  Uiso   1.00
O628   O     0.64823   0.50691   0.83380   0.00000  Uiso   1.00
O629   O     0.40796   0.49766   0.82446   0.00000  Uiso   1.00
C630   C     0.36893   0.50172   0.85503   0.00000  Uiso   1.00
Zn631  Zn    0.60453   0.50618   0.75623   0.00000  Uiso   1.00
Zn632  Zn    0.39547   0.49382   0.74376   0.00000  Uiso   1.00
O633   O     0.60925   0.42962   0.75577   0.00000  Uiso   1.00
O634   O     0.36898   0.42037   0.74642   0.00000  Uiso   1.00
O635   O     0.59204   0.50234   0.67554   0.00000  Uiso   1.00
O636   O     0.35177   0.49309   0.66620   0.00000  Uiso   1.00
C637   C     0.65270   0.40199   0.75419   0.00000  Uiso   1.00
C638   C     0.63064   0.49614   0.64483   0.00000  Uiso   1.00
C639   C     0.60121   0.42592   0.50305   0.00000  Uiso   1.00
H640   H     0.34019   0.43100   0.57316   0.00000  Uiso   1.00
H641   H     0.52915   0.38987   0.90746   0.00000  Uiso   1.00
H642   H     0.61959   0.39666   0.97979   0.00000  Uiso   1.00
C643   C     0.60948   0.48486   0.58507   0.00000  Uiso   1.00
C644   C     0.35932   0.53435   0.94875   0.00000  Uiso   1.00
C645   C     0.38041   0.54145   0.50613   0.00000  Uiso   1.00
C646   C     0.43151   0.51975   0.53074   0.00000  Uiso   1.00
C647   C     0.46317   0.49185   0.99615   0.00000  Uiso   1.00
C648   C     0.43591   0.47704   0.94021   0.00000  Uiso   1.00
C649   C     0.52113   0.47875   0.51440   0.00000  Uiso   1.00
C650   C     0.54502   0.44119   0.98279   0.00000  Uiso   1.00
C651   C     0.51235   0.41951   0.93170   0.00000  Uiso   1.00
C652   C     0.45870   0.43777   0.91012   0.00000  Uiso   1.00
C653   C     0.55710   0.50416   0.56181   0.00000  Uiso   1.00
C654   C     0.63268   0.44649   0.55523   0.00000  Uiso   1.00
C655   C     0.38698   0.50252   0.91563   0.00000  Uiso   1.00
H656   H     0.54374   0.53756   0.58323   0.00000  Uiso   1.00
H657   H     0.65452   0.55365   0.93024   0.00000  Uiso   1.00
H658   H     0.35618   0.56310   0.53169   0.00000  Uiso   1.00
H659   H     0.43504   0.42045   0.86990   0.00000  Uiso   1.00
C660   C     0.35688   0.65308   0.75324   0.00000  Uiso   1.00
H661   H     0.39252   0.33546   0.73486   0.00000  Uiso   1.00
C662   C     0.64919   0.34900   0.76715   0.00000  Uiso   1.00
N663   N     0.47827   0.48556   0.73542   0.00000  Uiso   1.00
N664   N     0.52173   0.51444   0.76457   0.00000  Uiso   1.00
N665   N     0.60735   0.66431   0.79966   0.00000  Uiso   1.00
O666   O     0.55376   0.34348   0.78727   0.00000  Uiso   1.00
O667   O     0.62470   0.64118   0.84579   0.00000  Uiso   1.00
F668   F     0.49317   0.44101   0.71380   0.00000  Uiso   1.00
F669   F     0.50690   0.55656   0.79100   0.00000  Uiso   1.00
N670   N     0.44505   0.51902   0.59070   0.00000  Uiso   1.00
O671   O     0.45745   0.47546   0.61353   0.00000  Uiso   1.00
O672   O     0.43720   0.55922   0.62211   0.00000  Uiso   1.00
O673   O     0.96435   0.57963   0.75357   0.00000  Uiso   1.00
O674   O     0.72408   0.57038   0.74423   0.00000  Uiso   1.00
C675   C     0.68236   0.59829   0.75186   0.00000  Uiso   1.00
O676   O     0.98157   0.50691   0.83380   0.00000  Uiso   1.00
O677   O     0.74130   0.49766   0.82446   0.00000  Uiso   1.00
C678   C     0.70226   0.50172   0.85503   0.00000  Uiso   1.00
Zn679  Zn    0.93786   0.50618   0.75623   0.00000  Uiso   1.00
Zn680  Zn    0.72881   0.49382   0.74376   0.00000  Uiso   1.00
O681   O     0.94258   0.42962   0.75577   0.00000  Uiso   1.00
O682   O     0.70231   0.42037   0.74642   0.00000  Uiso   1.00
O683   O     0.92537   0.50234   0.67554   0.00000  Uiso   1.00
O684   O     0.68510   0.49309   0.66620   0.00000  Uiso   1.00
C685   C     0.98603   0.40199   0.75419   0.00000  Uiso   1.00
C686   C     0.96397   0.49614   0.64483   0.00000  Uiso   1.00
C687   C     0.93455   0.42592   0.50305   0.00000  Uiso   1.00
H688   H     0.67352   0.43100   0.57316   0.00000  Uiso   1.00
H689   H     0.86248   0.38987   0.90746   0.00000  Uiso   1.00
H690   H     0.95292   0.39666   0.97979   0.00000  Uiso   1.00
C691   C     0.94281   0.48486   0.58507   0.00000  Uiso   1.00
C692   C     0.69265   0.53435   0.94875   0.00000  Uiso   1.00
C693   C     0.71374   0.54145   0.50613   0.00000  Uiso   1.00
C694   C     0.76485   0.51975   0.53074   0.00000  Uiso   1.00
C695   C     0.79650   0.49185   0.99615   0.00000  Uiso   1.00
C696   C     0.76924   0.47704   0.94021   0.00000  Uiso   1.00
C697   C     0.85447   0.47875   0.51440   0.00000  Uiso   1.00
C698   C     0.87836   0.44119   0.98279   0.00000  Uiso   1.00
C699   C     0.84569   0.41951   0.93170   0.00000  Uiso   1.00
C700   C     0.79204   0.43777   0.91012   0.00000  Uiso   1.00
C701   C     0.89043   0.50416   0.56181   0.00000  Uiso   1.00
C702   C     0.96601   0.44649   0.55523   0.00000  Uiso   1.00
C703   C     0.72031   0.50252   0.91563   0.00000  Uiso   1.00
H704   H     0.87707   0.53756   0.58323   0.00000  Uiso   1.00
H705   H     0.98785   0.55365   0.93024   0.00000  Uiso   1.00
H706   H     0.68951   0.56310   0.53169   0.00000  Uiso   1.00
H707   H     0.76837   0.42045   0.86990   0.00000  Uiso   1.00
C708   C     0.69021   0.65308   0.75324   0.00000  Uiso   1.00
H709   H     0.72585   0.33546   0.73486   0.00000  Uiso   1.00
C710   C     0.98252   0.34900   0.76715   0.00000  Uiso   1.00
N711   N     0.81160   0.48556   0.73542   0.00000  Uiso   1.00
N712   N     0.85507   0.51444   0.76457   0.00000  Uiso   1.00
N713   N     0.94069   0.66431   0.79966   0.00000  Uiso   1.00
O714   O     0.88709   0.34348   0.78727   0.00000  Uiso   1.00
O715   O     0.95803   0.64118   0.84579   0.00000  Uiso   1.00
F716   F     0.82651   0.44101   0.71380   0.00000  Uiso   1.00
F717   F     0.84024   0.55656   0.79100   0.00000  Uiso   1.00
N718   N     0.77838   0.51902   0.59070   0.00000  Uiso   1.00
O719   O     0.79079   0.47546   0.61353   0.00000  Uiso   1.00
O720   O     0.77054   0.55922   0.62211   0.00000  Uiso   1.00
O721   O     0.29769   0.91296   0.75357   0.00000  Uiso   1.00
O722   O     0.05742   0.90371   0.74423   0.00000  Uiso   1.00
C723   C     0.01569   0.93163   0.75186   0.00000  Uiso   1.00
O724   O     0.31490   0.84024   0.83380   0.00000  Uiso   1.00
O725   O     0.07463   0.83099   0.82446   0.00000  Uiso   1.00
C726   C     0.03560   0.83505   0.85503   0.00000  Uiso   1.00
Zn727  Zn    0.27119   0.83951   0.75623   0.00000  Uiso   1.00
Zn728  Zn    0.06214   0.82716   0.74376   0.00000  Uiso   1.00
O729   O     0.27592   0.76296   0.75577   0.00000  Uiso   1.00
O730   O     0.03565   0.75371   0.74642   0.00000  Uiso   1.00
O731   O     0.25870   0.83567   0.67554   0.00000  Uiso   1.00
O732   O     0.01843   0.82642   0.66620   0.00000  Uiso   1.00
C733   C     0.31937   0.73533   0.75419   0.00000  Uiso   1.00
C734   C     0.29730   0.82948   0.64483   0.00000  Uiso   1.00
C735   C     0.26788   0.75925   0.50305   0.00000  Uiso   1.00
H736   H     0.00686   0.76434   0.57316   0.00000  Uiso   1.00
H737   H     0.19582   0.72321   0.90746   0.00000  Uiso   1.00
H738   H     0.28625   0.72999   0.97979   0.00000  Uiso   1.00
C739   C     0.27615   0.81819   0.58507   0.00000  Uiso   1.00
C740   C     0.02599   0.86768   0.94875   0.00000  Uiso   1.00
C741   C     0.04707   0.87478   0.50613   0.00000  Uiso   1.00
C742   C     0.09818   0.85309   0.53074   0.00000  Uiso   1.00
C743   C     0.12983   0.82519   0.99615   0.00000  Uiso   1.00
C744   C     0.10257   0.81038   0.94021   0.00000  Uiso   1.00
C745   C     0.18780   0.81208   0.51440   0.00000  Uiso   1.00
C746   C     0.21169   0.77452   0.98279   0.00000  Uiso   1.00
C747   C     0.17902   0.75284   0.93170   0.00000  Uiso   1.00
C748   C     0.12537   0.77111   0.91012   0.00000  Uiso   1.00
C749   C     0.22376   0.83749   0.56181   0.00000  Uiso   1.00
C750   C     0.29935   0.77983   0.55523   0.00000  Uiso   1.00
C751   C     0.05364   0.83586   0.91563   0.00000  Uiso   1.00
H752   H     0.21040   0.87089   0.58323   0.00000  Uiso   1.00
H753   H     0.32119   0.88698   0.93024   0.00000  Uiso   1.00
H754   H     0.02284   0.89643   0.53169   0.00000  Uiso   1.00
H755   H     0.10170   0.75379   0.86990   0.00000  Uiso   1.00
C756   C     0.02354   0.98641   0.75324   0.00000  Uiso   1.00
H757   H     0.05919   0.66880   0.73486   0.00000  Uiso   1.00
C758   C     0.31585   0.68233   0.76715   0.00000  Uiso   1.00
N759   N     0.14493   0.81890   0.73542   0.00000  Uiso   1.00
N760   N     0.18840   0.84777   0.76457   0.00000  Uiso   1.00
N761   N     0.27402   0.99765   0.79966   0.00000  Uiso   1.00
O762   O     0.22042   0.67681   0.78727   0.00000  Uiso   1.00
O763   O     0.29136   0.97451   0.84579   0.00000  Uiso   1.00
F764   F     0.15984   0.77435   0.71380   0.00000  Uiso   1.00
F765   F     0.17357   0.88989   0.79100   0.00000  Uiso   1.00
N766   N     0.11172   0.85235   0.59070   0.00000  Uiso   1.00
O767   O     0.12412   0.80880   0.61353   0.00000  Uiso   1.00
O768   O     0.10387   0.89256   0.62211   0.00000  Uiso   1.00
O769   O     0.63102   0.91296   0.75357   0.00000  Uiso   1.00
O770   O     0.39075   0.90371   0.74423   0.00000  Uiso   1.00
C771   C     0.34902   0.93163   0.75186   0.00000  Uiso   1.00
O772   O     0.64823   0.84024   0.83380   0.00000  Uiso   1.00
O773   O     0.40796   0.83099   0.82446   0.00000  Uiso   1.00
C774   C     0.36893   0.83505   0.85503   0.00000  Uiso   1.00
Zn775  Zn    0.60453   0.83951   0.75623   0.00000  Uiso   1.00
Zn776  Zn    0.39547   0.82716   0.74376   0.00000  Uiso   1.00
O777   O     0.60925   0.76296   0.75577   0.00000  Uiso   1.00
O778   O     0.36898   0.75371   0.74642   0.00000  Uiso   1.00
O779   O     0.59204   0.83567   0.67554   0.00000  Uiso   1.00
O780   O     0.35177   0.82642   0.66620   0.00000  Uiso   1.00
C781   C     0.65270   0.73533   0.75419   0.00000  Uiso   1.00
C782   C     0.63064   0.82948   0.64483   0.00000  Uiso   1.00
C783   C     0.60121   0.75925   0.50305   0.00000  Uiso   1.00
H784   H     0.34019   0.76434   0.57316   0.00000  Uiso   1.00
H785   H     0.52915   0.72321   0.90746   0.00000  Uiso   1.00
H786   H     0.61959   0.72999   0.97979   0.00000  Uiso   1.00
C787   C     0.60948   0.81819   0.58507   0.00000  Uiso   1.00
C788   C     0.35932   0.86768   0.94875   0.00000  Uiso   1.00
C789   C     0.38041   0.87478   0.50613   0.00000  Uiso   1.00
C790   C     0.43151   0.85309   0.53074   0.00000  Uiso   1.00
C791   C     0.46317   0.82519   0.99615   0.00000  Uiso   1.00
C792   C     0.43591   0.81038   0.94021   0.00000  Uiso   1.00
C793   C     0.52113   0.81208   0.51440   0.00000  Uiso   1.00
C794   C     0.54502   0.77452   0.98279   0.00000  Uiso   1.00
C795   C     0.51235   0.75284   0.93170   0.00000  Uiso   1.00
C796   C     0.45870   0.77111   0.91012   0.00000  Uiso   1.00
C797   C     0.55710   0.83749   0.56181   0.00000  Uiso   1.00
C798   C     0.63268   0.77983   0.55523   0.00000  Uiso   1.00
C799   C     0.38698   0.83586   0.91563   0.00000  Uiso   1.00
H800   H     0.54374   0.87089   0.58323   0.00000  Uiso   1.00
H801   H     0.65452   0.88698   0.93024   0.00000  Uiso   1.00
H802   H     0.35618   0.89643   0.53169   0.00000  Uiso   1.00
H803   H     0.43504   0.75379   0.86990   0.00000  Uiso   1.00
C804   C     0.35688   0.98641   0.75324   0.00000  Uiso   1.00
H805   H     0.39252   0.66880   0.73486   0.00000  Uiso   1.00
C806   C     0.64919   0.68233   0.76715   0.00000  Uiso   1.00
N807   N     0.47827   0.81890   0.73542   0.00000  Uiso   1.00
N808   N     0.52173   0.84777   0.76457   0.00000  Uiso   1.00
N809   N     0.60735   0.99765   0.79966   0.00000  Uiso   1.00
O810   O     0.55376   0.67681   0.78727   0.00000  Uiso   1.00
O811   O     0.62470   0.97451   0.84579   0.00000  Uiso   1.00
F812   F     0.49317   0.77435   0.71380   0.00000  Uiso   1.00
F813   F     0.50690   0.88989   0.79100   0.00000  Uiso   1.00
N814   N     0.44505   0.85235   0.59070   0.00000  Uiso   1.00
O815   O     0.45745   0.80880   0.61353   0.00000  Uiso   1.00
O816   O     0.43720   0.89256   0.62211   0.00000  Uiso   1.00
O817   O     0.96435   0.91296   0.75357   0.00000  Uiso   1.00
O818   O     0.72408   0.90371   0.74423   0.00000  Uiso   1.00
C819   C     0.68236   0.93163   0.75186   0.00000  Uiso   1.00
O820   O     0.98157   0.84024   0.83380   0.00000  Uiso   1.00
O821   O     0.74130   0.83099   0.82446   0.00000  Uiso   1.00
C822   C     0.70226   0.83505   0.85503   0.00000  Uiso   1.00
Zn823  Zn    0.93786   0.83951   0.75623   0.00000  Uiso   1.00
Zn824  Zn    0.72881   0.82716   0.74376   0.00000  Uiso   1.00
O825   O     0.94258   0.76296   0.75577   0.00000  Uiso   1.00
O826   O     0.70231   0.75371   0.74642   0.00000  Uiso   1.00
O827   O     0.92537   0.83567   0.67554   0.00000  Uiso   1.00
O828   O     0.68510   0.82642   0.66620   0.00000  Uiso   1.00
C829   C     0.98603   0.73533   0.75419   0.00000  Uiso   1.00
C830   C     0.96397   0.82948   0.64483   0.00000  Uiso   1.00
C831   C     0.93455   0.75925   0.50305   0.00000  Uiso   1.00
H832   H     0.67352   0.76434   0.57316   0.00000  Uiso   1.00
H833   H     0.86248   0.72321   0.90746   0.00000  Uiso   1.00
H834   H     0.95292   0.72999   0.97979   0.00000  Uiso   1.00
C835   C     0.94281   0.81819   0.58507   0.00000  Uiso   1.00
C836   C     0.69265   0.86768   0.94875   0.00000  Uiso   1.00
C837   C     0.71374   0.87478   0.50613   0.00000  Uiso   1.00
C838   C     0.76485   0.85309   0.53074   0.00000  Uiso   1.00
C839   C     0.79650   0.82519   0.99615   0.00000  Uiso   1.00
C840   C     0.76924   0.81038   0.94021   0.00000  Uiso   1.00
C841   C     0.85447   0.81208   0.51440   0.00000  Uiso   1.00
C842   C     0.87836   0.77452   0.98279   0.00000  Uiso   1.00
C843   C     0.84569   0.75284   0.93170   0.00000  Uiso   1.00
C844   C     0.79204   0.77111   0.91012   0.00000  Uiso   1.00
C845   C     0.89043   0.83749   0.56181   0.00000  Uiso   1.00
C846   C     0.96601   0.77983   0.55523   0.00000  Uiso   1.00
C847   C     0.72031   0.83586   0.91563   0.00000  Uiso   1.00
H848   H     0.87707   0.87089   0.58323   0.00000  Uiso   1.00
H849   H     0.98785   0.88698   0.93024   0.00000  Uiso   1.00
H850   H     0.68951   0.89643   0.53169   0.00000  Uiso   1.00
H851   H     0.76837   0.75379   0.86990   0.00000  Uiso   1.00
C852   C     0.69021   0.98641   0.75324   0.00000  Uiso   1.00
H853   H     0.72585   0.66880   0.73486   0.00000  Uiso   1.00
C854   C     0.98252   0.68233   0.76715   0.00000  Uiso   1.00
N855   N     0.81160   0.81890   0.73542   0.00000  Uiso   1.00
N856   N     0.85507   0.84777   0.76457   0.00000  Uiso   1.00
N857   N     0.94069   0.99765   0.79966   0.00000  Uiso   1.00
O858   O     0.88709   0.67681   0.78727   0.00000  Uiso   1.00
O859   O     0.95803   0.97451   0.84579   0.00000  Uiso   1.00
F860   F     0.82651   0.77435   0.71380   0.00000  Uiso   1.00
F861   F     0.84024   0.88989   0.79100   0.00000  Uiso   1.00
N862   N     0.77838   0.85235   0.59070   0.00000  Uiso   1.00
O863   O     0.79079   0.80880   0.61353   0.00000  Uiso   1.00
O864   O     0.77054   0.89256   0.62211   0.00000  Uiso   1.00
loop_
_geom_bond_atom_site_label_1
_geom_bond_atom_site_label_2
_geom_bond_distance
_geom_bond_site_symmetry_2
_ccdc_geom_bond_type
O1     Zn7     1.954   .     S
O1     C51     1.275   .     S
O2     C3      1.292   .     A
O2     Zn8     1.978   .     S
C3     C36     1.405   .     S
C3     O97     1.275   1_455 S
O4     Zn7     1.959   .     S
O4     C54     1.290   .     S
O5     Zn8     1.923   .     S
O5     C6      1.297   .     A
C6     C31     1.450   .     S
C6     O100    1.290   1_455 S
Zn7    N40     2.020   .     S
Zn7    O11     1.923   .     S
Zn7    O9      1.978   .     S
Zn8    N39     2.020   .     S
Zn8    O12     1.959   .     S
Zn8    O10     1.954   .     S
O9     C13     1.289   .     A
O10    C109    1.279   1_455 S
O11    C14     1.298   .     A
O12    C110    1.291   1_455 S
C13    C38     1.413   .     S
C13    O58     1.279   .     S
C14    C19     1.448   .     S
C14    O60     1.291   .     S
C15    C30     1.394   .     A
C15    H450    1.084   1_554 S
C15    C458    1.404   1_554 S
H16    C126    1.083   1_455 S
H17    C27     1.084   .     S
H18    C447    1.084   .     S
C19    C30     1.401   .     A
C19    C29     1.384   .     A
C20    C31     1.400   .     A
C20    C453    1.384   .     S
C20    H129    1.084   1_455 S
C21    C22     1.396   .     A
C21    H34     1.083   .     S
C21    C452    1.384   1_554 S
C22    N46     1.431   .     S
C22    C455    1.429   1_554 S
C23    C24     1.406   .     A
C23    C454    1.429   .     S
C23    C457    1.415   .     S
C24    C31     1.406   .     A
C24    C28     1.416   .     A
C25    C29     1.390   .     A
C25    C455    1.415   1_554 S
C25    C458    1.420   1_554 S
C26    C27     1.392   .     A
C26    C447    1.404   .     S
C26    C457    1.420   .     S
C27    C28     1.388   .     A
C28    H35     1.082   .     S
C29    H32     1.081   .     S
C30    H64     1.083   .     S
H33    C68     1.084   .     S
C36    H181    1.088   .     S
C36    C278    1.348   1_455 S
H37    C324    1.088   1_545 S
C38    C372    1.348   1_545 S
C38    N329    1.445   1_545 S
N39    F44     1.335   .     S
N39    N40     1.285   .     D
N40    F45     1.335   .     S
N41    O43     1.302   .     A
N41    C182    1.445   .     S
N41    O186    1.301   .     S
O42    N329    1.301   1_545 S
N46    O48     1.301   .     A
N46    O47     1.299   .     A
O49    Zn55    1.954   .     S
O49    C99     1.275   .     S
O50    C51     1.292   .     A
O50    Zn56    1.978   .     S
C51    C84     1.405   .     S
O52    Zn55    1.959   .     S
O52    C102    1.290   .     S
O53    Zn56    1.923   .     S
O53    C54     1.297   .     A
C54    C79     1.450   .     S
Zn55   N88     2.020   .     S
Zn55   O59     1.923   .     S
Zn55   O57     1.978   .     S
Zn56   N87     2.020   .     S
Zn56   O60     1.959   .     S
Zn56   O58     1.954   .     S
O57    C61     1.289   .     A
O59    C62     1.298   .     A
C61    C86     1.413   .     S
C61    O106    1.279   .     S
C62    C67     1.448   .     S
C62    O108    1.291   .     S
C63    C78     1.394   .     A
C63    H498    1.084   1_554 S
C63    C506    1.404   1_554 S
H65    C75     1.084   .     S
H66    C495    1.084   .     S
C67    C78     1.401   .     A
C67    C77     1.384   .     A
C68    C79     1.400   .     A
C68    C501    1.384   .     S
C69    C70     1.396   .     A
C69    H82     1.083   .     S
C69    C500    1.384   1_554 S
C70    N94     1.431   .     S
C70    C503    1.429   1_554 S
C71    C72     1.406   .     A
C71    C502    1.429   .     S
C71    C505    1.415   .     S
C72    C79     1.406   .     A
C72    C76     1.416   .     A
C73    C77     1.390   .     A
C73    C503    1.415   1_554 S
C73    C506    1.420   1_554 S
C74    C75     1.392   .     A
C74    C495    1.404   .     S
C74    C505    1.420   .     S
C75    C76     1.388   .     A
C76    H83     1.082   .     S
C77    H80     1.081   .     S
C78    H112    1.083   .     S
H81    C116    1.084   .     S
C84    H229    1.088   .     S
C84    C182    1.348   .     S
H85    C372    1.088   1_545 S
C86    C420    1.348   1_545 S
C86    N377    1.445   1_545 S
N87    F92     1.335   .     S
N87    N88     1.285   .     D
N88    F93     1.335   .     S
N89    O91     1.302   .     A
N89    C230    1.445   .     S
N89    O234    1.301   .     S
O90    N377    1.301   1_545 S
N94    O96     1.301   .     A
N94    O95     1.299   .     A
O97    Zn103   1.954   .     S
O97    C3      1.275   1_655 S
O98    C99     1.292   .     A
O98    Zn104   1.978   .     S
C99    C132    1.405   .     S
O100   Zn103   1.959   .     S
O100   C6      1.290   1_655 S
O101   Zn104   1.923   .     S
O101   C102    1.297   .     A
C102   C127    1.450   .     S
Zn103  N136    2.020   .     S
Zn103  O107    1.923   .     S
Zn103  O105    1.978   .     S
Zn104  N135    2.020   .     S
Zn104  O108    1.959   .     S
Zn104  O106    1.954   .     S
O105   C109    1.289   .     A
O107   C110    1.298   .     A
C109   C134    1.413   .     S
C109   O10     1.279   1_655 S
C110   C115    1.448   .     S
C110   O12     1.291   1_655 S
C111   C126    1.394   .     A
C111   H546    1.084   1_554 S
C111   C554    1.404   1_554 S
H113   C123    1.084   .     S
H114   C543    1.084   .     S
C115   C126    1.401   .     A
C115   C125    1.384   .     A
C116   C127    1.400   .     A
C116   C549    1.384   .     S
C117   C118    1.396   .     A
C117   H130    1.083   .     S
C117   C548    1.384   1_554 S
C118   N142    1.431   .     S
C118   C551    1.429   1_554 S
C119   C120    1.406   .     A
C119   C550    1.429   .     S
C119   C553    1.415   .     S
C120   C127    1.406   .     A
C120   C124    1.416   .     A
C121   C125    1.390   .     A
C121   C551    1.415   1_554 S
C121   C554    1.420   1_554 S
C122   C123    1.392   .     A
C122   C543    1.404   .     S
C122   C553    1.420   .     S
C123   C124    1.388   .     A
C124   H131    1.082   .     S
C125   H128    1.081   .     S
C126   H16     1.083   1_655 S
H129   C20     1.084   1_655 S
C132   H277    1.088   .     S
C132   C230    1.348   .     S
H133   C420    1.088   1_545 S
C134   C324    1.348   1_645 S
C134   N425    1.445   1_545 S
N135   F140    1.335   .     S
N135   N136    1.285   .     D
N136   F141    1.335   .     S
N137   O139    1.302   .     A
N137   C278    1.445   .     S
N137   O282    1.301   .     S
O138   N425    1.301   1_545 S
N142   O144    1.301   .     A
N142   O143    1.299   .     A
O145   Zn151   1.954   .     S
O145   C195    1.275   .     S
O146   C147    1.292   .     A
O146   Zn152   1.978   .     S
C147   C180    1.405   .     S
C147   O241    1.275   1_455 S
O148   Zn151   1.959   .     S
O148   C198    1.290   .     S
O149   Zn152   1.923   .     S
O149   C150    1.297   .     A
C150   C175    1.450   .     S
C150   O244    1.290   1_455 S
Zn151  N184    2.020   .     S
Zn151  O155    1.923   .     S
Zn151  O153    1.978   .     S
Zn152  N183    2.020   .     S
Zn152  O156    1.959   .     S
Zn152  O154    1.954   .     S
O153   C157    1.289   .     A
O154   C253    1.279   1_455 S
O155   C158    1.298   .     A
O156   C254    1.291   1_455 S
C157   C182    1.413   .     S
C157   O202    1.279   .     S
C158   C163    1.448   .     S
C158   O204    1.291   .     S
C159   C174    1.394   .     A
C159   H594    1.084   1_554 S
C159   C602    1.404   1_554 S
H160   C270    1.083   1_455 S
H161   C171    1.084   .     S
H162   C591    1.084   .     S
C163   C174    1.401   .     A
C163   C173    1.384   .     A
C164   C175    1.400   .     A
C164   C597    1.384   .     S
C164   H273    1.084   1_455 S
C165   C166    1.396   .     A
C165   H178    1.083   .     S
C165   C596    1.384   1_554 S
C166   N190    1.431   .     S
C166   C599    1.429   1_554 S
C167   C168    1.406   .     A
C167   C598    1.429   .     S
C167   C601    1.415   .     S
C168   C175    1.406   .     A
C168   C172    1.416   .     A
C169   C173    1.390   .     A
C169   C599    1.415   1_554 S
C169   C602    1.420   1_554 S
C170   C171    1.392   .     A
C170   C591    1.404   .     S
C170   C601    1.420   .     S
C171   C172    1.388   .     A
C172   H179    1.082   .     S
C173   H176    1.081   .     S
C174   H208    1.083   .     S
H177   C212    1.084   .     S
C180   H325    1.088   .     S
C180   C422    1.348   1_455 S
N183   F188    1.335   .     S
N183   N184    1.285   .     D
N184   F189    1.335   .     S
N185   O187    1.302   .     A
N185   C326    1.445   .     S
N185   O330    1.301   .     S
N190   O192    1.301   .     A
N190   O191    1.299   .     A
O193   Zn199   1.954   .     S
O193   C243    1.275   .     S
O194   C195    1.292   .     A
O194   Zn200   1.978   .     S
C195   C228    1.405   .     S
O196   Zn199   1.959   .     S
O196   C246    1.290   .     S
O197   Zn200   1.923   .     S
O197   C198    1.297   .     A
C198   C223    1.450   .     S
Zn199  N232    2.020   .     S
Zn199  O203    1.923   .     S
Zn199  O201    1.978   .     S
Zn200  N231    2.020   .     S
Zn200  O204    1.959   .     S
Zn200  O202    1.954   .     S
O201   C205    1.289   .     A
O203   C206    1.298   .     A
C205   C230    1.413   .     S
C205   O250    1.279   .     S
C206   C211    1.448   .     S
C206   O252    1.291   .     S
C207   C222    1.394   .     A
C207   H642    1.084   1_554 S
C207   C650    1.404   1_554 S
H209   C219    1.084   .     S
H210   C639    1.084   .     S
C211   C222    1.401   .     A
C211   C221    1.384   .     A
C212   C223    1.400   .     A
C212   C645    1.384   .     S
C213   C214    1.396   .     A
C213   H226    1.083   .     S
C213   C644    1.384   1_554 S
C214   N238    1.431   .     S
C214   C647    1.429   1_554 S
C215   C216    1.406   .     A
C215   C646    1.429   .     S
C215   C649    1.415   .     S
C216   C223    1.406   .     A
C216   C220    1.416   .     A
C217   C221    1.390   .     A
C217   C647    1.415   1_554 S
C217   C650    1.420   1_554 S
C218   C219    1.392   .     A
C218   C639    1.404   .     S
C218   C649    1.420   .     S
C219   C220    1.388   .     A
C220   H227    1.082   .     S
C221   H224    1.081   .     S
C222   H256    1.083   .     S
H225   C260    1.084   .     S
C228   H373    1.088   .     S
C228   C326    1.348   .     S
N231   F236    1.335   .     S
N231   N232    1.285   .     D
N232   F237    1.335   .     S
N233   O235    1.302   .     A
N233   C374    1.445   .     S
N233   O378    1.301   .     S
N238   O240    1.301   .     A
N238   O239    1.299   .     A
O241   Zn247   1.954   .     S
O241   C147    1.275   1_655 S
O242   C243    1.292   .     A
O242   Zn248   1.978   .     S
C243   C276    1.405   .     S
O244   Zn247   1.959   .     S
O244   C150    1.290   1_655 S
O245   Zn248   1.923   .     S
O245   C246    1.297   .     A
C246   C271    1.450   .     S
Zn247  N280    2.020   .     S
Zn247  O251    1.923   .     S
Zn247  O249    1.978   .     S
Zn248  N279    2.020   .     S
Zn248  O252    1.959   .     S
Zn248  O250    1.954   .     S
O249   C253    1.289   .     A
O251   C254    1.298   .     A
C253   C278    1.413   .     S
C253   O154    1.279   1_655 S
C254   C259    1.448   .     S
C254   O156    1.291   1_655 S
C255   C270    1.394   .     A
C255   H690    1.084   1_554 S
C255   C698    1.404   1_554 S
H257   C267    1.084   .     S
H258   C687    1.084   .     S
C259   C270    1.401   .     A
C259   C269    1.384   .     A
C260   C271    1.400   .     A
C260   C693    1.384   .     S
C261   C262    1.396   .     A
C261   H274    1.083   .     S
C261   C692    1.384   1_554 S
C262   N286    1.431   .     S
C262   C695    1.429   1_554 S
C263   C264    1.406   .     A
C263   C694    1.429   .     S
C263   C697    1.415   .     S
C264   C271    1.406   .     A
C264   C268    1.416   .     A
C265   C269    1.390   .     A
C265   C695    1.415   1_554 S
C265   C698    1.420   1_554 S
C266   C267    1.392   .     A
C266   C687    1.404   .     S
C266   C697    1.420   .     S
C267   C268    1.388   .     A
C268   H275    1.082   .     S
C269   H272    1.081   .     S
C270   H160    1.083   1_655 S
H273   C164    1.084   1_655 S
C276   H421    1.088   .     S
C276   C374    1.348   .     S
C278   C36     1.348   1_655 S
N279   F284    1.335   .     S
N279   N280    1.285   .     D
N280   F285    1.335   .     S
N281   O283    1.302   .     A
N281   C422    1.445   .     S
N281   O426    1.301   .     S
N286   O288    1.301   .     A
N286   O287    1.299   .     A
O289   Zn295   1.954   .     S
O289   C339    1.275   .     S
O290   C291    1.292   .     A
O290   Zn296   1.978   .     S
C291   C324    1.405   .     S
C291   O385    1.275   1_455 S
O292   Zn295   1.959   .     S
O292   C342    1.290   .     S
O293   Zn296   1.923   .     S
O293   C294    1.297   .     A
C294   C319    1.450   .     S
C294   O388    1.290   1_455 S
Zn295  N328    2.020   .     S
Zn295  O299    1.923   .     S
Zn295  O297    1.978   .     S
Zn296  N327    2.020   .     S
Zn296  O300    1.959   .     S
Zn296  O298    1.954   .     S
O297   C301    1.289   .     A
O298   C397    1.279   1_455 S
O299   C302    1.298   .     A
O300   C398    1.291   1_455 S
C301   C326    1.413   .     S
C301   O346    1.279   .     S
C302   C307    1.448   .     S
C302   O348    1.291   .     S
C303   C318    1.394   .     A
C303   H738    1.084   1_554 S
C303   C746    1.404   1_554 S
H304   C414    1.083   1_455 S
H305   C315    1.084   .     S
H306   C735    1.084   .     S
C307   C318    1.401   .     A
C307   C317    1.384   .     A
C308   C319    1.400   .     A
C308   C741    1.384   .     S
C308   H417    1.084   1_455 S
C309   C310    1.396   .     A
C309   H322    1.083   .     S
C309   C740    1.384   1_554 S
C310   N334    1.431   .     S
C310   C743    1.429   1_554 S
C311   C312    1.406   .     A
C311   C742    1.429   .     S
C311   C745    1.415   .     S
C312   C319    1.406   .     A
C312   C316    1.416   .     A
C313   C317    1.390   .     A
C313   C743    1.415   1_554 S
C313   C746    1.420   1_554 S
C314   C315    1.392   .     A
C314   C735    1.404   .     S
C314   C745    1.420   .     S
C315   C316    1.388   .     A
C316   H323    1.082   .     S
C317   H320    1.081   .     S
C318   H352    1.083   .     S
H321   C356    1.084   .     S
C324   H37     1.088   1_565 S
C324   C134    1.348   1_465 S
N327   F332    1.335   .     S
N327   N328    1.285   .     D
N328   F333    1.335   .     S
N329   O331    1.302   .     A
N329   C38     1.445   1_565 S
N329   O42     1.301   1_565 S
N334   O336    1.301   .     A
N334   O335    1.299   .     A
O337   Zn343   1.954   .     S
O337   C387    1.275   .     S
O338   C339    1.292   .     A
O338   Zn344   1.978   .     S
C339   C372    1.405   .     S
O340   Zn343   1.959   .     S
O340   C390    1.290   .     S
O341   Zn344   1.923   .     S
O341   C342    1.297   .     A
C342   C367    1.450   .     S
Zn343  N376    2.020   .     S
Zn343  O347    1.923   .     S
Zn343  O345    1.978   .     S
Zn344  N375    2.020   .     S
Zn344  O348    1.959   .     S
Zn344  O346    1.954   .     S
O345   C349    1.289   .     A
O347   C350    1.298   .     A
C349   C374    1.413   .     S
C349   O394    1.279   .     S
C350   C355    1.448   .     S
C350   O396    1.291   .     S
C351   C366    1.394   .     A
C351   H786    1.084   1_554 S
C351   C794    1.404   1_554 S
H353   C363    1.084   .     S
H354   C783    1.084   .     S
C355   C366    1.401   .     A
C355   C365    1.384   .     A
C356   C367    1.400   .     A
C356   C789    1.384   .     S
C357   C358    1.396   .     A
C357   H370    1.083   .     S
C357   C788    1.384   1_554 S
C358   N382    1.431   .     S
C358   C791    1.429   1_554 S
C359   C360    1.406   .     A
C359   C790    1.429   .     S
C359   C793    1.415   .     S
C360   C367    1.406   .     A
C360   C364    1.416   .     A
C361   C365    1.390   .     A
C361   C791    1.415   1_554 S
C361   C794    1.420   1_554 S
C362   C363    1.392   .     A
C362   C783    1.404   .     S
C362   C793    1.420   .     S
C363   C364    1.388   .     A
C364   H371    1.082   .     S
C365   H368    1.081   .     S
C366   H400    1.083   .     S
H369   C404    1.084   .     S
C372   H85     1.088   1_565 S
C372   C38     1.348   1_565 S
N375   F380    1.335   .     S
N375   N376    1.285   .     D
N376   F381    1.335   .     S
N377   O379    1.302   .     A
N377   C86     1.445   1_565 S
N377   O90     1.301   1_565 S
N382   O384    1.301   .     A
N382   O383    1.299   .     A
O385   Zn391   1.954   .     S
O385   C291    1.275   1_655 S
O386   C387    1.292   .     A
O386   Zn392   1.978   .     S
C387   C420    1.405   .     S
O388   Zn391   1.959   .     S
O388   C294    1.290   1_655 S
O389   Zn392   1.923   .     S
O389   C390    1.297   .     A
C390   C415    1.450   .     S
Zn391  N424    2.020   .     S
Zn391  O395    1.923   .     S
Zn391  O393    1.978   .     S
Zn392  N423    2.020   .     S
Zn392  O396    1.959   .     S
Zn392  O394    1.954   .     S
O393   C397    1.289   .     A
O395   C398    1.298   .     A
C397   C422    1.413   .     S
C397   O298    1.279   1_655 S
C398   C403    1.448   .     S
C398   O300    1.291   1_655 S
C399   C414    1.394   .     A
C399   H834    1.084   1_554 S
C399   C842    1.404   1_554 S
H401   C411    1.084   .     S
H402   C831    1.084   .     S
C403   C414    1.401   .     A
C403   C413    1.384   .     A
C404   C415    1.400   .     A
C404   C837    1.384   .     S
C405   C406    1.396   .     A
C405   H418    1.083   .     S
C405   C836    1.384   1_554 S
C406   N430    1.431   .     S
C406   C839    1.429   1_554 S
C407   C408    1.406   .     A
C407   C838    1.429   .     S
C407   C841    1.415   .     S
C408   C415    1.406   .     A
C408   C412    1.416   .     A
C409   C413    1.390   .     A
C409   C839    1.415   1_554 S
C409   C842    1.420   1_554 S
C410   C411    1.392   .     A
C410   C831    1.404   .     S
C410   C841    1.420   .     S
C411   C412    1.388   .     A
C412   H419    1.082   .     S
C413   H416    1.081   .     S
C414   H304    1.083   1_655 S
H417   C308    1.084   1_655 S
C420   H133    1.088   1_565 S
C420   C86     1.348   1_565 S
C422   C180    1.348   1_655 S
N423   F428    1.335   .     S
N423   N424    1.285   .     D
N424   F429    1.335   .     S
N425   O427    1.302   .     A
N425   C134    1.445   1_565 S
N425   O138    1.301   1_565 S
N430   O432    1.301   .     A
N430   O431    1.299   .     A
O433   Zn439   1.954   .     S
O433   C483    1.275   .     S
O434   C435    1.292   .     A
O434   Zn440   1.978   .     S
C435   C468    1.405   .     S
C435   O529    1.275   1_455 S
O436   Zn439   1.959   .     S
O436   C486    1.290   .     S
O437   Zn440   1.923   .     S
O437   C438    1.297   .     A
C438   C463    1.450   .     S
C438   O532    1.290   1_455 S
Zn439  N472    2.020   .     S
Zn439  O443    1.923   .     S
Zn439  O441    1.978   .     S
Zn440  N471    2.020   .     S
Zn440  O444    1.959   .     S
Zn440  O442    1.954   .     S
O441   C445    1.289   .     A
O442   C541    1.279   1_455 S
O443   C446    1.298   .     A
O444   C542    1.291   1_455 S
C445   C470    1.413   .     S
C445   O490    1.279   .     S
C446   C451    1.448   .     S
C446   O492    1.291   .     S
C447   C462    1.394   .     A
H448   C558    1.083   1_455 S
H449   C459    1.084   .     S
H450   C15     1.084   1_556 S
C451   C462    1.401   .     A
C451   C461    1.384   .     A
C452   C463    1.400   .     A
C452   C21     1.384   1_556 S
C452   H561    1.084   1_455 S
C453   C454    1.396   .     A
C453   H466    1.083   .     S
C454   N478    1.431   .     S
C455   C456    1.406   .     A
C455   C22     1.429   1_556 S
C455   C25     1.415   1_556 S
C456   C463    1.406   .     A
C456   C460    1.416   .     A
C457   C461    1.390   .     A
C458   C459    1.392   .     A
C458   C15     1.404   1_556 S
C458   C25     1.420   1_556 S
C459   C460    1.388   .     A
C460   H467    1.082   .     S
C461   H464    1.081   .     S
C462   H496    1.083   .     S
H465   C500    1.084   .     S
C468   H613    1.088   .     S
C468   C710    1.348   1_455 S
H469   C756    1.088   1_545 S
C470   C804    1.348   1_545 S
C470   N761    1.445   1_545 S
N471   F476    1.335   .     S
N471   N472    1.285   .     D
N472   F477    1.335   .     S
N473   O475    1.302   .     A
N473   C614    1.445   .     S
N473   O618    1.301   .     S
O474   N761    1.301   1_545 S
N478   O480    1.301   .     A
N478   O479    1.299   .     A
O481   Zn487   1.954   .     S
O481   C531    1.275   .     S
O482   C483    1.292   .     A
O482   Zn488   1.978   .     S
C483   C516    1.405   .     S
O484   Zn487   1.959   .     S
O484   C534    1.290   .     S
O485   Zn488   1.923   .     S
O485   C486    1.297   .     A
C486   C511    1.450   .     S
Zn487  N520    2.020   .     S
Zn487  O491    1.923   .     S
Zn487  O489    1.978   .     S
Zn488  N519    2.020   .     S
Zn488  O492    1.959   .     S
Zn488  O490    1.954   .     S
O489   C493    1.289   .     A
O491   C494    1.298   .     A
C493   C518    1.413   .     S
C493   O538    1.279   .     S
C494   C499    1.448   .     S
C494   O540    1.291   .     S
C495   C510    1.394   .     A
H497   C507    1.084   .     S
H498   C63     1.084   1_556 S
C499   C510    1.401   .     A
C499   C509    1.384   .     A
C500   C511    1.400   .     A
C500   C69     1.384   1_556 S
C501   C502    1.396   .     A
C501   H514    1.083   .     S
C502   N526    1.431   .     S
C503   C504    1.406   .     A
C503   C70     1.429   1_556 S
C503   C73     1.415   1_556 S
C504   C511    1.406   .     A
C504   C508    1.416   .     A
C505   C509    1.390   .     A
C506   C507    1.392   .     A
C506   C63     1.404   1_556 S
C506   C73     1.420   1_556 S
C507   C508    1.388   .     A
C508   H515    1.082   .     S
C509   H512    1.081   .     S
C510   H544    1.083   .     S
H513   C548    1.084   .     S
C516   H661    1.088   .     S
C516   C614    1.348   .     S
H517   C804    1.088   1_545 S
C518   C852    1.348   1_545 S
C518   N809    1.445   1_545 S
N519   F524    1.335   .     S
N519   N520    1.285   .     D
N520   F525    1.335   .     S
N521   O523    1.302   .     A
N521   C662    1.445   .     S
N521   O666    1.301   .     S
O522   N809    1.301   1_545 S
N526   O528    1.301   .     A
N526   O527    1.299   .     A
O529   Zn535   1.954   .     S
O529   C435    1.275   1_655 S
O530   C531    1.292   .     A
O530   Zn536   1.978   .     S
C531   C564    1.405   .     S
O532   Zn535   1.959   .     S
O532   C438    1.290   1_655 S
O533   Zn536   1.923   .     S
O533   C534    1.297   .     A
C534   C559    1.450   .     S
Zn535  N568    2.020   .     S
Zn535  O539    1.923   .     S
Zn535  O537    1.978   .     S
Zn536  N567    2.020   .     S
Zn536  O540    1.959   .     S
Zn536  O538    1.954   .     S
O537   C541    1.289   .     A
O539   C542    1.298   .     A
C541   C566    1.413   .     S
C541   O442    1.279   1_655 S
C542   C547    1.448   .     S
C542   O444    1.291   1_655 S
C543   C558    1.394   .     A
H545   C555    1.084   .     S
H546   C111    1.084   1_556 S
C547   C558    1.401   .     A
C547   C557    1.384   .     A
C548   C559    1.400   .     A
C548   C117    1.384   1_556 S
C549   C550    1.396   .     A
C549   H562    1.083   .     S
C550   N574    1.431   .     S
C551   C552    1.406   .     A
C551   C118    1.429   1_556 S
C551   C121    1.415   1_556 S
C552   C559    1.406   .     A
C552   C556    1.416   .     A
C553   C557    1.390   .     A
C554   C555    1.392   .     A
C554   C111    1.404   1_556 S
C554   C121    1.420   1_556 S
C555   C556    1.388   .     A
C556   H563    1.082   .     S
C557   H560    1.081   .     S
C558   H448    1.083   1_655 S
H561   C452    1.084   1_655 S
C564   H709    1.088   .     S
C564   C662    1.348   .     S
H565   C852    1.088   1_545 S
C566   C756    1.348   1_645 S
C566   N857    1.445   1_545 S
N567   F572    1.335   .     S
N567   N568    1.285   .     D
N568   F573    1.335   .     S
N569   O571    1.302   .     A
N569   C710    1.445   .     S
N569   O714    1.301   .     S
O570   N857    1.301   1_545 S
N574   O576    1.301   .     A
N574   O575    1.299   .     A
O577   Zn583   1.954   .     S
O577   C627    1.275   .     S
O578   C579    1.292   .     A
O578   Zn584   1.978   .     S
C579   C612    1.405   .     S
C579   O673    1.275   1_455 S
O580   Zn583   1.959   .     S
O580   C630    1.290   .     S
O581   Zn584   1.923   .     S
O581   C582    1.297   .     A
C582   C607    1.450   .     S
C582   O676    1.290   1_455 S
Zn583  N616    2.020   .     S
Zn583  O587    1.923   .     S
Zn583  O585    1.978   .     S
Zn584  N615    2.020   .     S
Zn584  O588    1.959   .     S
Zn584  O586    1.954   .     S
O585   C589    1.289   .     A
O586   C685    1.279   1_455 S
O587   C590    1.298   .     A
O588   C686    1.291   1_455 S
C589   C614    1.413   .     S
C589   O634    1.279   .     S
C590   C595    1.448   .     S
C590   O636    1.291   .     S
C591   C606    1.394   .     A
H592   C702    1.083   1_455 S
H593   C603    1.084   .     S
H594   C159    1.084   1_556 S
C595   C606    1.401   .     A
C595   C605    1.384   .     A
C596   C607    1.400   .     A
C596   C165    1.384   1_556 S
C596   H705    1.084   1_455 S
C597   C598    1.396   .     A
C597   H610    1.083   .     S
C598   N622    1.431   .     S
C599   C600    1.406   .     A
C599   C166    1.429   1_556 S
C599   C169    1.415   1_556 S
C600   C607    1.406   .     A
C600   C604    1.416   .     A
C601   C605    1.390   .     A
C602   C603    1.392   .     A
C602   C159    1.404   1_556 S
C602   C169    1.420   1_556 S
C603   C604    1.388   .     A
C604   H611    1.082   .     S
C605   H608    1.081   .     S
C606   H640    1.083   .     S
H609   C644    1.084   .     S
C612   H757    1.088   .     S
C612   C854    1.348   1_455 S
N615   F620    1.335   .     S
N615   N616    1.285   .     D
N616   F621    1.335   .     S
N617   O619    1.302   .     A
N617   C758    1.445   .     S
N617   O762    1.301   .     S
N622   O624    1.301   .     A
N622   O623    1.299   .     A
O625   Zn631   1.954   .     S
O625   C675    1.275   .     S
O626   C627    1.292   .     A
O626   Zn632   1.978   .     S
C627   C660    1.405   .     S
O628   Zn631   1.959   .     S
O628   C678    1.290   .     S
O629   Zn632   1.923   .     S
O629   C630    1.297   .     A
C630   C655    1.450   .     S
Zn631  N664    2.020   .     S
Zn631  O635    1.923   .     S
Zn631  O633    1.978   .     S
Zn632  N663    2.020   .     S
Zn632  O636    1.959   .     S
Zn632  O634    1.954   .     S
O633   C637    1.289   .     A
O635   C638    1.298   .     A
C637   C662    1.413   .     S
C637   O682    1.279   .     S
C638   C643    1.448   .     S
C638   O684    1.291   .     S
C639   C654    1.394   .     A
H641   C651    1.084   .     S
H642   C207    1.084   1_556 S
C643   C654    1.401   .     A
C643   C653    1.384   .     A
C644   C655    1.400   .     A
C644   C213    1.384   1_556 S
C645   C646    1.396   .     A
C645   H658    1.083   .     S
C646   N670    1.431   .     S
C647   C648    1.406   .     A
C647   C214    1.429   1_556 S
C647   C217    1.415   1_556 S
C648   C655    1.406   .     A
C648   C652    1.416   .     A
C649   C653    1.390   .     A
C650   C651    1.392   .     A
C650   C207    1.404   1_556 S
C650   C217    1.420   1_556 S
C651   C652    1.388   .     A
C652   H659    1.082   .     S
C653   H656    1.081   .     S
C654   H688    1.083   .     S
H657   C692    1.084   .     S
C660   H805    1.088   .     S
C660   C758    1.348   .     S
N663   F668    1.335   .     S
N663   N664    1.285   .     D
N664   F669    1.335   .     S
N665   O667    1.302   .     A
N665   C806    1.445   .     S
N665   O810    1.301   .     S
N670   O672    1.301   .     A
N670   O671    1.299   .     A
O673   Zn679   1.954   .     S
O673   C579    1.275   1_655 S
O674   C675    1.292   .     A
O674   Zn680   1.978   .     S
C675   C708    1.405   .     S
O676   Zn679   1.959   .     S
O676   C582    1.290   1_655 S
O677   Zn680   1.923   .     S
O677   C678    1.297   .     A
C678   C703    1.450   .     S
Zn679  N712    2.020   .     S
Zn679  O683    1.923   .     S
Zn679  O681    1.978   .     S
Zn680  N711    2.020   .     S
Zn680  O684    1.959   .     S
Zn680  O682    1.954   .     S
O681   C685    1.289   .     A
O683   C686    1.298   .     A
C685   C710    1.413   .     S
C685   O586    1.279   1_655 S
C686   C691    1.448   .     S
C686   O588    1.291   1_655 S
C687   C702    1.394   .     A
H689   C699    1.084   .     S
H690   C255    1.084   1_556 S
C691   C702    1.401   .     A
C691   C701    1.384   .     A
C692   C703    1.400   .     A
C692   C261    1.384   1_556 S
C693   C694    1.396   .     A
C693   H706    1.083   .     S
C694   N718    1.431   .     S
C695   C696    1.406   .     A
C695   C262    1.429   1_556 S
C695   C265    1.415   1_556 S
C696   C703    1.406   .     A
C696   C700    1.416   .     A
C697   C701    1.390   .     A
C698   C699    1.392   .     A
C698   C255    1.404   1_556 S
C698   C265    1.420   1_556 S
C699   C700    1.388   .     A
C700   H707    1.082   .     S
C701   H704    1.081   .     S
C702   H592    1.083   1_655 S
H705   C596    1.084   1_655 S
C708   H853    1.088   .     S
C708   C806    1.348   .     S
C710   C468    1.348   1_655 S
N711   F716    1.335   .     S
N711   N712    1.285   .     D
N712   F717    1.335   .     S
N713   O715    1.302   .     A
N713   C854    1.445   .     S
N713   O858    1.301   .     S
N718   O720    1.301   .     A
N718   O719    1.299   .     A
O721   Zn727   1.954   .     S
O721   C771    1.275   .     S
O722   C723    1.292   .     A
O722   Zn728   1.978   .     S
C723   C756    1.405   .     S
C723   O817    1.275   1_455 S
O724   Zn727   1.959   .     S
O724   C774    1.290   .     S
O725   Zn728   1.923   .     S
O725   C726    1.297   .     A
C726   C751    1.450   .     S
C726   O820    1.290   1_455 S
Zn727  N760    2.020   .     S
Zn727  O731    1.923   .     S
Zn727  O729    1.978   .     S
Zn728  N759    2.020   .     S
Zn728  O732    1.959   .     S
Zn728  O730    1.954   .     S
O729   C733    1.289   .     A
O730   C829    1.279   1_455 S
O731   C734    1.298   .     A
O732   C830    1.291   1_455 S
C733   C758    1.413   .     S
C733   O778    1.279   .     S
C734   C739    1.448   .     S
C734   O780    1.291   .     S
C735   C750    1.394   .     A
H736   C846    1.083   1_455 S
H737   C747    1.084   .     S
H738   C303    1.084   1_556 S
C739   C750    1.401   .     A
C739   C749    1.384   .     A
C740   C751    1.400   .     A
C740   C309    1.384   1_556 S
C740   H849    1.084   1_455 S
C741   C742    1.396   .     A
C741   H754    1.083   .     S
C742   N766    1.431   .     S
C743   C744    1.406   .     A
C743   C310    1.429   1_556 S
C743   C313    1.415   1_556 S
C744   C751    1.406   .     A
C744   C748    1.416   .     A
C745   C749    1.390   .     A
C746   C747    1.392   .     A
C746   C303    1.404   1_556 S
C746   C313    1.420   1_556 S
C747   C748    1.388   .     A
C748   H755    1.082   .     S
C749   H752    1.081   .     S
C750   H784    1.083   .     S
H753   C788    1.084   .     S
C756   H469    1.088   1_565 S
C756   C566    1.348   1_465 S
N759   F764    1.335   .     S
N759   N760    1.285   .     D
N760   F765    1.335   .     S
N761   O763    1.302   .     A
N761   C470    1.445   1_565 S
N761   O474    1.301   1_565 S
N766   O768    1.301   .     A
N766   O767    1.299   .     A
O769   Zn775   1.954   .     S
O769   C819    1.275   .     S
O770   C771    1.292   .     A
O770   Zn776   1.978   .     S
C771   C804    1.405   .     S
O772   Zn775   1.959   .     S
O772   C822    1.290   .     S
O773   Zn776   1.923   .     S
O773   C774    1.297   .     A
C774   C799    1.450   .     S
Zn775  N808    2.020   .     S
Zn775  O779    1.923   .     S
Zn775  O777    1.978   .     S
Zn776  N807    2.020   .     S
Zn776  O780    1.959   .     S
Zn776  O778    1.954   .     S
O777   C781    1.289   .     A
O779   C782    1.298   .     A
C781   C806    1.413   .     S
C781   O826    1.279   .     S
C782   C787    1.448   .     S
C782   O828    1.291   .     S
C783   C798    1.394   .     A
H785   C795    1.084   .     S
H786   C351    1.084   1_556 S
C787   C798    1.401   .     A
C787   C797    1.384   .     A
C788   C799    1.400   .     A
C788   C357    1.384   1_556 S
C789   C790    1.396   .     A
C789   H802    1.083   .     S
C790   N814    1.431   .     S
C791   C792    1.406   .     A
C791   C358    1.429   1_556 S
C791   C361    1.415   1_556 S
C792   C799    1.406   .     A
C792   C796    1.416   .     A
C793   C797    1.390   .     A
C794   C795    1.392   .     A
C794   C351    1.404   1_556 S
C794   C361    1.420   1_556 S
C795   C796    1.388   .     A
C796   H803    1.082   .     S
C797   H800    1.081   .     S
C798   H832    1.083   .     S
H801   C836    1.084   .     S
C804   H517    1.088   1_565 S
C804   C470    1.348   1_565 S
N807   F812    1.335   .     S
N807   N808    1.285   .     D
N808   F813    1.335   .     S
N809   O811    1.302   .     A
N809   C518    1.445   1_565 S
N809   O522    1.301   1_565 S
N814   O816    1.301   .     A
N814   O815    1.299   .     A
O817   Zn823   1.954   .     S
O817   C723    1.275   1_655 S
O818   C819    1.292   .     A
O818   Zn824   1.978   .     S
C819   C852    1.405   .     S
O820   Zn823   1.959   .     S
O820   C726    1.290   1_655 S
O821   Zn824   1.923   .     S
O821   C822    1.297   .     A
C822   C847    1.450   .     S
Zn823  N856    2.020   .     S
Zn823  O827    1.923   .     S
Zn823  O825    1.978   .     S
Zn824  N855    2.020   .     S
Zn824  O828    1.959   .     S
Zn824  O826    1.954   .     S
O825   C829    1.289   .     A
O827   C830    1.298   .     A
C829   C854    1.413   .     S
C829   O730    1.279   1_655 S
C830   C835    1.448   .     S
C830   O732    1.291   1_655 S
C831   C846    1.394   .     A
H833   C843    1.084   .     S
H834   C399    1.084   1_556 S
C835   C846    1.401   .     A
C835   C845    1.384   .     A
C836   C847    1.400   .     A
C836   C405    1.384   1_556 S
C837   C838    1.396   .     A
C837   H850    1.083   .     S
C838   N862    1.431   .     S
C839   C840    1.406   .     A
C839   C406    1.429   1_556 S
C839   C409    1.415   1_556 S
C840   C847    1.406   .     A
C840   C844    1.416   .     A
C841   C845    1.390   .     A
C842   C843    1.392   .     A
C842   C399    1.404   1_556 S
C842   C409    1.420   1_556 S
C843   C844    1.388   .     A
C844   H851    1.082   .     S
C845   H848    1.081   .     S
C846   H736    1.083   1_655 S
H849   C740    1.084   1_655 S
C852   H565    1.088   1_565 S
C852   C518    1.348   1_565 S
C854   C612    1.348   1_655 S
N855   F860    1.335   .     S
N855   N856    1.285   .     D
N856   F861    1.335   .     S
N857   O859    1.302   .     A
N857   C566    1.445   1_565 S
N857   O570    1.301   1_565 S
N862   O864    1.301   .     A
N862   O863    1.299   .     A
