data_str_m3_o1_o2_pcu_sym.65
_audit_creation_date              2020-01-03
_audit_creation_method            'Materials Studio'
_symmetry_space_group_name_H-M    'P1'
_symmetry_Int_Tables_number       1
_symmetry_cell_setting            triclinic
loop_
_symmetry_equiv_pos_as_xyz
  x,y,z
_cell_length_a                    31.8032
_cell_length_b                    29.8130
_cell_length_c                    30.1968
_cell_angle_alpha                 91.1445
_cell_angle_beta                  93.1974
_cell_angle_gamma                 91.0850
loop_
_atom_site_label
_atom_site_type_symbol
_atom_site_fract_x
_atom_site_fract_y
_atom_site_fract_z
_atom_site_U_iso_or_equiv
_atom_site_adp_type
_atom_site_occupancy
C1     C     0.08700   0.16624   0.25551   0.00000  Uiso   1.00
C2     C     0.31419   0.20877   0.24567   0.00000  Uiso   1.00
C3     C     0.31188   0.12708   0.23476   0.00000  Uiso   1.00
C4     C     0.02146   0.20626   0.26524   0.00000  Uiso   1.00
C5     C     0.18319   0.20546   0.04878   0.00000  Uiso   1.00
C6     C     0.15014   0.12787   0.45122   0.00000  Uiso   1.00
C7     C     0.15929   0.20810   0.45360   0.00000  Uiso   1.00
C8     C     0.17404   0.12523   0.04640   0.00000  Uiso   1.00
C9     C     0.18762   0.20548   0.09480   0.00000  Uiso   1.00
C10    C     0.14571   0.12785   0.40520   0.00000  Uiso   1.00
C11    C     0.15510   0.20942   0.40764   0.00000  Uiso   1.00
C12    C     0.24634   0.16709   0.24449   0.00000  Uiso   1.00
C13    C     0.17823   0.12391   0.09236   0.00000  Uiso   1.00
C14    C     0.17974   0.16504   0.11707   0.00000  Uiso   1.00
C15    C     0.15359   0.16830   0.38293   0.00000  Uiso   1.00
C16    C     0.17199   0.16610   0.02427   0.00000  Uiso   1.00
C17    C     0.16134   0.16724   0.47573   0.00000  Uiso   1.00
C18    C     0.29116   0.16822   0.23759   0.00000  Uiso   1.00
C19    C     0.04217   0.16511   0.26241   0.00000  Uiso   1.00
C20    C     0.22493   0.04974   0.31052   0.00000  Uiso   1.00
C21    C     0.10840   0.28359   0.18948   0.00000  Uiso   1.00
C22    C     0.10738   0.04561   0.19115   0.00000  Uiso   1.00
C23    C     0.17094   0.16622   0.16440   0.00000  Uiso   1.00
C24    C     0.22596   0.28772   0.30885   0.00000  Uiso   1.00
C25    C     0.20306   0.24753   0.11817   0.00000  Uiso   1.00
C26    C     0.13028   0.08580   0.38183   0.00000  Uiso   1.00
C27    C     0.15028   0.25431   0.38748   0.00000  Uiso   1.00
C28    C     0.18305   0.07902   0.11252   0.00000  Uiso   1.00
C29    C     0.03421   0.08158   0.27389   0.00000  Uiso   1.00
C30    C     0.29912   0.25175   0.22611   0.00000  Uiso   1.00
C31    C     0.29332   0.08980   0.20559   0.00000  Uiso   1.00
C32    C     0.04002   0.24353   0.29441   0.00000  Uiso   1.00
C33    C     0.16239   0.16712   0.33560   0.00000  Uiso   1.00
C34    C     0.19417   0.02500   0.27814   0.00000  Uiso   1.00
C35    C     0.13917   0.30833   0.22186   0.00000  Uiso   1.00
C36    C     0.13907   0.02291   0.22203   0.00000  Uiso   1.00
C37    C     0.19426   0.31042   0.27797   0.00000  Uiso   1.00
C38    C     0.01914   0.12456   0.25433   0.00000  Uiso   1.00
H39    H     0.18999   0.23653   0.03282   0.00000  Uiso   1.00
H40    H     0.11493   0.29241   0.15498   0.00000  Uiso   1.00
H41    H     0.11033   0.08186   0.19086   0.00000  Uiso   1.00
H42    H     0.11095   0.03452   0.15637   0.00000  Uiso   1.00
H43    H     0.07494   0.03739   0.20054   0.00000  Uiso   1.00
H44    H     0.22301   0.25147   0.30914   0.00000  Uiso   1.00
H45    H     0.25839   0.29595   0.29946   0.00000  Uiso   1.00
H46    H     0.22238   0.29882   0.34363   0.00000  Uiso   1.00
H47    H     0.22031   0.24624   0.15000   0.00000  Uiso   1.00
H48    H     0.11303   0.08709   0.35000   0.00000  Uiso   1.00
H49    H     0.13156   0.25836   0.35684   0.00000  Uiso   1.00
H50    H     0.14334   0.09681   0.46718   0.00000  Uiso   1.00
H51    H     0.20177   0.07498   0.14316   0.00000  Uiso   1.00
H52    H     0.06560   0.07890   0.28899   0.00000  Uiso   1.00
H53    H     0.26773   0.25443   0.21100   0.00000  Uiso   1.00
H54    H     0.26141   0.09150   0.19143   0.00000  Uiso   1.00
H55    H     0.07193   0.24183   0.30857   0.00000  Uiso   1.00
H56    H     0.15960   0.23972   0.47147   0.00000  Uiso   1.00
H57    H     0.17372   0.09362   0.02853   0.00000  Uiso   1.00
H58    H     0.22402   0.08598   0.30993   0.00000  Uiso   1.00
H59    H     0.21840   0.04092   0.34502   0.00000  Uiso   1.00
H60    H     0.25771   0.04086   0.30370   0.00000  Uiso   1.00
H61    H     0.10931   0.24735   0.19007   0.00000  Uiso   1.00
H62    H     0.07563   0.29247   0.19630   0.00000  Uiso   1.00
N63    N     0.16667   0.28573   0.25000   0.00000  Uiso   1.00
N64    N     0.16667   0.04760   0.25000   0.00000  Uiso   1.00
O65    O     0.10559   0.20487   0.24999   0.00000  Uiso   1.00
O66    O     0.13587   0.04921   0.39840   0.00000  Uiso   1.00
O67    O     0.16625   0.28784   0.40585   0.00000  Uiso   1.00
O68    O     0.16708   0.04550   0.09415   0.00000  Uiso   1.00
O69    O     0.01050   0.04921   0.27675   0.00000  Uiso   1.00
O70    O     0.32283   0.28413   0.22325   0.00000  Uiso   1.00
O71    O     0.31448   0.05840   0.19392   0.00000  Uiso   1.00
O72    O     0.01885   0.27493   0.30608   0.00000  Uiso   1.00
O73    O     0.22774   0.12846   0.25000   0.00000  Uiso   1.00
O74    O     0.22774   0.20487   0.25000   0.00000  Uiso   1.00
O75    O     0.10559   0.12846   0.24999   0.00000  Uiso   1.00
O76    O     0.16666   0.20489   0.18453   0.00000  Uiso   1.00
O77    O     0.16667   0.12845   0.31547   0.00000  Uiso   1.00
O78    O     0.16667   0.20489   0.31547   0.00000  Uiso   1.00
O79    O     0.16666   0.12845   0.18453   0.00000  Uiso   1.00
O80    O     0.19747   0.28412   0.10160   0.00000  Uiso   1.00
Zn81   Zn    0.16667   0.21771   0.25000   0.00000  Uiso   1.00
Zn82   Zn    0.16667   0.11563   0.25000   0.00000  Uiso   1.00
C83    C     0.42033   0.16624   0.25551   0.00000  Uiso   1.00
C84    C     0.64753   0.20877   0.24567   0.00000  Uiso   1.00
C85    C     0.64521   0.12708   0.23476   0.00000  Uiso   1.00
C86    C     0.35479   0.20626   0.26524   0.00000  Uiso   1.00
C87    C     0.51652   0.20546   0.04878   0.00000  Uiso   1.00
C88    C     0.48348   0.12787   0.45122   0.00000  Uiso   1.00
C89    C     0.49262   0.20810   0.45360   0.00000  Uiso   1.00
C90    C     0.50738   0.12523   0.04640   0.00000  Uiso   1.00
C91    C     0.52096   0.20548   0.09480   0.00000  Uiso   1.00
C92    C     0.47904   0.12785   0.40520   0.00000  Uiso   1.00
C93    C     0.48843   0.20942   0.40764   0.00000  Uiso   1.00
C94    C     0.57967   0.16709   0.24449   0.00000  Uiso   1.00
C95    C     0.51157   0.12391   0.09236   0.00000  Uiso   1.00
C96    C     0.51307   0.16504   0.11707   0.00000  Uiso   1.00
C97    C     0.48692   0.16830   0.38293   0.00000  Uiso   1.00
C98    C     0.50532   0.16610   0.02427   0.00000  Uiso   1.00
C99    C     0.49467   0.16724   0.47573   0.00000  Uiso   1.00
C100   C     0.62450   0.16822   0.23759   0.00000  Uiso   1.00
C101   C     0.37550   0.16511   0.26241   0.00000  Uiso   1.00
C102   C     0.55827   0.04974   0.31052   0.00000  Uiso   1.00
C103   C     0.44173   0.28359   0.18948   0.00000  Uiso   1.00
C104   C     0.44071   0.04561   0.19115   0.00000  Uiso   1.00
C105   C     0.50428   0.16622   0.16440   0.00000  Uiso   1.00
C106   C     0.55929   0.28772   0.30885   0.00000  Uiso   1.00
C107   C     0.53639   0.24753   0.11817   0.00000  Uiso   1.00
C108   C     0.46361   0.08580   0.38183   0.00000  Uiso   1.00
C109   C     0.48361   0.25431   0.38748   0.00000  Uiso   1.00
C110   C     0.51638   0.07902   0.11252   0.00000  Uiso   1.00
C111   C     0.36755   0.08158   0.27389   0.00000  Uiso   1.00
C112   C     0.63245   0.25175   0.22611   0.00000  Uiso   1.00
C113   C     0.62665   0.08980   0.20559   0.00000  Uiso   1.00
C114   C     0.37335   0.24353   0.29441   0.00000  Uiso   1.00
C115   C     0.49572   0.16712   0.33560   0.00000  Uiso   1.00
C116   C     0.52750   0.02500   0.27814   0.00000  Uiso   1.00
C117   C     0.47250   0.30833   0.22186   0.00000  Uiso   1.00
C118   C     0.47240   0.02291   0.22203   0.00000  Uiso   1.00
C119   C     0.52759   0.31042   0.27797   0.00000  Uiso   1.00
C120   C     0.35247   0.12456   0.25433   0.00000  Uiso   1.00
H121   H     0.52332   0.23653   0.03282   0.00000  Uiso   1.00
H122   H     0.44826   0.29241   0.15498   0.00000  Uiso   1.00
H123   H     0.44366   0.08186   0.19086   0.00000  Uiso   1.00
H124   H     0.44428   0.03452   0.15637   0.00000  Uiso   1.00
H125   H     0.40827   0.03739   0.20054   0.00000  Uiso   1.00
H126   H     0.55634   0.25147   0.30914   0.00000  Uiso   1.00
H127   H     0.59173   0.29595   0.29946   0.00000  Uiso   1.00
H128   H     0.55572   0.29882   0.34363   0.00000  Uiso   1.00
H129   H     0.55364   0.24624   0.15000   0.00000  Uiso   1.00
H130   H     0.44636   0.08709   0.35000   0.00000  Uiso   1.00
H131   H     0.46489   0.25836   0.35684   0.00000  Uiso   1.00
H132   H     0.47667   0.09681   0.46718   0.00000  Uiso   1.00
H133   H     0.53511   0.07498   0.14316   0.00000  Uiso   1.00
H134   H     0.39894   0.07890   0.28899   0.00000  Uiso   1.00
H135   H     0.60106   0.25443   0.21100   0.00000  Uiso   1.00
H136   H     0.59474   0.09150   0.19143   0.00000  Uiso   1.00
H137   H     0.40526   0.24183   0.30857   0.00000  Uiso   1.00
H138   H     0.49294   0.23972   0.47147   0.00000  Uiso   1.00
H139   H     0.50705   0.09362   0.02853   0.00000  Uiso   1.00
H140   H     0.55735   0.08598   0.30993   0.00000  Uiso   1.00
H141   H     0.55173   0.04092   0.34502   0.00000  Uiso   1.00
H142   H     0.59104   0.04086   0.30370   0.00000  Uiso   1.00
H143   H     0.44265   0.24735   0.19007   0.00000  Uiso   1.00
H144   H     0.40896   0.29247   0.19630   0.00000  Uiso   1.00
N145   N     0.50000   0.28573   0.25000   0.00000  Uiso   1.00
N146   N     0.50000   0.04760   0.25000   0.00000  Uiso   1.00
O147   O     0.43892   0.20487   0.24999   0.00000  Uiso   1.00
O148   O     0.46920   0.04921   0.39840   0.00000  Uiso   1.00
O149   O     0.49958   0.28784   0.40585   0.00000  Uiso   1.00
O150   O     0.50041   0.04550   0.09415   0.00000  Uiso   1.00
O151   O     0.34383   0.04921   0.27675   0.00000  Uiso   1.00
O152   O     0.65616   0.28413   0.22325   0.00000  Uiso   1.00
O153   O     0.64782   0.05840   0.19392   0.00000  Uiso   1.00
O154   O     0.35218   0.27493   0.30608   0.00000  Uiso   1.00
O155   O     0.56108   0.12846   0.25000   0.00000  Uiso   1.00
O156   O     0.56108   0.20487   0.25000   0.00000  Uiso   1.00
O157   O     0.43892   0.12846   0.24999   0.00000  Uiso   1.00
O158   O     0.50000   0.20489   0.18453   0.00000  Uiso   1.00
O159   O     0.50000   0.12845   0.31547   0.00000  Uiso   1.00
O160   O     0.50000   0.20489   0.31547   0.00000  Uiso   1.00
O161   O     0.50000   0.12845   0.18453   0.00000  Uiso   1.00
O162   O     0.53080   0.28412   0.10160   0.00000  Uiso   1.00
Zn163  Zn    0.50000   0.21771   0.25000   0.00000  Uiso   1.00
Zn164  Zn    0.50000   0.11563   0.25000   0.00000  Uiso   1.00
C165   C     0.75366   0.16624   0.25551   0.00000  Uiso   1.00
C166   C     0.98086   0.20877   0.24567   0.00000  Uiso   1.00
C167   C     0.97854   0.12708   0.23476   0.00000  Uiso   1.00
C168   C     0.68812   0.20626   0.26524   0.00000  Uiso   1.00
C169   C     0.84985   0.20546   0.04878   0.00000  Uiso   1.00
C170   C     0.81681   0.12787   0.45122   0.00000  Uiso   1.00
C171   C     0.82595   0.20810   0.45360   0.00000  Uiso   1.00
C172   C     0.84071   0.12523   0.04640   0.00000  Uiso   1.00
C173   C     0.85429   0.20548   0.09480   0.00000  Uiso   1.00
C174   C     0.81237   0.12785   0.40520   0.00000  Uiso   1.00
C175   C     0.82176   0.20942   0.40764   0.00000  Uiso   1.00
C176   C     0.91300   0.16709   0.24449   0.00000  Uiso   1.00
C177   C     0.84490   0.12391   0.09236   0.00000  Uiso   1.00
C178   C     0.84641   0.16504   0.11707   0.00000  Uiso   1.00
C179   C     0.82026   0.16830   0.38293   0.00000  Uiso   1.00
C180   C     0.83866   0.16610   0.02427   0.00000  Uiso   1.00
C181   C     0.82800   0.16724   0.47573   0.00000  Uiso   1.00
C182   C     0.95783   0.16822   0.23759   0.00000  Uiso   1.00
C183   C     0.70883   0.16511   0.26241   0.00000  Uiso   1.00
C184   C     0.89160   0.04974   0.31052   0.00000  Uiso   1.00
C185   C     0.77507   0.28359   0.18948   0.00000  Uiso   1.00
C186   C     0.77404   0.04561   0.19115   0.00000  Uiso   1.00
C187   C     0.83761   0.16622   0.16440   0.00000  Uiso   1.00
C188   C     0.89262   0.28772   0.30885   0.00000  Uiso   1.00
C189   C     0.86972   0.24753   0.11817   0.00000  Uiso   1.00
C190   C     0.79694   0.08580   0.38183   0.00000  Uiso   1.00
C191   C     0.81695   0.25431   0.38748   0.00000  Uiso   1.00
C192   C     0.84972   0.07902   0.11252   0.00000  Uiso   1.00
C193   C     0.70088   0.08158   0.27389   0.00000  Uiso   1.00
C194   C     0.96579   0.25175   0.22611   0.00000  Uiso   1.00
C195   C     0.95998   0.08980   0.20559   0.00000  Uiso   1.00
C196   C     0.70668   0.24353   0.29441   0.00000  Uiso   1.00
C197   C     0.82906   0.16712   0.33560   0.00000  Uiso   1.00
C198   C     0.86083   0.02500   0.27814   0.00000  Uiso   1.00
C199   C     0.80583   0.30833   0.22186   0.00000  Uiso   1.00
C200   C     0.80574   0.02291   0.22203   0.00000  Uiso   1.00
C201   C     0.86093   0.31042   0.27797   0.00000  Uiso   1.00
C202   C     0.68581   0.12456   0.25433   0.00000  Uiso   1.00
H203   H     0.85666   0.23653   0.03282   0.00000  Uiso   1.00
H204   H     0.78160   0.29241   0.15498   0.00000  Uiso   1.00
H205   H     0.77699   0.08186   0.19086   0.00000  Uiso   1.00
H206   H     0.77761   0.03452   0.15637   0.00000  Uiso   1.00
H207   H     0.74161   0.03739   0.20054   0.00000  Uiso   1.00
H208   H     0.88967   0.25147   0.30914   0.00000  Uiso   1.00
H209   H     0.92506   0.29595   0.29946   0.00000  Uiso   1.00
H210   H     0.88905   0.29882   0.34363   0.00000  Uiso   1.00
H211   H     0.88697   0.24624   0.15000   0.00000  Uiso   1.00
H212   H     0.77969   0.08709   0.35000   0.00000  Uiso   1.00
H213   H     0.79822   0.25836   0.35684   0.00000  Uiso   1.00
H214   H     0.81001   0.09681   0.46718   0.00000  Uiso   1.00
H215   H     0.86844   0.07498   0.14316   0.00000  Uiso   1.00
H216   H     0.73227   0.07890   0.28899   0.00000  Uiso   1.00
H217   H     0.93440   0.25443   0.21100   0.00000  Uiso   1.00
H218   H     0.92807   0.09150   0.19143   0.00000  Uiso   1.00
H219   H     0.73859   0.24183   0.30857   0.00000  Uiso   1.00
H220   H     0.82627   0.23972   0.47147   0.00000  Uiso   1.00
H221   H     0.84039   0.09362   0.02853   0.00000  Uiso   1.00
H222   H     0.89069   0.08598   0.30993   0.00000  Uiso   1.00
H223   H     0.88507   0.04092   0.34502   0.00000  Uiso   1.00
H224   H     0.92437   0.04086   0.30370   0.00000  Uiso   1.00
H225   H     0.77598   0.24735   0.19007   0.00000  Uiso   1.00
H226   H     0.74229   0.29247   0.19630   0.00000  Uiso   1.00
N227   N     0.83333   0.28573   0.25000   0.00000  Uiso   1.00
N228   N     0.83333   0.04760   0.25000   0.00000  Uiso   1.00
O229   O     0.77226   0.20487   0.24999   0.00000  Uiso   1.00
O230   O     0.80253   0.04921   0.39840   0.00000  Uiso   1.00
O231   O     0.83292   0.28784   0.40585   0.00000  Uiso   1.00
O232   O     0.83375   0.04550   0.09415   0.00000  Uiso   1.00
O233   O     0.67717   0.04921   0.27675   0.00000  Uiso   1.00
O234   O     0.98950   0.28413   0.22325   0.00000  Uiso   1.00
O235   O     0.98115   0.05840   0.19392   0.00000  Uiso   1.00
O236   O     0.68551   0.27493   0.30608   0.00000  Uiso   1.00
O237   O     0.89441   0.12846   0.25000   0.00000  Uiso   1.00
O238   O     0.89441   0.20487   0.25000   0.00000  Uiso   1.00
O239   O     0.77226   0.12846   0.24999   0.00000  Uiso   1.00
O240   O     0.83333   0.20489   0.18453   0.00000  Uiso   1.00
O241   O     0.83334   0.12845   0.31547   0.00000  Uiso   1.00
O242   O     0.83334   0.20489   0.31547   0.00000  Uiso   1.00
O243   O     0.83333   0.12845   0.18453   0.00000  Uiso   1.00
O244   O     0.86413   0.28412   0.10160   0.00000  Uiso   1.00
Zn245  Zn    0.83333   0.21771   0.25000   0.00000  Uiso   1.00
Zn246  Zn    0.83333   0.11563   0.25000   0.00000  Uiso   1.00
C247   C     0.08700   0.49957   0.25551   0.00000  Uiso   1.00
C248   C     0.31419   0.54210   0.24567   0.00000  Uiso   1.00
C249   C     0.31188   0.46041   0.23476   0.00000  Uiso   1.00
C250   C     0.02146   0.53959   0.26524   0.00000  Uiso   1.00
C251   C     0.18319   0.53880   0.04878   0.00000  Uiso   1.00
C252   C     0.15014   0.46120   0.45122   0.00000  Uiso   1.00
C253   C     0.15929   0.54143   0.45360   0.00000  Uiso   1.00
C254   C     0.17404   0.45857   0.04640   0.00000  Uiso   1.00
C255   C     0.18762   0.53882   0.09480   0.00000  Uiso   1.00
C256   C     0.14571   0.46118   0.40520   0.00000  Uiso   1.00
C257   C     0.15510   0.54275   0.40764   0.00000  Uiso   1.00
C258   C     0.24634   0.50043   0.24449   0.00000  Uiso   1.00
C259   C     0.17823   0.45725   0.09236   0.00000  Uiso   1.00
C260   C     0.17974   0.49837   0.11707   0.00000  Uiso   1.00
C261   C     0.15359   0.50163   0.38293   0.00000  Uiso   1.00
C262   C     0.17199   0.49943   0.02427   0.00000  Uiso   1.00
C263   C     0.16134   0.50057   0.47573   0.00000  Uiso   1.00
C264   C     0.29116   0.50155   0.23759   0.00000  Uiso   1.00
C265   C     0.04217   0.49845   0.26241   0.00000  Uiso   1.00
C266   C     0.22493   0.38308   0.31052   0.00000  Uiso   1.00
C267   C     0.10840   0.61692   0.18948   0.00000  Uiso   1.00
C268   C     0.10738   0.37895   0.19115   0.00000  Uiso   1.00
C269   C     0.17094   0.49955   0.16440   0.00000  Uiso   1.00
C270   C     0.22596   0.62105   0.30885   0.00000  Uiso   1.00
C271   C     0.20306   0.58087   0.11817   0.00000  Uiso   1.00
C272   C     0.13028   0.41913   0.38183   0.00000  Uiso   1.00
C273   C     0.15028   0.58765   0.38748   0.00000  Uiso   1.00
C274   C     0.18305   0.41235   0.11252   0.00000  Uiso   1.00
C275   C     0.03421   0.41492   0.27389   0.00000  Uiso   1.00
C276   C     0.29912   0.58508   0.22611   0.00000  Uiso   1.00
C277   C     0.29332   0.42314   0.20559   0.00000  Uiso   1.00
C278   C     0.04002   0.57686   0.29441   0.00000  Uiso   1.00
C279   C     0.16239   0.50045   0.33560   0.00000  Uiso   1.00
C280   C     0.19417   0.35833   0.27814   0.00000  Uiso   1.00
C281   C     0.13917   0.64167   0.22186   0.00000  Uiso   1.00
C282   C     0.13907   0.35624   0.22203   0.00000  Uiso   1.00
C283   C     0.19426   0.64376   0.27797   0.00000  Uiso   1.00
C284   C     0.01914   0.45790   0.25433   0.00000  Uiso   1.00
H285   H     0.18999   0.56986   0.03282   0.00000  Uiso   1.00
H286   H     0.11493   0.62575   0.15498   0.00000  Uiso   1.00
H287   H     0.11033   0.41519   0.19086   0.00000  Uiso   1.00
H288   H     0.11095   0.36785   0.15637   0.00000  Uiso   1.00
H289   H     0.07494   0.37072   0.20054   0.00000  Uiso   1.00
H290   H     0.22301   0.58481   0.30914   0.00000  Uiso   1.00
H291   H     0.25839   0.62928   0.29946   0.00000  Uiso   1.00
H292   H     0.22238   0.63215   0.34363   0.00000  Uiso   1.00
H293   H     0.22031   0.57958   0.15000   0.00000  Uiso   1.00
H294   H     0.11303   0.42042   0.35000   0.00000  Uiso   1.00
H295   H     0.13156   0.59169   0.35684   0.00000  Uiso   1.00
H296   H     0.14334   0.43014   0.46718   0.00000  Uiso   1.00
H297   H     0.20177   0.40831   0.14316   0.00000  Uiso   1.00
H298   H     0.06560   0.41224   0.28899   0.00000  Uiso   1.00
H299   H     0.26773   0.58776   0.21100   0.00000  Uiso   1.00
H300   H     0.26141   0.42483   0.19143   0.00000  Uiso   1.00
H301   H     0.07193   0.57517   0.30857   0.00000  Uiso   1.00
H302   H     0.15960   0.57305   0.47147   0.00000  Uiso   1.00
H303   H     0.17372   0.42695   0.02853   0.00000  Uiso   1.00
H304   H     0.22402   0.41932   0.30993   0.00000  Uiso   1.00
H305   H     0.21840   0.37425   0.34502   0.00000  Uiso   1.00
H306   H     0.25771   0.37420   0.30370   0.00000  Uiso   1.00
H307   H     0.10931   0.58068   0.19007   0.00000  Uiso   1.00
H308   H     0.07563   0.62580   0.19630   0.00000  Uiso   1.00
N309   N     0.16667   0.61907   0.25000   0.00000  Uiso   1.00
N310   N     0.16667   0.38093   0.25000   0.00000  Uiso   1.00
O311   O     0.10559   0.53821   0.24999   0.00000  Uiso   1.00
O312   O     0.13587   0.38254   0.39840   0.00000  Uiso   1.00
O313   O     0.16625   0.62117   0.40585   0.00000  Uiso   1.00
O314   O     0.16708   0.37883   0.09415   0.00000  Uiso   1.00
O315   O     0.01050   0.38254   0.27675   0.00000  Uiso   1.00
O316   O     0.32283   0.61746   0.22325   0.00000  Uiso   1.00
O317   O     0.31448   0.39174   0.19392   0.00000  Uiso   1.00
O318   O     0.01885   0.60826   0.30608   0.00000  Uiso   1.00
O319   O     0.22774   0.46179   0.25000   0.00000  Uiso   1.00
O320   O     0.22774   0.53821   0.25000   0.00000  Uiso   1.00
O321   O     0.10559   0.46179   0.24999   0.00000  Uiso   1.00
O322   O     0.16666   0.53822   0.18453   0.00000  Uiso   1.00
O323   O     0.16667   0.46178   0.31547   0.00000  Uiso   1.00
O324   O     0.16667   0.53822   0.31547   0.00000  Uiso   1.00
O325   O     0.16666   0.46178   0.18453   0.00000  Uiso   1.00
O326   O     0.19747   0.61746   0.10160   0.00000  Uiso   1.00
Zn327  Zn    0.16667   0.55104   0.25000   0.00000  Uiso   1.00
Zn328  Zn    0.16667   0.44896   0.25000   0.00000  Uiso   1.00
C329   C     0.42033   0.49957   0.25551   0.00000  Uiso   1.00
C330   C     0.64753   0.54210   0.24567   0.00000  Uiso   1.00
C331   C     0.64521   0.46041   0.23476   0.00000  Uiso   1.00
C332   C     0.35479   0.53959   0.26524   0.00000  Uiso   1.00
C333   C     0.51652   0.53880   0.04878   0.00000  Uiso   1.00
C334   C     0.48348   0.46120   0.45122   0.00000  Uiso   1.00
C335   C     0.49262   0.54143   0.45360   0.00000  Uiso   1.00
C336   C     0.50738   0.45857   0.04640   0.00000  Uiso   1.00
C337   C     0.52096   0.53882   0.09480   0.00000  Uiso   1.00
C338   C     0.47904   0.46118   0.40520   0.00000  Uiso   1.00
C339   C     0.48843   0.54275   0.40764   0.00000  Uiso   1.00
C340   C     0.57967   0.50043   0.24449   0.00000  Uiso   1.00
C341   C     0.51157   0.45725   0.09236   0.00000  Uiso   1.00
C342   C     0.51307   0.49837   0.11707   0.00000  Uiso   1.00
C343   C     0.48692   0.50163   0.38293   0.00000  Uiso   1.00
C344   C     0.50532   0.49943   0.02427   0.00000  Uiso   1.00
C345   C     0.49467   0.50057   0.47573   0.00000  Uiso   1.00
C346   C     0.62450   0.50155   0.23759   0.00000  Uiso   1.00
C347   C     0.37550   0.49845   0.26241   0.00000  Uiso   1.00
C348   C     0.55827   0.38308   0.31052   0.00000  Uiso   1.00
C349   C     0.44173   0.61692   0.18948   0.00000  Uiso   1.00
C350   C     0.44071   0.37895   0.19115   0.00000  Uiso   1.00
C351   C     0.50428   0.49955   0.16440   0.00000  Uiso   1.00
C352   C     0.55929   0.62105   0.30885   0.00000  Uiso   1.00
C353   C     0.53639   0.58087   0.11817   0.00000  Uiso   1.00
C354   C     0.46361   0.41913   0.38183   0.00000  Uiso   1.00
C355   C     0.48361   0.58765   0.38748   0.00000  Uiso   1.00
C356   C     0.51638   0.41235   0.11252   0.00000  Uiso   1.00
C357   C     0.36755   0.41492   0.27389   0.00000  Uiso   1.00
C358   C     0.63245   0.58508   0.22611   0.00000  Uiso   1.00
C359   C     0.62665   0.42314   0.20559   0.00000  Uiso   1.00
C360   C     0.37335   0.57686   0.29441   0.00000  Uiso   1.00
C361   C     0.49572   0.50045   0.33560   0.00000  Uiso   1.00
C362   C     0.52750   0.35833   0.27814   0.00000  Uiso   1.00
C363   C     0.47250   0.64167   0.22186   0.00000  Uiso   1.00
C364   C     0.47240   0.35624   0.22203   0.00000  Uiso   1.00
C365   C     0.52759   0.64376   0.27797   0.00000  Uiso   1.00
C366   C     0.35247   0.45790   0.25433   0.00000  Uiso   1.00
H367   H     0.52332   0.56986   0.03282   0.00000  Uiso   1.00
H368   H     0.44826   0.62575   0.15498   0.00000  Uiso   1.00
H369   H     0.44366   0.41519   0.19086   0.00000  Uiso   1.00
H370   H     0.44428   0.36785   0.15637   0.00000  Uiso   1.00
H371   H     0.40827   0.37072   0.20054   0.00000  Uiso   1.00
H372   H     0.55634   0.58481   0.30914   0.00000  Uiso   1.00
H373   H     0.59173   0.62928   0.29946   0.00000  Uiso   1.00
H374   H     0.55572   0.63215   0.34363   0.00000  Uiso   1.00
H375   H     0.55364   0.57958   0.15000   0.00000  Uiso   1.00
H376   H     0.44636   0.42042   0.35000   0.00000  Uiso   1.00
H377   H     0.46489   0.59169   0.35684   0.00000  Uiso   1.00
H378   H     0.47667   0.43014   0.46718   0.00000  Uiso   1.00
H379   H     0.53511   0.40831   0.14316   0.00000  Uiso   1.00
H380   H     0.39894   0.41224   0.28899   0.00000  Uiso   1.00
H381   H     0.60106   0.58776   0.21100   0.00000  Uiso   1.00
H382   H     0.59474   0.42483   0.19143   0.00000  Uiso   1.00
H383   H     0.40526   0.57517   0.30857   0.00000  Uiso   1.00
H384   H     0.49294   0.57305   0.47147   0.00000  Uiso   1.00
H385   H     0.50705   0.42695   0.02853   0.00000  Uiso   1.00
H386   H     0.55735   0.41932   0.30993   0.00000  Uiso   1.00
H387   H     0.55173   0.37425   0.34502   0.00000  Uiso   1.00
H388   H     0.59104   0.37420   0.30370   0.00000  Uiso   1.00
H389   H     0.44265   0.58068   0.19007   0.00000  Uiso   1.00
H390   H     0.40896   0.62580   0.19630   0.00000  Uiso   1.00
N391   N     0.50000   0.61907   0.25000   0.00000  Uiso   1.00
N392   N     0.50000   0.38093   0.25000   0.00000  Uiso   1.00
O393   O     0.43892   0.53821   0.24999   0.00000  Uiso   1.00
O394   O     0.46920   0.38254   0.39840   0.00000  Uiso   1.00
O395   O     0.49958   0.62117   0.40585   0.00000  Uiso   1.00
O396   O     0.50041   0.37883   0.09415   0.00000  Uiso   1.00
O397   O     0.34383   0.38254   0.27675   0.00000  Uiso   1.00
O398   O     0.65616   0.61746   0.22325   0.00000  Uiso   1.00
O399   O     0.64782   0.39174   0.19392   0.00000  Uiso   1.00
O400   O     0.35218   0.60826   0.30608   0.00000  Uiso   1.00
O401   O     0.56108   0.46179   0.25000   0.00000  Uiso   1.00
O402   O     0.56108   0.53821   0.25000   0.00000  Uiso   1.00
O403   O     0.43892   0.46179   0.24999   0.00000  Uiso   1.00
O404   O     0.50000   0.53822   0.18453   0.00000  Uiso   1.00
O405   O     0.50000   0.46178   0.31547   0.00000  Uiso   1.00
O406   O     0.50000   0.53822   0.31547   0.00000  Uiso   1.00
O407   O     0.50000   0.46178   0.18453   0.00000  Uiso   1.00
O408   O     0.53080   0.61746   0.10160   0.00000  Uiso   1.00
Zn409  Zn    0.50000   0.55104   0.25000   0.00000  Uiso   1.00
Zn410  Zn    0.50000   0.44896   0.25000   0.00000  Uiso   1.00
C411   C     0.75366   0.49957   0.25551   0.00000  Uiso   1.00
C412   C     0.98086   0.54210   0.24567   0.00000  Uiso   1.00
C413   C     0.97854   0.46041   0.23476   0.00000  Uiso   1.00
C414   C     0.68812   0.53959   0.26524   0.00000  Uiso   1.00
C415   C     0.84985   0.53880   0.04878   0.00000  Uiso   1.00
C416   C     0.81681   0.46120   0.45122   0.00000  Uiso   1.00
C417   C     0.82595   0.54143   0.45360   0.00000  Uiso   1.00
C418   C     0.84071   0.45857   0.04640   0.00000  Uiso   1.00
C419   C     0.85429   0.53882   0.09480   0.00000  Uiso   1.00
C420   C     0.81237   0.46118   0.40520   0.00000  Uiso   1.00
C421   C     0.82176   0.54275   0.40764   0.00000  Uiso   1.00
C422   C     0.91300   0.50043   0.24449   0.00000  Uiso   1.00
C423   C     0.84490   0.45725   0.09236   0.00000  Uiso   1.00
C424   C     0.84641   0.49837   0.11707   0.00000  Uiso   1.00
C425   C     0.82026   0.50163   0.38293   0.00000  Uiso   1.00
C426   C     0.83866   0.49943   0.02427   0.00000  Uiso   1.00
C427   C     0.82800   0.50057   0.47573   0.00000  Uiso   1.00
C428   C     0.95783   0.50155   0.23759   0.00000  Uiso   1.00
C429   C     0.70883   0.49845   0.26241   0.00000  Uiso   1.00
C430   C     0.89160   0.38308   0.31052   0.00000  Uiso   1.00
C431   C     0.77507   0.61692   0.18948   0.00000  Uiso   1.00
C432   C     0.77404   0.37895   0.19115   0.00000  Uiso   1.00
C433   C     0.83761   0.49955   0.16440   0.00000  Uiso   1.00
C434   C     0.89262   0.62105   0.30885   0.00000  Uiso   1.00
C435   C     0.86972   0.58087   0.11817   0.00000  Uiso   1.00
C436   C     0.79694   0.41913   0.38183   0.00000  Uiso   1.00
C437   C     0.81695   0.58765   0.38748   0.00000  Uiso   1.00
C438   C     0.84972   0.41235   0.11252   0.00000  Uiso   1.00
C439   C     0.70088   0.41492   0.27389   0.00000  Uiso   1.00
C440   C     0.96579   0.58508   0.22611   0.00000  Uiso   1.00
C441   C     0.95998   0.42314   0.20559   0.00000  Uiso   1.00
C442   C     0.70668   0.57686   0.29441   0.00000  Uiso   1.00
C443   C     0.82906   0.50045   0.33560   0.00000  Uiso   1.00
C444   C     0.86083   0.35833   0.27814   0.00000  Uiso   1.00
C445   C     0.80583   0.64167   0.22186   0.00000  Uiso   1.00
C446   C     0.80574   0.35624   0.22203   0.00000  Uiso   1.00
C447   C     0.86093   0.64376   0.27797   0.00000  Uiso   1.00
C448   C     0.68581   0.45790   0.25433   0.00000  Uiso   1.00
H449   H     0.85666   0.56986   0.03282   0.00000  Uiso   1.00
H450   H     0.78160   0.62575   0.15498   0.00000  Uiso   1.00
H451   H     0.77699   0.41519   0.19086   0.00000  Uiso   1.00
H452   H     0.77761   0.36785   0.15637   0.00000  Uiso   1.00
H453   H     0.74161   0.37072   0.20054   0.00000  Uiso   1.00
H454   H     0.88967   0.58481   0.30914   0.00000  Uiso   1.00
H455   H     0.92506   0.62928   0.29946   0.00000  Uiso   1.00
H456   H     0.88905   0.63215   0.34363   0.00000  Uiso   1.00
H457   H     0.88697   0.57958   0.15000   0.00000  Uiso   1.00
H458   H     0.77969   0.42042   0.35000   0.00000  Uiso   1.00
H459   H     0.79822   0.59169   0.35684   0.00000  Uiso   1.00
H460   H     0.81001   0.43014   0.46718   0.00000  Uiso   1.00
H461   H     0.86844   0.40831   0.14316   0.00000  Uiso   1.00
H462   H     0.73227   0.41224   0.28899   0.00000  Uiso   1.00
H463   H     0.93440   0.58776   0.21100   0.00000  Uiso   1.00
H464   H     0.92807   0.42483   0.19143   0.00000  Uiso   1.00
H465   H     0.73859   0.57517   0.30857   0.00000  Uiso   1.00
H466   H     0.82627   0.57305   0.47147   0.00000  Uiso   1.00
H467   H     0.84039   0.42695   0.02853   0.00000  Uiso   1.00
H468   H     0.89069   0.41932   0.30993   0.00000  Uiso   1.00
H469   H     0.88507   0.37425   0.34502   0.00000  Uiso   1.00
H470   H     0.92437   0.37420   0.30370   0.00000  Uiso   1.00
H471   H     0.77598   0.58068   0.19007   0.00000  Uiso   1.00
H472   H     0.74229   0.62580   0.19630   0.00000  Uiso   1.00
N473   N     0.83333   0.61907   0.25000   0.00000  Uiso   1.00
N474   N     0.83333   0.38093   0.25000   0.00000  Uiso   1.00
O475   O     0.77226   0.53821   0.24999   0.00000  Uiso   1.00
O476   O     0.80253   0.38254   0.39840   0.00000  Uiso   1.00
O477   O     0.83292   0.62117   0.40585   0.00000  Uiso   1.00
O478   O     0.83375   0.37883   0.09415   0.00000  Uiso   1.00
O479   O     0.67717   0.38254   0.27675   0.00000  Uiso   1.00
O480   O     0.98950   0.61746   0.22325   0.00000  Uiso   1.00
O481   O     0.98115   0.39174   0.19392   0.00000  Uiso   1.00
O482   O     0.68551   0.60826   0.30608   0.00000  Uiso   1.00
O483   O     0.89441   0.46179   0.25000   0.00000  Uiso   1.00
O484   O     0.89441   0.53821   0.25000   0.00000  Uiso   1.00
O485   O     0.77226   0.46179   0.24999   0.00000  Uiso   1.00
O486   O     0.83333   0.53822   0.18453   0.00000  Uiso   1.00
O487   O     0.83334   0.46178   0.31547   0.00000  Uiso   1.00
O488   O     0.83334   0.53822   0.31547   0.00000  Uiso   1.00
O489   O     0.83333   0.46178   0.18453   0.00000  Uiso   1.00
O490   O     0.86413   0.61746   0.10160   0.00000  Uiso   1.00
Zn491  Zn    0.83333   0.55104   0.25000   0.00000  Uiso   1.00
Zn492  Zn    0.83333   0.44896   0.25000   0.00000  Uiso   1.00
C493   C     0.08700   0.83291   0.25551   0.00000  Uiso   1.00
C494   C     0.31419   0.87543   0.24567   0.00000  Uiso   1.00
C495   C     0.31188   0.79374   0.23476   0.00000  Uiso   1.00
C496   C     0.02146   0.87292   0.26524   0.00000  Uiso   1.00
C497   C     0.18319   0.87213   0.04878   0.00000  Uiso   1.00
C498   C     0.15014   0.79453   0.45122   0.00000  Uiso   1.00
C499   C     0.15929   0.87476   0.45360   0.00000  Uiso   1.00
C500   C     0.17404   0.79190   0.04640   0.00000  Uiso   1.00
C501   C     0.18762   0.87215   0.09480   0.00000  Uiso   1.00
C502   C     0.14571   0.79452   0.40520   0.00000  Uiso   1.00
C503   C     0.15510   0.87609   0.40764   0.00000  Uiso   1.00
C504   C     0.24634   0.83376   0.24449   0.00000  Uiso   1.00
C505   C     0.17823   0.79058   0.09236   0.00000  Uiso   1.00
C506   C     0.17974   0.83170   0.11707   0.00000  Uiso   1.00
C507   C     0.15359   0.83496   0.38293   0.00000  Uiso   1.00
C508   C     0.17199   0.83276   0.02427   0.00000  Uiso   1.00
C509   C     0.16134   0.83390   0.47573   0.00000  Uiso   1.00
C510   C     0.29116   0.83489   0.23759   0.00000  Uiso   1.00
C511   C     0.04217   0.83178   0.26241   0.00000  Uiso   1.00
C512   C     0.22493   0.71641   0.31052   0.00000  Uiso   1.00
C513   C     0.10840   0.95026   0.18948   0.00000  Uiso   1.00
C514   C     0.10738   0.71228   0.19115   0.00000  Uiso   1.00
C515   C     0.17094   0.83288   0.16440   0.00000  Uiso   1.00
C516   C     0.22596   0.95439   0.30885   0.00000  Uiso   1.00
C517   C     0.20306   0.91420   0.11817   0.00000  Uiso   1.00
C518   C     0.13028   0.75247   0.38183   0.00000  Uiso   1.00
C519   C     0.15028   0.92098   0.38748   0.00000  Uiso   1.00
C520   C     0.18305   0.74569   0.11252   0.00000  Uiso   1.00
C521   C     0.03421   0.74825   0.27389   0.00000  Uiso   1.00
C522   C     0.29912   0.91841   0.22611   0.00000  Uiso   1.00
C523   C     0.29332   0.75647   0.20559   0.00000  Uiso   1.00
C524   C     0.04002   0.91019   0.29441   0.00000  Uiso   1.00
C525   C     0.16239   0.83378   0.33560   0.00000  Uiso   1.00
C526   C     0.19417   0.69167   0.27814   0.00000  Uiso   1.00
C527   C     0.13917   0.97500   0.22186   0.00000  Uiso   1.00
C528   C     0.13907   0.68958   0.22203   0.00000  Uiso   1.00
C529   C     0.19426   0.97709   0.27797   0.00000  Uiso   1.00
C530   C     0.01914   0.79123   0.25433   0.00000  Uiso   1.00
H531   H     0.18999   0.90319   0.03282   0.00000  Uiso   1.00
H532   H     0.11493   0.95908   0.15498   0.00000  Uiso   1.00
H533   H     0.11033   0.74853   0.19086   0.00000  Uiso   1.00
H534   H     0.11095   0.70118   0.15637   0.00000  Uiso   1.00
H535   H     0.07494   0.70405   0.20054   0.00000  Uiso   1.00
H536   H     0.22301   0.91814   0.30914   0.00000  Uiso   1.00
H537   H     0.25839   0.96261   0.29946   0.00000  Uiso   1.00
H538   H     0.22238   0.96548   0.34363   0.00000  Uiso   1.00
H539   H     0.22031   0.91291   0.15000   0.00000  Uiso   1.00
H540   H     0.11303   0.75376   0.35000   0.00000  Uiso   1.00
H541   H     0.13156   0.92502   0.35684   0.00000  Uiso   1.00
H542   H     0.14334   0.76347   0.46718   0.00000  Uiso   1.00
H543   H     0.20177   0.74164   0.14316   0.00000  Uiso   1.00
H544   H     0.06560   0.74557   0.28899   0.00000  Uiso   1.00
H545   H     0.26773   0.92109   0.21100   0.00000  Uiso   1.00
H546   H     0.26141   0.75817   0.19143   0.00000  Uiso   1.00
H547   H     0.07193   0.90850   0.30857   0.00000  Uiso   1.00
H548   H     0.15960   0.90638   0.47147   0.00000  Uiso   1.00
H549   H     0.17372   0.76028   0.02853   0.00000  Uiso   1.00
H550   H     0.22402   0.75265   0.30993   0.00000  Uiso   1.00
H551   H     0.21840   0.70758   0.34502   0.00000  Uiso   1.00
H552   H     0.25771   0.70753   0.30370   0.00000  Uiso   1.00
H553   H     0.10931   0.91402   0.19007   0.00000  Uiso   1.00
H554   H     0.07563   0.95914   0.19630   0.00000  Uiso   1.00
N555   N     0.16667   0.95240   0.25000   0.00000  Uiso   1.00
N556   N     0.16667   0.71427   0.25000   0.00000  Uiso   1.00
O557   O     0.10559   0.87154   0.24999   0.00000  Uiso   1.00
O558   O     0.13587   0.71588   0.39840   0.00000  Uiso   1.00
O559   O     0.16625   0.95450   0.40585   0.00000  Uiso   1.00
O560   O     0.16708   0.71216   0.09415   0.00000  Uiso   1.00
O561   O     0.01050   0.71587   0.27675   0.00000  Uiso   1.00
O562   O     0.32283   0.95080   0.22325   0.00000  Uiso   1.00
O563   O     0.31448   0.72507   0.19392   0.00000  Uiso   1.00
O564   O     0.01885   0.94160   0.30608   0.00000  Uiso   1.00
O565   O     0.22774   0.79513   0.25000   0.00000  Uiso   1.00
O566   O     0.22774   0.87154   0.25000   0.00000  Uiso   1.00
O567   O     0.10559   0.79513   0.24999   0.00000  Uiso   1.00
O568   O     0.16666   0.87155   0.18453   0.00000  Uiso   1.00
O569   O     0.16667   0.79511   0.31547   0.00000  Uiso   1.00
O570   O     0.16667   0.87155   0.31547   0.00000  Uiso   1.00
O571   O     0.16666   0.79511   0.18453   0.00000  Uiso   1.00
O572   O     0.19747   0.95079   0.10160   0.00000  Uiso   1.00
Zn573  Zn    0.16667   0.88437   0.25000   0.00000  Uiso   1.00
Zn574  Zn    0.16667   0.78229   0.25000   0.00000  Uiso   1.00
C575   C     0.42033   0.83291   0.25551   0.00000  Uiso   1.00
C576   C     0.64753   0.87543   0.24567   0.00000  Uiso   1.00
C577   C     0.64521   0.79374   0.23476   0.00000  Uiso   1.00
C578   C     0.35479   0.87292   0.26524   0.00000  Uiso   1.00
C579   C     0.51652   0.87213   0.04878   0.00000  Uiso   1.00
C580   C     0.48348   0.79453   0.45122   0.00000  Uiso   1.00
C581   C     0.49262   0.87476   0.45360   0.00000  Uiso   1.00
C582   C     0.50738   0.79190   0.04640   0.00000  Uiso   1.00
C583   C     0.52096   0.87215   0.09480   0.00000  Uiso   1.00
C584   C     0.47904   0.79452   0.40520   0.00000  Uiso   1.00
C585   C     0.48843   0.87609   0.40764   0.00000  Uiso   1.00
C586   C     0.57967   0.83376   0.24449   0.00000  Uiso   1.00
C587   C     0.51157   0.79058   0.09236   0.00000  Uiso   1.00
C588   C     0.51307   0.83170   0.11707   0.00000  Uiso   1.00
C589   C     0.48692   0.83496   0.38293   0.00000  Uiso   1.00
C590   C     0.50532   0.83276   0.02427   0.00000  Uiso   1.00
C591   C     0.49467   0.83390   0.47573   0.00000  Uiso   1.00
C592   C     0.62450   0.83489   0.23759   0.00000  Uiso   1.00
C593   C     0.37550   0.83178   0.26241   0.00000  Uiso   1.00
C594   C     0.55827   0.71641   0.31052   0.00000  Uiso   1.00
C595   C     0.44173   0.95026   0.18948   0.00000  Uiso   1.00
C596   C     0.44071   0.71228   0.19115   0.00000  Uiso   1.00
C597   C     0.50428   0.83288   0.16440   0.00000  Uiso   1.00
C598   C     0.55929   0.95439   0.30885   0.00000  Uiso   1.00
C599   C     0.53639   0.91420   0.11817   0.00000  Uiso   1.00
C600   C     0.46361   0.75247   0.38183   0.00000  Uiso   1.00
C601   C     0.48361   0.92098   0.38748   0.00000  Uiso   1.00
C602   C     0.51638   0.74569   0.11252   0.00000  Uiso   1.00
C603   C     0.36755   0.74825   0.27389   0.00000  Uiso   1.00
C604   C     0.63245   0.91841   0.22611   0.00000  Uiso   1.00
C605   C     0.62665   0.75647   0.20559   0.00000  Uiso   1.00
C606   C     0.37335   0.91019   0.29441   0.00000  Uiso   1.00
C607   C     0.49572   0.83378   0.33560   0.00000  Uiso   1.00
C608   C     0.52750   0.69167   0.27814   0.00000  Uiso   1.00
C609   C     0.47250   0.97500   0.22186   0.00000  Uiso   1.00
C610   C     0.47240   0.68958   0.22203   0.00000  Uiso   1.00
C611   C     0.52759   0.97709   0.27797   0.00000  Uiso   1.00
C612   C     0.35247   0.79123   0.25433   0.00000  Uiso   1.00
H613   H     0.52332   0.90319   0.03282   0.00000  Uiso   1.00
H614   H     0.44826   0.95908   0.15498   0.00000  Uiso   1.00
H615   H     0.44366   0.74853   0.19086   0.00000  Uiso   1.00
H616   H     0.44428   0.70118   0.15637   0.00000  Uiso   1.00
H617   H     0.40827   0.70405   0.20054   0.00000  Uiso   1.00
H618   H     0.55634   0.91814   0.30914   0.00000  Uiso   1.00
H619   H     0.59173   0.96261   0.29946   0.00000  Uiso   1.00
H620   H     0.55572   0.96548   0.34363   0.00000  Uiso   1.00
H621   H     0.55364   0.91291   0.15000   0.00000  Uiso   1.00
H622   H     0.44636   0.75376   0.35000   0.00000  Uiso   1.00
H623   H     0.46489   0.92502   0.35684   0.00000  Uiso   1.00
H624   H     0.47667   0.76347   0.46718   0.00000  Uiso   1.00
H625   H     0.53511   0.74164   0.14316   0.00000  Uiso   1.00
H626   H     0.39894   0.74557   0.28899   0.00000  Uiso   1.00
H627   H     0.60106   0.92109   0.21100   0.00000  Uiso   1.00
H628   H     0.59474   0.75817   0.19143   0.00000  Uiso   1.00
H629   H     0.40526   0.90850   0.30857   0.00000  Uiso   1.00
H630   H     0.49294   0.90638   0.47147   0.00000  Uiso   1.00
H631   H     0.50705   0.76028   0.02853   0.00000  Uiso   1.00
H632   H     0.55735   0.75265   0.30993   0.00000  Uiso   1.00
H633   H     0.55173   0.70758   0.34502   0.00000  Uiso   1.00
H634   H     0.59104   0.70753   0.30370   0.00000  Uiso   1.00
H635   H     0.44265   0.91402   0.19007   0.00000  Uiso   1.00
H636   H     0.40896   0.95914   0.19630   0.00000  Uiso   1.00
N637   N     0.50000   0.95240   0.25000   0.00000  Uiso   1.00
N638   N     0.50000   0.71427   0.25000   0.00000  Uiso   1.00
O639   O     0.43892   0.87154   0.24999   0.00000  Uiso   1.00
O640   O     0.46920   0.71588   0.39840   0.00000  Uiso   1.00
O641   O     0.49958   0.95450   0.40585   0.00000  Uiso   1.00
O642   O     0.50041   0.71216   0.09415   0.00000  Uiso   1.00
O643   O     0.34383   0.71587   0.27675   0.00000  Uiso   1.00
O644   O     0.65616   0.95080   0.22325   0.00000  Uiso   1.00
O645   O     0.64782   0.72507   0.19392   0.00000  Uiso   1.00
O646   O     0.35218   0.94160   0.30608   0.00000  Uiso   1.00
O647   O     0.56108   0.79513   0.25000   0.00000  Uiso   1.00
O648   O     0.56108   0.87154   0.25000   0.00000  Uiso   1.00
O649   O     0.43892   0.79513   0.24999   0.00000  Uiso   1.00
O650   O     0.50000   0.87155   0.18453   0.00000  Uiso   1.00
O651   O     0.50000   0.79511   0.31547   0.00000  Uiso   1.00
O652   O     0.50000   0.87155   0.31547   0.00000  Uiso   1.00
O653   O     0.50000   0.79511   0.18453   0.00000  Uiso   1.00
O654   O     0.53080   0.95079   0.10160   0.00000  Uiso   1.00
Zn655  Zn    0.50000   0.88437   0.25000   0.00000  Uiso   1.00
Zn656  Zn    0.50000   0.78229   0.25000   0.00000  Uiso   1.00
C657   C     0.75366   0.83291   0.25551   0.00000  Uiso   1.00
C658   C     0.98086   0.87543   0.24567   0.00000  Uiso   1.00
C659   C     0.97854   0.79374   0.23476   0.00000  Uiso   1.00
C660   C     0.68812   0.87292   0.26524   0.00000  Uiso   1.00
C661   C     0.84985   0.87213   0.04878   0.00000  Uiso   1.00
C662   C     0.81681   0.79453   0.45122   0.00000  Uiso   1.00
C663   C     0.82595   0.87476   0.45360   0.00000  Uiso   1.00
C664   C     0.84071   0.79190   0.04640   0.00000  Uiso   1.00
C665   C     0.85429   0.87215   0.09480   0.00000  Uiso   1.00
C666   C     0.81237   0.79452   0.40520   0.00000  Uiso   1.00
C667   C     0.82176   0.87609   0.40764   0.00000  Uiso   1.00
C668   C     0.91300   0.83376   0.24449   0.00000  Uiso   1.00
C669   C     0.84490   0.79058   0.09236   0.00000  Uiso   1.00
C670   C     0.84641   0.83170   0.11707   0.00000  Uiso   1.00
C671   C     0.82026   0.83496   0.38293   0.00000  Uiso   1.00
C672   C     0.83866   0.83276   0.02427   0.00000  Uiso   1.00
C673   C     0.82800   0.83390   0.47573   0.00000  Uiso   1.00
C674   C     0.95783   0.83489   0.23759   0.00000  Uiso   1.00
C675   C     0.70883   0.83178   0.26241   0.00000  Uiso   1.00
C676   C     0.89160   0.71641   0.31052   0.00000  Uiso   1.00
C677   C     0.77507   0.95026   0.18948   0.00000  Uiso   1.00
C678   C     0.77404   0.71228   0.19115   0.00000  Uiso   1.00
C679   C     0.83761   0.83288   0.16440   0.00000  Uiso   1.00
C680   C     0.89262   0.95439   0.30885   0.00000  Uiso   1.00
C681   C     0.86972   0.91420   0.11817   0.00000  Uiso   1.00
C682   C     0.79694   0.75247   0.38183   0.00000  Uiso   1.00
C683   C     0.81695   0.92098   0.38748   0.00000  Uiso   1.00
C684   C     0.84972   0.74569   0.11252   0.00000  Uiso   1.00
C685   C     0.70088   0.74825   0.27389   0.00000  Uiso   1.00
C686   C     0.96579   0.91841   0.22611   0.00000  Uiso   1.00
C687   C     0.95998   0.75647   0.20559   0.00000  Uiso   1.00
C688   C     0.70668   0.91019   0.29441   0.00000  Uiso   1.00
C689   C     0.82906   0.83378   0.33560   0.00000  Uiso   1.00
C690   C     0.86083   0.69167   0.27814   0.00000  Uiso   1.00
C691   C     0.80583   0.97500   0.22186   0.00000  Uiso   1.00
C692   C     0.80574   0.68958   0.22203   0.00000  Uiso   1.00
C693   C     0.86093   0.97709   0.27797   0.00000  Uiso   1.00
C694   C     0.68581   0.79123   0.25433   0.00000  Uiso   1.00
H695   H     0.85666   0.90319   0.03282   0.00000  Uiso   1.00
H696   H     0.78160   0.95908   0.15498   0.00000  Uiso   1.00
H697   H     0.77699   0.74853   0.19086   0.00000  Uiso   1.00
H698   H     0.77761   0.70118   0.15637   0.00000  Uiso   1.00
H699   H     0.74161   0.70405   0.20054   0.00000  Uiso   1.00
H700   H     0.88967   0.91814   0.30914   0.00000  Uiso   1.00
H701   H     0.92506   0.96261   0.29946   0.00000  Uiso   1.00
H702   H     0.88905   0.96548   0.34363   0.00000  Uiso   1.00
H703   H     0.88697   0.91291   0.15000   0.00000  Uiso   1.00
H704   H     0.77969   0.75376   0.35000   0.00000  Uiso   1.00
H705   H     0.79822   0.92502   0.35684   0.00000  Uiso   1.00
H706   H     0.81001   0.76347   0.46718   0.00000  Uiso   1.00
H707   H     0.86844   0.74164   0.14316   0.00000  Uiso   1.00
H708   H     0.73227   0.74557   0.28899   0.00000  Uiso   1.00
H709   H     0.93440   0.92109   0.21100   0.00000  Uiso   1.00
H710   H     0.92807   0.75817   0.19143   0.00000  Uiso   1.00
H711   H     0.73859   0.90850   0.30857   0.00000  Uiso   1.00
H712   H     0.82627   0.90638   0.47147   0.00000  Uiso   1.00
H713   H     0.84039   0.76028   0.02853   0.00000  Uiso   1.00
H714   H     0.89069   0.75265   0.30993   0.00000  Uiso   1.00
H715   H     0.88507   0.70758   0.34502   0.00000  Uiso   1.00
H716   H     0.92437   0.70753   0.30370   0.00000  Uiso   1.00
H717   H     0.77598   0.91402   0.19007   0.00000  Uiso   1.00
H718   H     0.74229   0.95914   0.19630   0.00000  Uiso   1.00
N719   N     0.83333   0.95240   0.25000   0.00000  Uiso   1.00
N720   N     0.83333   0.71427   0.25000   0.00000  Uiso   1.00
O721   O     0.77226   0.87154   0.24999   0.00000  Uiso   1.00
O722   O     0.80253   0.71588   0.39840   0.00000  Uiso   1.00
O723   O     0.83292   0.95450   0.40585   0.00000  Uiso   1.00
O724   O     0.83375   0.71216   0.09415   0.00000  Uiso   1.00
O725   O     0.67717   0.71587   0.27675   0.00000  Uiso   1.00
O726   O     0.98950   0.95080   0.22325   0.00000  Uiso   1.00
O727   O     0.98115   0.72507   0.19392   0.00000  Uiso   1.00
O728   O     0.68551   0.94160   0.30608   0.00000  Uiso   1.00
O729   O     0.89441   0.79513   0.25000   0.00000  Uiso   1.00
O730   O     0.89441   0.87154   0.25000   0.00000  Uiso   1.00
O731   O     0.77226   0.79513   0.24999   0.00000  Uiso   1.00
O732   O     0.83333   0.87155   0.18453   0.00000  Uiso   1.00
O733   O     0.83334   0.79511   0.31547   0.00000  Uiso   1.00
O734   O     0.83334   0.87155   0.31547   0.00000  Uiso   1.00
O735   O     0.83333   0.79511   0.18453   0.00000  Uiso   1.00
O736   O     0.86413   0.95079   0.10160   0.00000  Uiso   1.00
Zn737  Zn    0.83333   0.88437   0.25000   0.00000  Uiso   1.00
Zn738  Zn    0.83333   0.78229   0.25000   0.00000  Uiso   1.00
C739   C     0.08700   0.16624   0.75551   0.00000  Uiso   1.00
C740   C     0.31419   0.20877   0.74567   0.00000  Uiso   1.00
C741   C     0.31188   0.12708   0.73476   0.00000  Uiso   1.00
C742   C     0.02146   0.20626   0.76524   0.00000  Uiso   1.00
C743   C     0.18319   0.20546   0.54878   0.00000  Uiso   1.00
C744   C     0.15014   0.12787   0.95122   0.00000  Uiso   1.00
C745   C     0.15929   0.20810   0.95360   0.00000  Uiso   1.00
C746   C     0.17404   0.12523   0.54640   0.00000  Uiso   1.00
C747   C     0.18762   0.20548   0.59480   0.00000  Uiso   1.00
C748   C     0.14571   0.12785   0.90520   0.00000  Uiso   1.00
C749   C     0.15510   0.20942   0.90764   0.00000  Uiso   1.00
C750   C     0.24634   0.16709   0.74449   0.00000  Uiso   1.00
C751   C     0.17823   0.12391   0.59236   0.00000  Uiso   1.00
C752   C     0.17974   0.16504   0.61707   0.00000  Uiso   1.00
C753   C     0.15359   0.16830   0.88293   0.00000  Uiso   1.00
C754   C     0.17199   0.16610   0.52427   0.00000  Uiso   1.00
C755   C     0.16134   0.16724   0.97573   0.00000  Uiso   1.00
C756   C     0.29116   0.16822   0.73759   0.00000  Uiso   1.00
C757   C     0.04217   0.16511   0.76241   0.00000  Uiso   1.00
C758   C     0.22493   0.04974   0.81052   0.00000  Uiso   1.00
C759   C     0.10840   0.28359   0.68948   0.00000  Uiso   1.00
C760   C     0.10738   0.04561   0.69115   0.00000  Uiso   1.00
C761   C     0.17094   0.16622   0.66440   0.00000  Uiso   1.00
C762   C     0.22596   0.28772   0.80885   0.00000  Uiso   1.00
C763   C     0.20306   0.24753   0.61817   0.00000  Uiso   1.00
C764   C     0.13028   0.08580   0.88183   0.00000  Uiso   1.00
C765   C     0.15028   0.25431   0.88748   0.00000  Uiso   1.00
C766   C     0.18305   0.07902   0.61252   0.00000  Uiso   1.00
C767   C     0.03421   0.08158   0.77389   0.00000  Uiso   1.00
C768   C     0.29912   0.25175   0.72611   0.00000  Uiso   1.00
C769   C     0.29332   0.08980   0.70559   0.00000  Uiso   1.00
C770   C     0.04002   0.24353   0.79441   0.00000  Uiso   1.00
C771   C     0.16239   0.16712   0.83560   0.00000  Uiso   1.00
C772   C     0.19417   0.02500   0.77814   0.00000  Uiso   1.00
C773   C     0.13917   0.30833   0.72186   0.00000  Uiso   1.00
C774   C     0.13907   0.02291   0.72203   0.00000  Uiso   1.00
C775   C     0.19426   0.31042   0.77797   0.00000  Uiso   1.00
C776   C     0.01914   0.12456   0.75433   0.00000  Uiso   1.00
H777   H     0.18999   0.23653   0.53282   0.00000  Uiso   1.00
H778   H     0.11493   0.29241   0.65498   0.00000  Uiso   1.00
H779   H     0.11033   0.08186   0.69086   0.00000  Uiso   1.00
H780   H     0.11095   0.03452   0.65637   0.00000  Uiso   1.00
H781   H     0.07494   0.03739   0.70054   0.00000  Uiso   1.00
H782   H     0.22301   0.25147   0.80914   0.00000  Uiso   1.00
H783   H     0.25839   0.29595   0.79946   0.00000  Uiso   1.00
H784   H     0.22238   0.29882   0.84363   0.00000  Uiso   1.00
H785   H     0.22031   0.24624   0.65000   0.00000  Uiso   1.00
H786   H     0.11303   0.08709   0.85000   0.00000  Uiso   1.00
H787   H     0.13156   0.25836   0.85684   0.00000  Uiso   1.00
H788   H     0.14334   0.09681   0.96718   0.00000  Uiso   1.00
H789   H     0.20177   0.07498   0.64316   0.00000  Uiso   1.00
H790   H     0.06560   0.07890   0.78899   0.00000  Uiso   1.00
H791   H     0.26773   0.25443   0.71100   0.00000  Uiso   1.00
H792   H     0.26141   0.09150   0.69143   0.00000  Uiso   1.00
H793   H     0.07193   0.24183   0.80857   0.00000  Uiso   1.00
H794   H     0.15960   0.23972   0.97147   0.00000  Uiso   1.00
H795   H     0.17372   0.09362   0.52853   0.00000  Uiso   1.00
H796   H     0.22402   0.08598   0.80993   0.00000  Uiso   1.00
H797   H     0.21840   0.04092   0.84502   0.00000  Uiso   1.00
H798   H     0.25771   0.04086   0.80370   0.00000  Uiso   1.00
H799   H     0.10931   0.24735   0.69007   0.00000  Uiso   1.00
H800   H     0.07563   0.29247   0.69630   0.00000  Uiso   1.00
N801   N     0.16667   0.28573   0.75000   0.00000  Uiso   1.00
N802   N     0.16667   0.04760   0.75000   0.00000  Uiso   1.00
O803   O     0.10559   0.20487   0.74999   0.00000  Uiso   1.00
O804   O     0.13587   0.04921   0.89840   0.00000  Uiso   1.00
O805   O     0.16625   0.28784   0.90585   0.00000  Uiso   1.00
O806   O     0.16708   0.04550   0.59415   0.00000  Uiso   1.00
O807   O     0.01050   0.04921   0.77675   0.00000  Uiso   1.00
O808   O     0.32283   0.28413   0.72325   0.00000  Uiso   1.00
O809   O     0.31448   0.05840   0.69392   0.00000  Uiso   1.00
O810   O     0.01885   0.27493   0.80608   0.00000  Uiso   1.00
O811   O     0.22774   0.12846   0.75000   0.00000  Uiso   1.00
O812   O     0.22774   0.20487   0.75000   0.00000  Uiso   1.00
O813   O     0.10559   0.12846   0.74999   0.00000  Uiso   1.00
O814   O     0.16666   0.20489   0.68453   0.00000  Uiso   1.00
O815   O     0.16667   0.12845   0.81547   0.00000  Uiso   1.00
O816   O     0.16667   0.20489   0.81547   0.00000  Uiso   1.00
O817   O     0.16666   0.12845   0.68453   0.00000  Uiso   1.00
O818   O     0.19747   0.28412   0.60160   0.00000  Uiso   1.00
Zn819  Zn    0.16667   0.21771   0.75000   0.00000  Uiso   1.00
Zn820  Zn    0.16667   0.11563   0.75000   0.00000  Uiso   1.00
C821   C     0.42033   0.16624   0.75551   0.00000  Uiso   1.00
C822   C     0.64753   0.20877   0.74567   0.00000  Uiso   1.00
C823   C     0.64521   0.12708   0.73476   0.00000  Uiso   1.00
C824   C     0.35479   0.20626   0.76524   0.00000  Uiso   1.00
C825   C     0.51652   0.20546   0.54878   0.00000  Uiso   1.00
C826   C     0.48348   0.12787   0.95122   0.00000  Uiso   1.00
C827   C     0.49262   0.20810   0.95360   0.00000  Uiso   1.00
C828   C     0.50738   0.12523   0.54640   0.00000  Uiso   1.00
C829   C     0.52096   0.20548   0.59480   0.00000  Uiso   1.00
C830   C     0.47904   0.12785   0.90520   0.00000  Uiso   1.00
C831   C     0.48843   0.20942   0.90764   0.00000  Uiso   1.00
C832   C     0.57967   0.16709   0.74449   0.00000  Uiso   1.00
C833   C     0.51157   0.12391   0.59236   0.00000  Uiso   1.00
C834   C     0.51307   0.16504   0.61707   0.00000  Uiso   1.00
C835   C     0.48692   0.16830   0.88293   0.00000  Uiso   1.00
C836   C     0.50532   0.16610   0.52427   0.00000  Uiso   1.00
C837   C     0.49467   0.16724   0.97573   0.00000  Uiso   1.00
C838   C     0.62450   0.16822   0.73759   0.00000  Uiso   1.00
C839   C     0.37550   0.16511   0.76241   0.00000  Uiso   1.00
C840   C     0.55827   0.04974   0.81052   0.00000  Uiso   1.00
C841   C     0.44173   0.28359   0.68948   0.00000  Uiso   1.00
C842   C     0.44071   0.04561   0.69115   0.00000  Uiso   1.00
C843   C     0.50428   0.16622   0.66440   0.00000  Uiso   1.00
C844   C     0.55929   0.28772   0.80885   0.00000  Uiso   1.00
C845   C     0.53639   0.24753   0.61817   0.00000  Uiso   1.00
C846   C     0.46361   0.08580   0.88183   0.00000  Uiso   1.00
C847   C     0.48361   0.25431   0.88748   0.00000  Uiso   1.00
C848   C     0.51638   0.07902   0.61252   0.00000  Uiso   1.00
C849   C     0.36755   0.08158   0.77389   0.00000  Uiso   1.00
C850   C     0.63245   0.25175   0.72611   0.00000  Uiso   1.00
C851   C     0.62665   0.08980   0.70559   0.00000  Uiso   1.00
C852   C     0.37335   0.24353   0.79441   0.00000  Uiso   1.00
C853   C     0.49572   0.16712   0.83560   0.00000  Uiso   1.00
C854   C     0.52750   0.02500   0.77814   0.00000  Uiso   1.00
C855   C     0.47250   0.30833   0.72186   0.00000  Uiso   1.00
C856   C     0.47240   0.02291   0.72203   0.00000  Uiso   1.00
C857   C     0.52759   0.31042   0.77797   0.00000  Uiso   1.00
C858   C     0.35247   0.12456   0.75433   0.00000  Uiso   1.00
H859   H     0.52332   0.23653   0.53282   0.00000  Uiso   1.00
H860   H     0.44826   0.29241   0.65498   0.00000  Uiso   1.00
H861   H     0.44366   0.08186   0.69086   0.00000  Uiso   1.00
H862   H     0.44428   0.03452   0.65637   0.00000  Uiso   1.00
H863   H     0.40827   0.03739   0.70054   0.00000  Uiso   1.00
H864   H     0.55634   0.25147   0.80914   0.00000  Uiso   1.00
H865   H     0.59173   0.29595   0.79946   0.00000  Uiso   1.00
H866   H     0.55572   0.29882   0.84363   0.00000  Uiso   1.00
H867   H     0.55364   0.24624   0.65000   0.00000  Uiso   1.00
H868   H     0.44636   0.08709   0.85000   0.00000  Uiso   1.00
H869   H     0.46489   0.25836   0.85684   0.00000  Uiso   1.00
H870   H     0.47667   0.09681   0.96718   0.00000  Uiso   1.00
H871   H     0.53511   0.07498   0.64316   0.00000  Uiso   1.00
H872   H     0.39894   0.07890   0.78899   0.00000  Uiso   1.00
H873   H     0.60106   0.25443   0.71100   0.00000  Uiso   1.00
H874   H     0.59474   0.09150   0.69143   0.00000  Uiso   1.00
H875   H     0.40526   0.24183   0.80857   0.00000  Uiso   1.00
H876   H     0.49294   0.23972   0.97147   0.00000  Uiso   1.00
H877   H     0.50705   0.09362   0.52853   0.00000  Uiso   1.00
H878   H     0.55735   0.08598   0.80993   0.00000  Uiso   1.00
H879   H     0.55173   0.04092   0.84502   0.00000  Uiso   1.00
H880   H     0.59104   0.04086   0.80370   0.00000  Uiso   1.00
H881   H     0.44265   0.24735   0.69007   0.00000  Uiso   1.00
H882   H     0.40896   0.29247   0.69630   0.00000  Uiso   1.00
N883   N     0.50000   0.28573   0.75000   0.00000  Uiso   1.00
N884   N     0.50000   0.04760   0.75000   0.00000  Uiso   1.00
O885   O     0.43892   0.20487   0.74999   0.00000  Uiso   1.00
O886   O     0.46920   0.04921   0.89840   0.00000  Uiso   1.00
O887   O     0.49958   0.28784   0.90585   0.00000  Uiso   1.00
O888   O     0.50041   0.04550   0.59415   0.00000  Uiso   1.00
O889   O     0.34383   0.04921   0.77675   0.00000  Uiso   1.00
O890   O     0.65616   0.28413   0.72325   0.00000  Uiso   1.00
O891   O     0.64782   0.05840   0.69392   0.00000  Uiso   1.00
O892   O     0.35218   0.27493   0.80608   0.00000  Uiso   1.00
O893   O     0.56108   0.12846   0.75000   0.00000  Uiso   1.00
O894   O     0.56108   0.20487   0.75000   0.00000  Uiso   1.00
O895   O     0.43892   0.12846   0.74999   0.00000  Uiso   1.00
O896   O     0.50000   0.20489   0.68453   0.00000  Uiso   1.00
O897   O     0.50000   0.12845   0.81547   0.00000  Uiso   1.00
O898   O     0.50000   0.20489   0.81547   0.00000  Uiso   1.00
O899   O     0.50000   0.12845   0.68453   0.00000  Uiso   1.00
O900   O     0.53080   0.28412   0.60160   0.00000  Uiso   1.00
Zn901  Zn    0.50000   0.21771   0.75000   0.00000  Uiso   1.00
Zn902  Zn    0.50000   0.11563   0.75000   0.00000  Uiso   1.00
C903   C     0.75366   0.16624   0.75551   0.00000  Uiso   1.00
C904   C     0.98086   0.20877   0.74567   0.00000  Uiso   1.00
C905   C     0.97854   0.12708   0.73476   0.00000  Uiso   1.00
C906   C     0.68812   0.20626   0.76524   0.00000  Uiso   1.00
C907   C     0.84985   0.20546   0.54878   0.00000  Uiso   1.00
C908   C     0.81681   0.12787   0.95122   0.00000  Uiso   1.00
C909   C     0.82595   0.20810   0.95360   0.00000  Uiso   1.00
C910   C     0.84071   0.12523   0.54640   0.00000  Uiso   1.00
C911   C     0.85429   0.20548   0.59480   0.00000  Uiso   1.00
C912   C     0.81237   0.12785   0.90520   0.00000  Uiso   1.00
C913   C     0.82176   0.20942   0.90764   0.00000  Uiso   1.00
C914   C     0.91300   0.16709   0.74449   0.00000  Uiso   1.00
C915   C     0.84490   0.12391   0.59236   0.00000  Uiso   1.00
C916   C     0.84641   0.16504   0.61707   0.00000  Uiso   1.00
C917   C     0.82026   0.16830   0.88293   0.00000  Uiso   1.00
C918   C     0.83866   0.16610   0.52427   0.00000  Uiso   1.00
C919   C     0.82800   0.16724   0.97573   0.00000  Uiso   1.00
C920   C     0.95783   0.16822   0.73759   0.00000  Uiso   1.00
C921   C     0.70883   0.16511   0.76241   0.00000  Uiso   1.00
C922   C     0.89160   0.04974   0.81052   0.00000  Uiso   1.00
C923   C     0.77507   0.28359   0.68948   0.00000  Uiso   1.00
C924   C     0.77404   0.04561   0.69115   0.00000  Uiso   1.00
C925   C     0.83761   0.16622   0.66440   0.00000  Uiso   1.00
C926   C     0.89262   0.28772   0.80885   0.00000  Uiso   1.00
C927   C     0.86972   0.24753   0.61817   0.00000  Uiso   1.00
C928   C     0.79694   0.08580   0.88183   0.00000  Uiso   1.00
C929   C     0.81695   0.25431   0.88748   0.00000  Uiso   1.00
C930   C     0.84972   0.07902   0.61252   0.00000  Uiso   1.00
C931   C     0.70088   0.08158   0.77389   0.00000  Uiso   1.00
C932   C     0.96579   0.25175   0.72611   0.00000  Uiso   1.00
C933   C     0.95998   0.08980   0.70559   0.00000  Uiso   1.00
C934   C     0.70668   0.24353   0.79441   0.00000  Uiso   1.00
C935   C     0.82906   0.16712   0.83560   0.00000  Uiso   1.00
C936   C     0.86083   0.02500   0.77814   0.00000  Uiso   1.00
C937   C     0.80583   0.30833   0.72186   0.00000  Uiso   1.00
C938   C     0.80574   0.02291   0.72203   0.00000  Uiso   1.00
C939   C     0.86093   0.31042   0.77797   0.00000  Uiso   1.00
C940   C     0.68581   0.12456   0.75433   0.00000  Uiso   1.00
H941   H     0.85666   0.23653   0.53282   0.00000  Uiso   1.00
H942   H     0.78160   0.29241   0.65498   0.00000  Uiso   1.00
H943   H     0.77699   0.08186   0.69086   0.00000  Uiso   1.00
H944   H     0.77761   0.03452   0.65637   0.00000  Uiso   1.00
H945   H     0.74161   0.03739   0.70054   0.00000  Uiso   1.00
H946   H     0.88967   0.25147   0.80914   0.00000  Uiso   1.00
H947   H     0.92506   0.29595   0.79946   0.00000  Uiso   1.00
H948   H     0.88905   0.29882   0.84363   0.00000  Uiso   1.00
H949   H     0.88697   0.24624   0.65000   0.00000  Uiso   1.00
H950   H     0.77969   0.08709   0.85000   0.00000  Uiso   1.00
H951   H     0.79822   0.25836   0.85684   0.00000  Uiso   1.00
H952   H     0.81001   0.09681   0.96718   0.00000  Uiso   1.00
H953   H     0.86844   0.07498   0.64316   0.00000  Uiso   1.00
H954   H     0.73227   0.07890   0.78899   0.00000  Uiso   1.00
H955   H     0.93440   0.25443   0.71100   0.00000  Uiso   1.00
H956   H     0.92807   0.09150   0.69143   0.00000  Uiso   1.00
H957   H     0.73859   0.24183   0.80857   0.00000  Uiso   1.00
H958   H     0.82627   0.23972   0.97147   0.00000  Uiso   1.00
H959   H     0.84039   0.09362   0.52853   0.00000  Uiso   1.00
H960   H     0.89069   0.08598   0.80993   0.00000  Uiso   1.00
H961   H     0.88507   0.04092   0.84502   0.00000  Uiso   1.00
H962   H     0.92437   0.04086   0.80370   0.00000  Uiso   1.00
H963   H     0.77598   0.24735   0.69007   0.00000  Uiso   1.00
H964   H     0.74229   0.29247   0.69630   0.00000  Uiso   1.00
N965   N     0.83333   0.28573   0.75000   0.00000  Uiso   1.00
N966   N     0.83333   0.04760   0.75000   0.00000  Uiso   1.00
O967   O     0.77226   0.20487   0.74999   0.00000  Uiso   1.00
O968   O     0.80253   0.04921   0.89840   0.00000  Uiso   1.00
O969   O     0.83292   0.28784   0.90585   0.00000  Uiso   1.00
O970   O     0.83375   0.04550   0.59415   0.00000  Uiso   1.00
O971   O     0.67717   0.04921   0.77675   0.00000  Uiso   1.00
O972   O     0.98950   0.28413   0.72325   0.00000  Uiso   1.00
O973   O     0.98115   0.05840   0.69392   0.00000  Uiso   1.00
O974   O     0.68551   0.27493   0.80608   0.00000  Uiso   1.00
O975   O     0.89441   0.12846   0.75000   0.00000  Uiso   1.00
O976   O     0.89441   0.20487   0.75000   0.00000  Uiso   1.00
O977   O     0.77226   0.12846   0.74999   0.00000  Uiso   1.00
O978   O     0.83333   0.20489   0.68453   0.00000  Uiso   1.00
O979   O     0.83334   0.12845   0.81547   0.00000  Uiso   1.00
O980   O     0.83334   0.20489   0.81547   0.00000  Uiso   1.00
O981   O     0.83333   0.12845   0.68453   0.00000  Uiso   1.00
O982   O     0.86413   0.28412   0.60160   0.00000  Uiso   1.00
Zn983  Zn    0.83333   0.21771   0.75000   0.00000  Uiso   1.00
Zn984  Zn    0.83333   0.11563   0.75000   0.00000  Uiso   1.00
C985   C     0.08700   0.49957   0.75551   0.00000  Uiso   1.00
C986   C     0.31419   0.54210   0.74567   0.00000  Uiso   1.00
C987   C     0.31188   0.46041   0.73476   0.00000  Uiso   1.00
C988   C     0.02146   0.53959   0.76524   0.00000  Uiso   1.00
C989   C     0.18319   0.53880   0.54878   0.00000  Uiso   1.00
C990   C     0.15014   0.46120   0.95122   0.00000  Uiso   1.00
C991   C     0.15929   0.54143   0.95360   0.00000  Uiso   1.00
C992   C     0.17404   0.45857   0.54640   0.00000  Uiso   1.00
C993   C     0.18762   0.53882   0.59480   0.00000  Uiso   1.00
C994   C     0.14571   0.46118   0.90520   0.00000  Uiso   1.00
C995   C     0.15510   0.54275   0.90764   0.00000  Uiso   1.00
C996   C     0.24634   0.50043   0.74449   0.00000  Uiso   1.00
C997   C     0.17823   0.45725   0.59236   0.00000  Uiso   1.00
C998   C     0.17974   0.49837   0.61707   0.00000  Uiso   1.00
C999   C     0.15359   0.50163   0.88293   0.00000  Uiso   1.00
C1000  C     0.17199   0.49943   0.52427   0.00000  Uiso   1.00
C1001  C     0.16134   0.50057   0.97573   0.00000  Uiso   1.00
C1002  C     0.29116   0.50155   0.73759   0.00000  Uiso   1.00
C1003  C     0.04217   0.49845   0.76241   0.00000  Uiso   1.00
C1004  C     0.22493   0.38308   0.81052   0.00000  Uiso   1.00
C1005  C     0.10840   0.61692   0.68948   0.00000  Uiso   1.00
C1006  C     0.10738   0.37895   0.69115   0.00000  Uiso   1.00
C1007  C     0.17094   0.49955   0.66440   0.00000  Uiso   1.00
C1008  C     0.22596   0.62105   0.80885   0.00000  Uiso   1.00
C1009  C     0.20306   0.58087   0.61817   0.00000  Uiso   1.00
C1010  C     0.13028   0.41913   0.88183   0.00000  Uiso   1.00
C1011  C     0.15028   0.58765   0.88748   0.00000  Uiso   1.00
C1012  C     0.18305   0.41235   0.61252   0.00000  Uiso   1.00
C1013  C     0.03421   0.41492   0.77389   0.00000  Uiso   1.00
C1014  C     0.29912   0.58508   0.72611   0.00000  Uiso   1.00
C1015  C     0.29332   0.42314   0.70559   0.00000  Uiso   1.00
C1016  C     0.04002   0.57686   0.79441   0.00000  Uiso   1.00
C1017  C     0.16239   0.50045   0.83560   0.00000  Uiso   1.00
C1018  C     0.19417   0.35833   0.77814   0.00000  Uiso   1.00
C1019  C     0.13917   0.64167   0.72186   0.00000  Uiso   1.00
C1020  C     0.13907   0.35624   0.72203   0.00000  Uiso   1.00
C1021  C     0.19426   0.64376   0.77797   0.00000  Uiso   1.00
C1022  C     0.01914   0.45790   0.75433   0.00000  Uiso   1.00
H1023  H     0.18999   0.56986   0.53282   0.00000  Uiso   1.00
H1024  H     0.11493   0.62575   0.65498   0.00000  Uiso   1.00
H1025  H     0.11033   0.41519   0.69086   0.00000  Uiso   1.00
H1026  H     0.11095   0.36785   0.65637   0.00000  Uiso   1.00
H1027  H     0.07494   0.37072   0.70054   0.00000  Uiso   1.00
H1028  H     0.22301   0.58481   0.80914   0.00000  Uiso   1.00
H1029  H     0.25839   0.62928   0.79946   0.00000  Uiso   1.00
H1030  H     0.22238   0.63215   0.84363   0.00000  Uiso   1.00
H1031  H     0.22031   0.57958   0.65000   0.00000  Uiso   1.00
H1032  H     0.11303   0.42042   0.85000   0.00000  Uiso   1.00
H1033  H     0.13156   0.59169   0.85684   0.00000  Uiso   1.00
H1034  H     0.14334   0.43014   0.96718   0.00000  Uiso   1.00
H1035  H     0.20177   0.40831   0.64316   0.00000  Uiso   1.00
H1036  H     0.06560   0.41224   0.78899   0.00000  Uiso   1.00
H1037  H     0.26773   0.58776   0.71100   0.00000  Uiso   1.00
H1038  H     0.26141   0.42483   0.69143   0.00000  Uiso   1.00
H1039  H     0.07193   0.57517   0.80857   0.00000  Uiso   1.00
H1040  H     0.15960   0.57305   0.97147   0.00000  Uiso   1.00
H1041  H     0.17372   0.42695   0.52853   0.00000  Uiso   1.00
H1042  H     0.22402   0.41932   0.80993   0.00000  Uiso   1.00
H1043  H     0.21840   0.37425   0.84502   0.00000  Uiso   1.00
H1044  H     0.25771   0.37420   0.80370   0.00000  Uiso   1.00
H1045  H     0.10931   0.58068   0.69007   0.00000  Uiso   1.00
H1046  H     0.07563   0.62580   0.69630   0.00000  Uiso   1.00
N1047  N     0.16667   0.61907   0.75000   0.00000  Uiso   1.00
N1048  N     0.16667   0.38093   0.75000   0.00000  Uiso   1.00
O1049  O     0.10559   0.53821   0.74999   0.00000  Uiso   1.00
O1050  O     0.13587   0.38254   0.89840   0.00000  Uiso   1.00
O1051  O     0.16625   0.62117   0.90585   0.00000  Uiso   1.00
O1052  O     0.16708   0.37883   0.59415   0.00000  Uiso   1.00
O1053  O     0.01050   0.38254   0.77675   0.00000  Uiso   1.00
O1054  O     0.32283   0.61746   0.72325   0.00000  Uiso   1.00
O1055  O     0.31448   0.39174   0.69392   0.00000  Uiso   1.00
O1056  O     0.01885   0.60826   0.80608   0.00000  Uiso   1.00
O1057  O     0.22774   0.46179   0.75000   0.00000  Uiso   1.00
O1058  O     0.22774   0.53821   0.75000   0.00000  Uiso   1.00
O1059  O     0.10559   0.46179   0.74999   0.00000  Uiso   1.00
O1060  O     0.16666   0.53822   0.68453   0.00000  Uiso   1.00
O1061  O     0.16667   0.46178   0.81547   0.00000  Uiso   1.00
O1062  O     0.16667   0.53822   0.81547   0.00000  Uiso   1.00
O1063  O     0.16666   0.46178   0.68453   0.00000  Uiso   1.00
O1064  O     0.19747   0.61746   0.60160   0.00000  Uiso   1.00
Zn1065 Zn    0.16667   0.55104   0.75000   0.00000  Uiso   1.00
Zn1066 Zn    0.16667   0.44896   0.75000   0.00000  Uiso   1.00
C1067  C     0.42033   0.49957   0.75551   0.00000  Uiso   1.00
C1068  C     0.64753   0.54210   0.74567   0.00000  Uiso   1.00
C1069  C     0.64521   0.46041   0.73476   0.00000  Uiso   1.00
C1070  C     0.35479   0.53959   0.76524   0.00000  Uiso   1.00
C1071  C     0.51652   0.53880   0.54878   0.00000  Uiso   1.00
C1072  C     0.48348   0.46120   0.95122   0.00000  Uiso   1.00
C1073  C     0.49262   0.54143   0.95360   0.00000  Uiso   1.00
C1074  C     0.50738   0.45857   0.54640   0.00000  Uiso   1.00
C1075  C     0.52096   0.53882   0.59480   0.00000  Uiso   1.00
C1076  C     0.47904   0.46118   0.90520   0.00000  Uiso   1.00
C1077  C     0.48843   0.54275   0.90764   0.00000  Uiso   1.00
C1078  C     0.57967   0.50043   0.74449   0.00000  Uiso   1.00
C1079  C     0.51157   0.45725   0.59236   0.00000  Uiso   1.00
C1080  C     0.51307   0.49837   0.61707   0.00000  Uiso   1.00
C1081  C     0.48692   0.50163   0.88293   0.00000  Uiso   1.00
C1082  C     0.50532   0.49943   0.52427   0.00000  Uiso   1.00
C1083  C     0.49467   0.50057   0.97573   0.00000  Uiso   1.00
C1084  C     0.62450   0.50155   0.73759   0.00000  Uiso   1.00
C1085  C     0.37550   0.49845   0.76241   0.00000  Uiso   1.00
C1086  C     0.55827   0.38308   0.81052   0.00000  Uiso   1.00
C1087  C     0.44173   0.61692   0.68948   0.00000  Uiso   1.00
C1088  C     0.44071   0.37895   0.69115   0.00000  Uiso   1.00
C1089  C     0.50428   0.49955   0.66440   0.00000  Uiso   1.00
C1090  C     0.55929   0.62105   0.80885   0.00000  Uiso   1.00
C1091  C     0.53639   0.58087   0.61817   0.00000  Uiso   1.00
C1092  C     0.46361   0.41913   0.88183   0.00000  Uiso   1.00
C1093  C     0.48361   0.58765   0.88748   0.00000  Uiso   1.00
C1094  C     0.51638   0.41235   0.61252   0.00000  Uiso   1.00
C1095  C     0.36755   0.41492   0.77389   0.00000  Uiso   1.00
C1096  C     0.63245   0.58508   0.72611   0.00000  Uiso   1.00
C1097  C     0.62665   0.42314   0.70559   0.00000  Uiso   1.00
C1098  C     0.37335   0.57686   0.79441   0.00000  Uiso   1.00
C1099  C     0.49572   0.50045   0.83560   0.00000  Uiso   1.00
C1100  C     0.52750   0.35833   0.77814   0.00000  Uiso   1.00
C1101  C     0.47250   0.64167   0.72186   0.00000  Uiso   1.00
C1102  C     0.47240   0.35624   0.72203   0.00000  Uiso   1.00
C1103  C     0.52759   0.64376   0.77797   0.00000  Uiso   1.00
C1104  C     0.35247   0.45790   0.75433   0.00000  Uiso   1.00
H1105  H     0.52332   0.56986   0.53282   0.00000  Uiso   1.00
H1106  H     0.44826   0.62575   0.65498   0.00000  Uiso   1.00
H1107  H     0.44366   0.41519   0.69086   0.00000  Uiso   1.00
H1108  H     0.44428   0.36785   0.65637   0.00000  Uiso   1.00
H1109  H     0.40827   0.37072   0.70054   0.00000  Uiso   1.00
H1110  H     0.55634   0.58481   0.80914   0.00000  Uiso   1.00
H1111  H     0.59173   0.62928   0.79946   0.00000  Uiso   1.00
H1112  H     0.55572   0.63215   0.84363   0.00000  Uiso   1.00
H1113  H     0.55364   0.57958   0.65000   0.00000  Uiso   1.00
H1114  H     0.44636   0.42042   0.85000   0.00000  Uiso   1.00
H1115  H     0.46489   0.59169   0.85684   0.00000  Uiso   1.00
H1116  H     0.47667   0.43014   0.96718   0.00000  Uiso   1.00
H1117  H     0.53511   0.40831   0.64316   0.00000  Uiso   1.00
H1118  H     0.39894   0.41224   0.78899   0.00000  Uiso   1.00
H1119  H     0.60106   0.58776   0.71100   0.00000  Uiso   1.00
H1120  H     0.59474   0.42483   0.69143   0.00000  Uiso   1.00
H1121  H     0.40526   0.57517   0.80857   0.00000  Uiso   1.00
H1122  H     0.49294   0.57305   0.97147   0.00000  Uiso   1.00
H1123  H     0.50705   0.42695   0.52853   0.00000  Uiso   1.00
H1124  H     0.55735   0.41932   0.80993   0.00000  Uiso   1.00
H1125  H     0.55173   0.37425   0.84502   0.00000  Uiso   1.00
H1126  H     0.59104   0.37420   0.80370   0.00000  Uiso   1.00
H1127  H     0.44265   0.58068   0.69007   0.00000  Uiso   1.00
H1128  H     0.40896   0.62580   0.69630   0.00000  Uiso   1.00
N1129  N     0.50000   0.61907   0.75000   0.00000  Uiso   1.00
N1130  N     0.50000   0.38093   0.75000   0.00000  Uiso   1.00
O1131  O     0.43892   0.53821   0.74999   0.00000  Uiso   1.00
O1132  O     0.46920   0.38254   0.89840   0.00000  Uiso   1.00
O1133  O     0.49958   0.62117   0.90585   0.00000  Uiso   1.00
O1134  O     0.50041   0.37883   0.59415   0.00000  Uiso   1.00
O1135  O     0.34383   0.38254   0.77675   0.00000  Uiso   1.00
O1136  O     0.65616   0.61746   0.72325   0.00000  Uiso   1.00
O1137  O     0.64782   0.39174   0.69392   0.00000  Uiso   1.00
O1138  O     0.35218   0.60826   0.80608   0.00000  Uiso   1.00
O1139  O     0.56108   0.46179   0.75000   0.00000  Uiso   1.00
O1140  O     0.56108   0.53821   0.75000   0.00000  Uiso   1.00
O1141  O     0.43892   0.46179   0.74999   0.00000  Uiso   1.00
O1142  O     0.50000   0.53822   0.68453   0.00000  Uiso   1.00
O1143  O     0.50000   0.46178   0.81547   0.00000  Uiso   1.00
O1144  O     0.50000   0.53822   0.81547   0.00000  Uiso   1.00
O1145  O     0.50000   0.46178   0.68453   0.00000  Uiso   1.00
O1146  O     0.53080   0.61746   0.60160   0.00000  Uiso   1.00
Zn1147 Zn    0.50000   0.55104   0.75000   0.00000  Uiso   1.00
Zn1148 Zn    0.50000   0.44896   0.75000   0.00000  Uiso   1.00
C1149  C     0.75366   0.49957   0.75551   0.00000  Uiso   1.00
C1150  C     0.98086   0.54210   0.74567   0.00000  Uiso   1.00
C1151  C     0.97854   0.46041   0.73476   0.00000  Uiso   1.00
C1152  C     0.68812   0.53959   0.76524   0.00000  Uiso   1.00
C1153  C     0.84985   0.53880   0.54878   0.00000  Uiso   1.00
C1154  C     0.81681   0.46120   0.95122   0.00000  Uiso   1.00
C1155  C     0.82595   0.54143   0.95360   0.00000  Uiso   1.00
C1156  C     0.84071   0.45857   0.54640   0.00000  Uiso   1.00
C1157  C     0.85429   0.53882   0.59480   0.00000  Uiso   1.00
C1158  C     0.81237   0.46118   0.90520   0.00000  Uiso   1.00
C1159  C     0.82176   0.54275   0.90764   0.00000  Uiso   1.00
C1160  C     0.91300   0.50043   0.74449   0.00000  Uiso   1.00
C1161  C     0.84490   0.45725   0.59236   0.00000  Uiso   1.00
C1162  C     0.84641   0.49837   0.61707   0.00000  Uiso   1.00
C1163  C     0.82026   0.50163   0.88293   0.00000  Uiso   1.00
C1164  C     0.83866   0.49943   0.52427   0.00000  Uiso   1.00
C1165  C     0.82800   0.50057   0.97573   0.00000  Uiso   1.00
C1166  C     0.95783   0.50155   0.73759   0.00000  Uiso   1.00
C1167  C     0.70883   0.49845   0.76241   0.00000  Uiso   1.00
C1168  C     0.89160   0.38308   0.81052   0.00000  Uiso   1.00
C1169  C     0.77507   0.61692   0.68948   0.00000  Uiso   1.00
C1170  C     0.77404   0.37895   0.69115   0.00000  Uiso   1.00
C1171  C     0.83761   0.49955   0.66440   0.00000  Uiso   1.00
C1172  C     0.89262   0.62105   0.80885   0.00000  Uiso   1.00
C1173  C     0.86972   0.58087   0.61817   0.00000  Uiso   1.00
C1174  C     0.79694   0.41913   0.88183   0.00000  Uiso   1.00
C1175  C     0.81695   0.58765   0.88748   0.00000  Uiso   1.00
C1176  C     0.84972   0.41235   0.61252   0.00000  Uiso   1.00
C1177  C     0.70088   0.41492   0.77389   0.00000  Uiso   1.00
C1178  C     0.96579   0.58508   0.72611   0.00000  Uiso   1.00
C1179  C     0.95998   0.42314   0.70559   0.00000  Uiso   1.00
C1180  C     0.70668   0.57686   0.79441   0.00000  Uiso   1.00
C1181  C     0.82906   0.50045   0.83560   0.00000  Uiso   1.00
C1182  C     0.86083   0.35833   0.77814   0.00000  Uiso   1.00
C1183  C     0.80583   0.64167   0.72186   0.00000  Uiso   1.00
C1184  C     0.80574   0.35624   0.72203   0.00000  Uiso   1.00
C1185  C     0.86093   0.64376   0.77797   0.00000  Uiso   1.00
C1186  C     0.68581   0.45790   0.75433   0.00000  Uiso   1.00
H1187  H     0.85666   0.56986   0.53282   0.00000  Uiso   1.00
H1188  H     0.78160   0.62575   0.65498   0.00000  Uiso   1.00
H1189  H     0.77699   0.41519   0.69086   0.00000  Uiso   1.00
H1190  H     0.77761   0.36785   0.65637   0.00000  Uiso   1.00
H1191  H     0.74161   0.37072   0.70054   0.00000  Uiso   1.00
H1192  H     0.88967   0.58481   0.80914   0.00000  Uiso   1.00
H1193  H     0.92506   0.62928   0.79946   0.00000  Uiso   1.00
H1194  H     0.88905   0.63215   0.84363   0.00000  Uiso   1.00
H1195  H     0.88697   0.57958   0.65000   0.00000  Uiso   1.00
H1196  H     0.77969   0.42042   0.85000   0.00000  Uiso   1.00
H1197  H     0.79822   0.59169   0.85684   0.00000  Uiso   1.00
H1198  H     0.81001   0.43014   0.96718   0.00000  Uiso   1.00
H1199  H     0.86844   0.40831   0.64316   0.00000  Uiso   1.00
H1200  H     0.73227   0.41224   0.78899   0.00000  Uiso   1.00
H1201  H     0.93440   0.58776   0.71100   0.00000  Uiso   1.00
H1202  H     0.92807   0.42483   0.69143   0.00000  Uiso   1.00
H1203  H     0.73859   0.57517   0.80857   0.00000  Uiso   1.00
H1204  H     0.82627   0.57305   0.97147   0.00000  Uiso   1.00
H1205  H     0.84039   0.42695   0.52853   0.00000  Uiso   1.00
H1206  H     0.89069   0.41932   0.80993   0.00000  Uiso   1.00
H1207  H     0.88507   0.37425   0.84502   0.00000  Uiso   1.00
H1208  H     0.92437   0.37420   0.80370   0.00000  Uiso   1.00
H1209  H     0.77598   0.58068   0.69007   0.00000  Uiso   1.00
H1210  H     0.74229   0.62580   0.69630   0.00000  Uiso   1.00
N1211  N     0.83333   0.61907   0.75000   0.00000  Uiso   1.00
N1212  N     0.83333   0.38093   0.75000   0.00000  Uiso   1.00
O1213  O     0.77226   0.53821   0.74999   0.00000  Uiso   1.00
O1214  O     0.80253   0.38254   0.89840   0.00000  Uiso   1.00
O1215  O     0.83292   0.62117   0.90585   0.00000  Uiso   1.00
O1216  O     0.83375   0.37883   0.59415   0.00000  Uiso   1.00
O1217  O     0.67717   0.38254   0.77675   0.00000  Uiso   1.00
O1218  O     0.98950   0.61746   0.72325   0.00000  Uiso   1.00
O1219  O     0.98115   0.39174   0.69392   0.00000  Uiso   1.00
O1220  O     0.68551   0.60826   0.80608   0.00000  Uiso   1.00
O1221  O     0.89441   0.46179   0.75000   0.00000  Uiso   1.00
O1222  O     0.89441   0.53821   0.75000   0.00000  Uiso   1.00
O1223  O     0.77226   0.46179   0.74999   0.00000  Uiso   1.00
O1224  O     0.83333   0.53822   0.68453   0.00000  Uiso   1.00
O1225  O     0.83334   0.46178   0.81547   0.00000  Uiso   1.00
O1226  O     0.83334   0.53822   0.81547   0.00000  Uiso   1.00
O1227  O     0.83333   0.46178   0.68453   0.00000  Uiso   1.00
O1228  O     0.86413   0.61746   0.60160   0.00000  Uiso   1.00
Zn1229 Zn    0.83333   0.55104   0.75000   0.00000  Uiso   1.00
Zn1230 Zn    0.83333   0.44896   0.75000   0.00000  Uiso   1.00
C1231  C     0.08700   0.83291   0.75551   0.00000  Uiso   1.00
C1232  C     0.31419   0.87543   0.74567   0.00000  Uiso   1.00
C1233  C     0.31188   0.79374   0.73476   0.00000  Uiso   1.00
C1234  C     0.02146   0.87292   0.76524   0.00000  Uiso   1.00
C1235  C     0.18319   0.87213   0.54878   0.00000  Uiso   1.00
C1236  C     0.15014   0.79453   0.95122   0.00000  Uiso   1.00
C1237  C     0.15929   0.87476   0.95360   0.00000  Uiso   1.00
C1238  C     0.17404   0.79190   0.54640   0.00000  Uiso   1.00
C1239  C     0.18762   0.87215   0.59480   0.00000  Uiso   1.00
C1240  C     0.14571   0.79452   0.90520   0.00000  Uiso   1.00
C1241  C     0.15510   0.87609   0.90764   0.00000  Uiso   1.00
C1242  C     0.24634   0.83376   0.74449   0.00000  Uiso   1.00
C1243  C     0.17823   0.79058   0.59236   0.00000  Uiso   1.00
C1244  C     0.17974   0.83170   0.61707   0.00000  Uiso   1.00
C1245  C     0.15359   0.83496   0.88293   0.00000  Uiso   1.00
C1246  C     0.17199   0.83276   0.52427   0.00000  Uiso   1.00
C1247  C     0.16134   0.83390   0.97573   0.00000  Uiso   1.00
C1248  C     0.29116   0.83489   0.73759   0.00000  Uiso   1.00
C1249  C     0.04217   0.83178   0.76241   0.00000  Uiso   1.00
C1250  C     0.22493   0.71641   0.81052   0.00000  Uiso   1.00
C1251  C     0.10840   0.95026   0.68948   0.00000  Uiso   1.00
C1252  C     0.10738   0.71228   0.69115   0.00000  Uiso   1.00
C1253  C     0.17094   0.83288   0.66440   0.00000  Uiso   1.00
C1254  C     0.22596   0.95439   0.80885   0.00000  Uiso   1.00
C1255  C     0.20306   0.91420   0.61817   0.00000  Uiso   1.00
C1256  C     0.13028   0.75247   0.88183   0.00000  Uiso   1.00
C1257  C     0.15028   0.92098   0.88748   0.00000  Uiso   1.00
C1258  C     0.18305   0.74569   0.61252   0.00000  Uiso   1.00
C1259  C     0.03421   0.74825   0.77389   0.00000  Uiso   1.00
C1260  C     0.29912   0.91841   0.72611   0.00000  Uiso   1.00
C1261  C     0.29332   0.75647   0.70559   0.00000  Uiso   1.00
C1262  C     0.04002   0.91019   0.79441   0.00000  Uiso   1.00
C1263  C     0.16239   0.83378   0.83560   0.00000  Uiso   1.00
C1264  C     0.19417   0.69167   0.77814   0.00000  Uiso   1.00
C1265  C     0.13917   0.97500   0.72186   0.00000  Uiso   1.00
C1266  C     0.13907   0.68958   0.72203   0.00000  Uiso   1.00
C1267  C     0.19426   0.97709   0.77797   0.00000  Uiso   1.00
C1268  C     0.01914   0.79123   0.75433   0.00000  Uiso   1.00
H1269  H     0.18999   0.90319   0.53282   0.00000  Uiso   1.00
H1270  H     0.11493   0.95908   0.65498   0.00000  Uiso   1.00
H1271  H     0.11033   0.74853   0.69086   0.00000  Uiso   1.00
H1272  H     0.11095   0.70118   0.65637   0.00000  Uiso   1.00
H1273  H     0.07494   0.70405   0.70054   0.00000  Uiso   1.00
H1274  H     0.22301   0.91814   0.80914   0.00000  Uiso   1.00
H1275  H     0.25839   0.96261   0.79946   0.00000  Uiso   1.00
H1276  H     0.22238   0.96548   0.84363   0.00000  Uiso   1.00
H1277  H     0.22031   0.91291   0.65000   0.00000  Uiso   1.00
H1278  H     0.11303   0.75376   0.85000   0.00000  Uiso   1.00
H1279  H     0.13156   0.92502   0.85684   0.00000  Uiso   1.00
H1280  H     0.14334   0.76347   0.96718   0.00000  Uiso   1.00
H1281  H     0.20177   0.74164   0.64316   0.00000  Uiso   1.00
H1282  H     0.06560   0.74557   0.78899   0.00000  Uiso   1.00
H1283  H     0.26773   0.92109   0.71100   0.00000  Uiso   1.00
H1284  H     0.26141   0.75817   0.69143   0.00000  Uiso   1.00
H1285  H     0.07193   0.90850   0.80857   0.00000  Uiso   1.00
H1286  H     0.15960   0.90638   0.97147   0.00000  Uiso   1.00
H1287  H     0.17372   0.76028   0.52853   0.00000  Uiso   1.00
H1288  H     0.22402   0.75265   0.80993   0.00000  Uiso   1.00
H1289  H     0.21840   0.70758   0.84502   0.00000  Uiso   1.00
H1290  H     0.25771   0.70753   0.80370   0.00000  Uiso   1.00
H1291  H     0.10931   0.91402   0.69007   0.00000  Uiso   1.00
H1292  H     0.07563   0.95914   0.69630   0.00000  Uiso   1.00
N1293  N     0.16667   0.95240   0.75000   0.00000  Uiso   1.00
N1294  N     0.16667   0.71427   0.75000   0.00000  Uiso   1.00
O1295  O     0.10559   0.87154   0.74999   0.00000  Uiso   1.00
O1296  O     0.13587   0.71588   0.89840   0.00000  Uiso   1.00
O1297  O     0.16625   0.95450   0.90585   0.00000  Uiso   1.00
O1298  O     0.16708   0.71216   0.59415   0.00000  Uiso   1.00
O1299  O     0.01050   0.71587   0.77675   0.00000  Uiso   1.00
O1300  O     0.32283   0.95080   0.72325   0.00000  Uiso   1.00
O1301  O     0.31448   0.72507   0.69392   0.00000  Uiso   1.00
O1302  O     0.01885   0.94160   0.80608   0.00000  Uiso   1.00
O1303  O     0.22774   0.79513   0.75000   0.00000  Uiso   1.00
O1304  O     0.22774   0.87154   0.75000   0.00000  Uiso   1.00
O1305  O     0.10559   0.79513   0.74999   0.00000  Uiso   1.00
O1306  O     0.16666   0.87155   0.68453   0.00000  Uiso   1.00
O1307  O     0.16667   0.79511   0.81547   0.00000  Uiso   1.00
O1308  O     0.16667   0.87155   0.81547   0.00000  Uiso   1.00
O1309  O     0.16666   0.79511   0.68453   0.00000  Uiso   1.00
O1310  O     0.19747   0.95079   0.60160   0.00000  Uiso   1.00
Zn1311 Zn    0.16667   0.88437   0.75000   0.00000  Uiso   1.00
Zn1312 Zn    0.16667   0.78229   0.75000   0.00000  Uiso   1.00
C1313  C     0.42033   0.83291   0.75551   0.00000  Uiso   1.00
C1314  C     0.64753   0.87543   0.74567   0.00000  Uiso   1.00
C1315  C     0.64521   0.79374   0.73476   0.00000  Uiso   1.00
C1316  C     0.35479   0.87292   0.76524   0.00000  Uiso   1.00
C1317  C     0.51652   0.87213   0.54878   0.00000  Uiso   1.00
C1318  C     0.48348   0.79453   0.95122   0.00000  Uiso   1.00
C1319  C     0.49262   0.87476   0.95360   0.00000  Uiso   1.00
C1320  C     0.50738   0.79190   0.54640   0.00000  Uiso   1.00
C1321  C     0.52096   0.87215   0.59480   0.00000  Uiso   1.00
C1322  C     0.47904   0.79452   0.90520   0.00000  Uiso   1.00
C1323  C     0.48843   0.87609   0.90764   0.00000  Uiso   1.00
C1324  C     0.57967   0.83376   0.74449   0.00000  Uiso   1.00
C1325  C     0.51157   0.79058   0.59236   0.00000  Uiso   1.00
C1326  C     0.51307   0.83170   0.61707   0.00000  Uiso   1.00
C1327  C     0.48692   0.83496   0.88293   0.00000  Uiso   1.00
C1328  C     0.50532   0.83276   0.52427   0.00000  Uiso   1.00
C1329  C     0.49467   0.83390   0.97573   0.00000  Uiso   1.00
C1330  C     0.62450   0.83489   0.73759   0.00000  Uiso   1.00
C1331  C     0.37550   0.83178   0.76241   0.00000  Uiso   1.00
C1332  C     0.55827   0.71641   0.81052   0.00000  Uiso   1.00
C1333  C     0.44173   0.95026   0.68948   0.00000  Uiso   1.00
C1334  C     0.44071   0.71228   0.69115   0.00000  Uiso   1.00
C1335  C     0.50428   0.83288   0.66440   0.00000  Uiso   1.00
C1336  C     0.55929   0.95439   0.80885   0.00000  Uiso   1.00
C1337  C     0.53639   0.91420   0.61817   0.00000  Uiso   1.00
C1338  C     0.46361   0.75247   0.88183   0.00000  Uiso   1.00
C1339  C     0.48361   0.92098   0.88748   0.00000  Uiso   1.00
C1340  C     0.51638   0.74569   0.61252   0.00000  Uiso   1.00
C1341  C     0.36755   0.74825   0.77389   0.00000  Uiso   1.00
C1342  C     0.63245   0.91841   0.72611   0.00000  Uiso   1.00
C1343  C     0.62665   0.75647   0.70559   0.00000  Uiso   1.00
C1344  C     0.37335   0.91019   0.79441   0.00000  Uiso   1.00
C1345  C     0.49572   0.83378   0.83560   0.00000  Uiso   1.00
C1346  C     0.52750   0.69167   0.77814   0.00000  Uiso   1.00
C1347  C     0.47250   0.97500   0.72186   0.00000  Uiso   1.00
C1348  C     0.47240   0.68958   0.72203   0.00000  Uiso   1.00
C1349  C     0.52759   0.97709   0.77797   0.00000  Uiso   1.00
C1350  C     0.35247   0.79123   0.75433   0.00000  Uiso   1.00
H1351  H     0.52332   0.90319   0.53282   0.00000  Uiso   1.00
H1352  H     0.44826   0.95908   0.65498   0.00000  Uiso   1.00
H1353  H     0.44366   0.74853   0.69086   0.00000  Uiso   1.00
H1354  H     0.44428   0.70118   0.65637   0.00000  Uiso   1.00
H1355  H     0.40827   0.70405   0.70054   0.00000  Uiso   1.00
H1356  H     0.55634   0.91814   0.80914   0.00000  Uiso   1.00
H1357  H     0.59173   0.96261   0.79946   0.00000  Uiso   1.00
H1358  H     0.55572   0.96548   0.84363   0.00000  Uiso   1.00
H1359  H     0.55364   0.91291   0.65000   0.00000  Uiso   1.00
H1360  H     0.44636   0.75376   0.85000   0.00000  Uiso   1.00
H1361  H     0.46489   0.92502   0.85684   0.00000  Uiso   1.00
H1362  H     0.47667   0.76347   0.96718   0.00000  Uiso   1.00
H1363  H     0.53511   0.74164   0.64316   0.00000  Uiso   1.00
H1364  H     0.39894   0.74557   0.78899   0.00000  Uiso   1.00
H1365  H     0.60106   0.92109   0.71100   0.00000  Uiso   1.00
H1366  H     0.59474   0.75817   0.69143   0.00000  Uiso   1.00
H1367  H     0.40526   0.90850   0.80857   0.00000  Uiso   1.00
H1368  H     0.49294   0.90638   0.97147   0.00000  Uiso   1.00
H1369  H     0.50705   0.76028   0.52853   0.00000  Uiso   1.00
H1370  H     0.55735   0.75265   0.80993   0.00000  Uiso   1.00
H1371  H     0.55173   0.70758   0.84502   0.00000  Uiso   1.00
H1372  H     0.59104   0.70753   0.80370   0.00000  Uiso   1.00
H1373  H     0.44265   0.91402   0.69007   0.00000  Uiso   1.00
H1374  H     0.40896   0.95914   0.69630   0.00000  Uiso   1.00
N1375  N     0.50000   0.95240   0.75000   0.00000  Uiso   1.00
N1376  N     0.50000   0.71427   0.75000   0.00000  Uiso   1.00
O1377  O     0.43892   0.87154   0.74999   0.00000  Uiso   1.00
O1378  O     0.46920   0.71588   0.89840   0.00000  Uiso   1.00
O1379  O     0.49958   0.95450   0.90585   0.00000  Uiso   1.00
O1380  O     0.50041   0.71216   0.59415   0.00000  Uiso   1.00
O1381  O     0.34383   0.71587   0.77675   0.00000  Uiso   1.00
O1382  O     0.65616   0.95080   0.72325   0.00000  Uiso   1.00
O1383  O     0.64782   0.72507   0.69392   0.00000  Uiso   1.00
O1384  O     0.35218   0.94160   0.80608   0.00000  Uiso   1.00
O1385  O     0.56108   0.79513   0.75000   0.00000  Uiso   1.00
O1386  O     0.56108   0.87154   0.75000   0.00000  Uiso   1.00
O1387  O     0.43892   0.79513   0.74999   0.00000  Uiso   1.00
O1388  O     0.50000   0.87155   0.68453   0.00000  Uiso   1.00
O1389  O     0.50000   0.79511   0.81547   0.00000  Uiso   1.00
O1390  O     0.50000   0.87155   0.81547   0.00000  Uiso   1.00
O1391  O     0.50000   0.79511   0.68453   0.00000  Uiso   1.00
O1392  O     0.53080   0.95079   0.60160   0.00000  Uiso   1.00
Zn1393 Zn    0.50000   0.88437   0.75000   0.00000  Uiso   1.00
Zn1394 Zn    0.50000   0.78229   0.75000   0.00000  Uiso   1.00
C1395  C     0.75366   0.83291   0.75551   0.00000  Uiso   1.00
C1396  C     0.98086   0.87543   0.74567   0.00000  Uiso   1.00
C1397  C     0.97854   0.79374   0.73476   0.00000  Uiso   1.00
C1398  C     0.68812   0.87292   0.76524   0.00000  Uiso   1.00
C1399  C     0.84985   0.87213   0.54878   0.00000  Uiso   1.00
C1400  C     0.81681   0.79453   0.95122   0.00000  Uiso   1.00
C1401  C     0.82595   0.87476   0.95360   0.00000  Uiso   1.00
C1402  C     0.84071   0.79190   0.54640   0.00000  Uiso   1.00
C1403  C     0.85429   0.87215   0.59480   0.00000  Uiso   1.00
C1404  C     0.81237   0.79452   0.90520   0.00000  Uiso   1.00
C1405  C     0.82176   0.87609   0.90764   0.00000  Uiso   1.00
C1406  C     0.91300   0.83376   0.74449   0.00000  Uiso   1.00
C1407  C     0.84490   0.79058   0.59236   0.00000  Uiso   1.00
C1408  C     0.84641   0.83170   0.61707   0.00000  Uiso   1.00
C1409  C     0.82026   0.83496   0.88293   0.00000  Uiso   1.00
C1410  C     0.83866   0.83276   0.52427   0.00000  Uiso   1.00
C1411  C     0.82800   0.83390   0.97573   0.00000  Uiso   1.00
C1412  C     0.95783   0.83489   0.73759   0.00000  Uiso   1.00
C1413  C     0.70883   0.83178   0.76241   0.00000  Uiso   1.00
C1414  C     0.89160   0.71641   0.81052   0.00000  Uiso   1.00
C1415  C     0.77507   0.95026   0.68948   0.00000  Uiso   1.00
C1416  C     0.77404   0.71228   0.69115   0.00000  Uiso   1.00
C1417  C     0.83761   0.83288   0.66440   0.00000  Uiso   1.00
C1418  C     0.89262   0.95439   0.80885   0.00000  Uiso   1.00
C1419  C     0.86972   0.91420   0.61817   0.00000  Uiso   1.00
C1420  C     0.79694   0.75247   0.88183   0.00000  Uiso   1.00
C1421  C     0.81695   0.92098   0.88748   0.00000  Uiso   1.00
C1422  C     0.84972   0.74569   0.61252   0.00000  Uiso   1.00
C1423  C     0.70088   0.74825   0.77389   0.00000  Uiso   1.00
C1424  C     0.96579   0.91841   0.72611   0.00000  Uiso   1.00
C1425  C     0.95998   0.75647   0.70559   0.00000  Uiso   1.00
C1426  C     0.70668   0.91019   0.79441   0.00000  Uiso   1.00
C1427  C     0.82906   0.83378   0.83560   0.00000  Uiso   1.00
C1428  C     0.86083   0.69167   0.77814   0.00000  Uiso   1.00
C1429  C     0.80583   0.97500   0.72186   0.00000  Uiso   1.00
C1430  C     0.80574   0.68958   0.72203   0.00000  Uiso   1.00
C1431  C     0.86093   0.97709   0.77797   0.00000  Uiso   1.00
C1432  C     0.68581   0.79123   0.75433   0.00000  Uiso   1.00
H1433  H     0.85666   0.90319   0.53282   0.00000  Uiso   1.00
H1434  H     0.78160   0.95908   0.65498   0.00000  Uiso   1.00
H1435  H     0.77699   0.74853   0.69086   0.00000  Uiso   1.00
H1436  H     0.77761   0.70118   0.65637   0.00000  Uiso   1.00
H1437  H     0.74161   0.70405   0.70054   0.00000  Uiso   1.00
H1438  H     0.88967   0.91814   0.80914   0.00000  Uiso   1.00
H1439  H     0.92506   0.96261   0.79946   0.00000  Uiso   1.00
H1440  H     0.88905   0.96548   0.84363   0.00000  Uiso   1.00
H1441  H     0.88697   0.91291   0.65000   0.00000  Uiso   1.00
H1442  H     0.77969   0.75376   0.85000   0.00000  Uiso   1.00
H1443  H     0.79822   0.92502   0.85684   0.00000  Uiso   1.00
H1444  H     0.81001   0.76347   0.96718   0.00000  Uiso   1.00
H1445  H     0.86844   0.74164   0.64316   0.00000  Uiso   1.00
H1446  H     0.73227   0.74557   0.78899   0.00000  Uiso   1.00
H1447  H     0.93440   0.92109   0.71100   0.00000  Uiso   1.00
H1448  H     0.92807   0.75817   0.69143   0.00000  Uiso   1.00
H1449  H     0.73859   0.90850   0.80857   0.00000  Uiso   1.00
H1450  H     0.82627   0.90638   0.97147   0.00000  Uiso   1.00
H1451  H     0.84039   0.76028   0.52853   0.00000  Uiso   1.00
H1452  H     0.89069   0.75265   0.80993   0.00000  Uiso   1.00
H1453  H     0.88507   0.70758   0.84502   0.00000  Uiso   1.00
H1454  H     0.92437   0.70753   0.80370   0.00000  Uiso   1.00
H1455  H     0.77598   0.91402   0.69007   0.00000  Uiso   1.00
H1456  H     0.74229   0.95914   0.69630   0.00000  Uiso   1.00
N1457  N     0.83333   0.95240   0.75000   0.00000  Uiso   1.00
N1458  N     0.83333   0.71427   0.75000   0.00000  Uiso   1.00
O1459  O     0.77226   0.87154   0.74999   0.00000  Uiso   1.00
O1460  O     0.80253   0.71588   0.89840   0.00000  Uiso   1.00
O1461  O     0.83292   0.95450   0.90585   0.00000  Uiso   1.00
O1462  O     0.83375   0.71216   0.59415   0.00000  Uiso   1.00
O1463  O     0.67717   0.71587   0.77675   0.00000  Uiso   1.00
O1464  O     0.98950   0.95080   0.72325   0.00000  Uiso   1.00
O1465  O     0.98115   0.72507   0.69392   0.00000  Uiso   1.00
O1466  O     0.68551   0.94160   0.80608   0.00000  Uiso   1.00
O1467  O     0.89441   0.79513   0.75000   0.00000  Uiso   1.00
O1468  O     0.89441   0.87154   0.75000   0.00000  Uiso   1.00
O1469  O     0.77226   0.79513   0.74999   0.00000  Uiso   1.00
O1470  O     0.83333   0.87155   0.68453   0.00000  Uiso   1.00
O1471  O     0.83334   0.79511   0.81547   0.00000  Uiso   1.00
O1472  O     0.83334   0.87155   0.81547   0.00000  Uiso   1.00
O1473  O     0.83333   0.79511   0.68453   0.00000  Uiso   1.00
O1474  O     0.86413   0.95079   0.60160   0.00000  Uiso   1.00
Zn1475 Zn    0.83333   0.88437   0.75000   0.00000  Uiso   1.00
Zn1476 Zn    0.83333   0.78229   0.75000   0.00000  Uiso   1.00
loop_
_geom_bond_atom_site_label_1
_geom_bond_atom_site_label_2
_geom_bond_distance
_geom_bond_site_symmetry_2
_ccdc_geom_bond_type
C1     O65     1.303   .     A
C1     C19     1.452   .     S
C1     O75     1.294   .     A
C2     C18     1.411   .     A
C2     C30     1.498   .     S
C2     C86     1.394   .     S
C3     C18     1.407   .     A
C3     C31     1.496   .     S
C3     C120    1.394   .     S
C4     C19     1.407   .     A
C4     C32     1.496   .     S
C4     C166    1.394   1_455 S
C5     C16     1.404   .     A
C5     C9      1.389   .     A
C5     H39     1.076   .     S
C6     H50     1.076   .     S
C6     C17     1.404   .     A
C6     C10     1.389   .     A
C7     C11     1.388   .     A
C7     C17     1.402   .     A
C7     H56     1.076   .     S
C8     C13     1.388   .     A
C8     C16     1.402   .     A
C8     H57     1.076   .     S
C9     C25     1.488   .     S
C9     C14     1.417   .     A
C10    C15     1.417   .     A
C10    C26     1.488   .     S
C11    C15     1.421   .     A
C11    C27     1.488   .     S
C12    O74     1.294   .     A
C12    O73     1.303   .     A
C12    C18     1.452   .     S
C13    C28     1.488   .     S
C13    C14     1.421   .     A
C14    C23     1.472   .     S
C15    C33     1.472   .     S
C16    C755    1.487   1_554 S
C17    C754    1.487   .     S
C19    C38     1.411   .     A
C20    H60     1.110   .     S
C20    C34     1.515   .     S
C20    H59     1.109   .     S
C20    H58     1.082   .     S
C21    H61     1.082   .     S
C21    H62     1.110   .     S
C21    C35     1.515   .     S
C21    H40     1.109   .     S
C22    H41     1.083   .     S
C22    H43     1.109   .     S
C22    C36     1.513   .     S
C22    H42     1.107   .     S
C23    O76     1.305   .     A
C23    O79     1.299   .     A
C24    H45     1.109   .     S
C24    C37     1.513   .     S
C24    H44     1.083   .     S
C24    H46     1.107   .     S
C25    O80     1.221   .     D
C25    H47     1.082   .     S
C26    H48     1.082   .     S
C26    O66     1.221   .     D
C27    O67     1.221   .     D
C27    H49     1.082   .     S
C28    O68     1.221   .     D
C28    H51     1.082   .     S
C29    C38     1.498   .     S
C29    O69     1.221   .     D
C29    H52     1.079   .     S
C30    O70     1.221   .     D
C30    H53     1.079   .     S
C31    O71     1.221   .     D
C31    H54     1.082   .     S
C32    O72     1.221   .     D
C32    H55     1.082   .     S
C33    O78     1.299   .     A
C33    O77     1.305   .     A
C34    N64     1.380   .     A
C34    C529    1.428   1_545 S
C35    N63     1.380   .     A
C35    C282    1.428   .     S
C36    N64     1.376   .     A
C36    C527    1.428   1_545 S
C37    N63     1.376   .     A
C37    C280    1.428   .     S
C38    C167    1.394   1_455 S
N63    Zn81    2.028   .     S
N64    Zn82    2.028   .     S
O65    Zn81    1.973   .     S
O73    Zn82    1.973   .     S
O74    Zn81    1.987   .     S
O75    Zn82    1.987   .     S
O76    Zn81    2.006   .     S
O77    Zn82    2.006   .     S
O78    Zn81    2.021   .     S
O79    Zn82    2.021   .     S
C83    O147    1.303   .     A
C83    C101    1.452   .     S
C83    O157    1.294   .     A
C84    C100    1.411   .     A
C84    C112    1.498   .     S
C84    C168    1.394   .     S
C85    C100    1.407   .     A
C85    C113    1.496   .     S
C85    C202    1.394   .     S
C86    C101    1.407   .     A
C86    C114    1.496   .     S
C87    C98     1.404   .     A
C87    C91     1.389   .     A
C87    H121    1.076   .     S
C88    H132    1.076   .     S
C88    C99     1.404   .     A
C88    C92     1.389   .     A
C89    C93     1.388   .     A
C89    C99     1.402   .     A
C89    H138    1.076   .     S
C90    C95     1.388   .     A
C90    C98     1.402   .     A
C90    H139    1.076   .     S
C91    C107    1.488   .     S
C91    C96     1.417   .     A
C92    C97     1.417   .     A
C92    C108    1.488   .     S
C93    C97     1.421   .     A
C93    C109    1.488   .     S
C94    O156    1.294   .     A
C94    O155    1.303   .     A
C94    C100    1.452   .     S
C95    C110    1.488   .     S
C95    C96     1.421   .     A
C96    C105    1.472   .     S
C97    C115    1.472   .     S
C98    C837    1.487   1_554 S
C99    C836    1.487   .     S
C101   C120    1.411   .     A
C102   H142    1.110   .     S
C102   C116    1.515   .     S
C102   H141    1.109   .     S
C102   H140    1.082   .     S
C103   H143    1.082   .     S
C103   H144    1.110   .     S
C103   C117    1.515   .     S
C103   H122    1.109   .     S
C104   H123    1.083   .     S
C104   H125    1.109   .     S
C104   C118    1.513   .     S
C104   H124    1.107   .     S
C105   O158    1.305   .     A
C105   O161    1.299   .     A
C106   H127    1.109   .     S
C106   C119    1.513   .     S
C106   H126    1.083   .     S
C106   H128    1.107   .     S
C107   O162    1.221   .     D
C107   H129    1.082   .     S
C108   H130    1.082   .     S
C108   O148    1.221   .     D
C109   O149    1.221   .     D
C109   H131    1.082   .     S
C110   O150    1.221   .     D
C110   H133    1.082   .     S
C111   C120    1.498   .     S
C111   O151    1.221   .     D
C111   H134    1.079   .     S
C112   O152    1.221   .     D
C112   H135    1.079   .     S
C113   O153    1.221   .     D
C113   H136    1.082   .     S
C114   O154    1.221   .     D
C114   H137    1.082   .     S
C115   O160    1.299   .     A
C115   O159    1.305   .     A
C116   N146    1.380   .     A
C116   C611    1.428   1_545 S
C117   N145    1.380   .     A
C117   C364    1.428   .     S
C118   N146    1.376   .     A
C118   C609    1.428   1_545 S
C119   N145    1.376   .     A
C119   C362    1.428   .     S
N145   Zn163   2.028   .     S
N146   Zn164   2.028   .     S
O147   Zn163   1.973   .     S
O155   Zn164   1.973   .     S
O156   Zn163   1.987   .     S
O157   Zn164   1.987   .     S
O158   Zn163   2.006   .     S
O159   Zn164   2.006   .     S
O160   Zn163   2.021   .     S
O161   Zn164   2.021   .     S
C165   O229    1.303   .     A
C165   C183    1.452   .     S
C165   O239    1.294   .     A
C166   C182    1.411   .     A
C166   C194    1.498   .     S
C166   C4      1.394   1_655 S
C167   C182    1.407   .     A
C167   C195    1.496   .     S
C167   C38     1.394   1_655 S
C168   C183    1.407   .     A
C168   C196    1.496   .     S
C169   C180    1.404   .     A
C169   C173    1.389   .     A
C169   H203    1.076   .     S
C170   H214    1.076   .     S
C170   C181    1.404   .     A
C170   C174    1.389   .     A
C171   C175    1.388   .     A
C171   C181    1.402   .     A
C171   H220    1.076   .     S
C172   C177    1.388   .     A
C172   C180    1.402   .     A
C172   H221    1.076   .     S
C173   C189    1.488   .     S
C173   C178    1.417   .     A
C174   C179    1.417   .     A
C174   C190    1.488   .     S
C175   C179    1.421   .     A
C175   C191    1.488   .     S
C176   O238    1.294   .     A
C176   O237    1.303   .     A
C176   C182    1.452   .     S
C177   C192    1.488   .     S
C177   C178    1.421   .     A
C178   C187    1.472   .     S
C179   C197    1.472   .     S
C180   C919    1.487   1_554 S
C181   C918    1.487   .     S
C183   C202    1.411   .     A
C184   H224    1.110   .     S
C184   C198    1.515   .     S
C184   H223    1.109   .     S
C184   H222    1.082   .     S
C185   H225    1.082   .     S
C185   H226    1.110   .     S
C185   C199    1.515   .     S
C185   H204    1.109   .     S
C186   H205    1.083   .     S
C186   H207    1.109   .     S
C186   C200    1.513   .     S
C186   H206    1.107   .     S
C187   O240    1.305   .     A
C187   O243    1.299   .     A
C188   H209    1.109   .     S
C188   C201    1.513   .     S
C188   H208    1.083   .     S
C188   H210    1.107   .     S
C189   O244    1.221   .     D
C189   H211    1.082   .     S
C190   H212    1.082   .     S
C190   O230    1.221   .     D
C191   O231    1.221   .     D
C191   H213    1.082   .     S
C192   O232    1.221   .     D
C192   H215    1.082   .     S
C193   C202    1.498   .     S
C193   O233    1.221   .     D
C193   H216    1.079   .     S
C194   O234    1.221   .     D
C194   H217    1.079   .     S
C195   O235    1.221   .     D
C195   H218    1.082   .     S
C196   O236    1.221   .     D
C196   H219    1.082   .     S
C197   O242    1.299   .     A
C197   O241    1.305   .     A
C198   N228    1.380   .     A
C198   C693    1.428   1_545 S
C199   N227    1.380   .     A
C199   C446    1.428   .     S
C200   N228    1.376   .     A
C200   C691    1.428   1_545 S
C201   N227    1.376   .     A
C201   C444    1.428   .     S
N227   Zn245   2.028   .     S
N228   Zn246   2.028   .     S
O229   Zn245   1.973   .     S
O237   Zn246   1.973   .     S
O238   Zn245   1.987   .     S
O239   Zn246   1.987   .     S
O240   Zn245   2.006   .     S
O241   Zn246   2.006   .     S
O242   Zn245   2.021   .     S
O243   Zn246   2.021   .     S
C247   O311    1.303   .     A
C247   C265    1.452   .     S
C247   O321    1.294   .     A
C248   C264    1.411   .     A
C248   C276    1.498   .     S
C248   C332    1.394   .     S
C249   C264    1.407   .     A
C249   C277    1.496   .     S
C249   C366    1.394   .     S
C250   C265    1.407   .     A
C250   C278    1.496   .     S
C250   C412    1.394   1_455 S
C251   C262    1.404   .     A
C251   C255    1.389   .     A
C251   H285    1.076   .     S
C252   H296    1.076   .     S
C252   C263    1.404   .     A
C252   C256    1.389   .     A
C253   C257    1.388   .     A
C253   C263    1.402   .     A
C253   H302    1.076   .     S
C254   C259    1.388   .     A
C254   C262    1.402   .     A
C254   H303    1.076   .     S
C255   C271    1.488   .     S
C255   C260    1.417   .     A
C256   C261    1.417   .     A
C256   C272    1.488   .     S
C257   C261    1.421   .     A
C257   C273    1.488   .     S
C258   O320    1.294   .     A
C258   O319    1.303   .     A
C258   C264    1.452   .     S
C259   C274    1.488   .     S
C259   C260    1.421   .     A
C260   C269    1.472   .     S
C261   C279    1.472   .     S
C262   C1001   1.487   1_554 S
C263   C1000   1.487   .     S
C265   C284    1.411   .     A
C266   H306    1.110   .     S
C266   C280    1.515   .     S
C266   H305    1.109   .     S
C266   H304    1.082   .     S
C267   H307    1.082   .     S
C267   H308    1.110   .     S
C267   C281    1.515   .     S
C267   H286    1.109   .     S
C268   H287    1.083   .     S
C268   H289    1.109   .     S
C268   C282    1.513   .     S
C268   H288    1.107   .     S
C269   O322    1.305   .     A
C269   O325    1.299   .     A
C270   H291    1.109   .     S
C270   C283    1.513   .     S
C270   H290    1.083   .     S
C270   H292    1.107   .     S
C271   O326    1.221   .     D
C271   H293    1.082   .     S
C272   H294    1.082   .     S
C272   O312    1.221   .     D
C273   O313    1.221   .     D
C273   H295    1.082   .     S
C274   O314    1.221   .     D
C274   H297    1.082   .     S
C275   C284    1.498   .     S
C275   O315    1.221   .     D
C275   H298    1.079   .     S
C276   O316    1.221   .     D
C276   H299    1.079   .     S
C277   O317    1.221   .     D
C277   H300    1.082   .     S
C278   O318    1.221   .     D
C278   H301    1.082   .     S
C279   O324    1.299   .     A
C279   O323    1.305   .     A
C280   N310    1.380   .     A
C281   N309    1.380   .     A
C281   C528    1.428   .     S
C282   N310    1.376   .     A
C283   N309    1.376   .     A
C283   C526    1.428   .     S
C284   C413    1.394   1_455 S
N309   Zn327   2.028   .     S
N310   Zn328   2.028   .     S
O311   Zn327   1.973   .     S
O319   Zn328   1.973   .     S
O320   Zn327   1.987   .     S
O321   Zn328   1.987   .     S
O322   Zn327   2.006   .     S
O323   Zn328   2.006   .     S
O324   Zn327   2.021   .     S
O325   Zn328   2.021   .     S
C329   O393    1.303   .     A
C329   C347    1.452   .     S
C329   O403    1.294   .     A
C330   C346    1.411   .     A
C330   C358    1.498   .     S
C330   C414    1.394   .     S
C331   C346    1.407   .     A
C331   C359    1.496   .     S
C331   C448    1.394   .     S
C332   C347    1.407   .     A
C332   C360    1.496   .     S
C333   C344    1.404   .     A
C333   C337    1.389   .     A
C333   H367    1.076   .     S
C334   H378    1.076   .     S
C334   C345    1.404   .     A
C334   C338    1.389   .     A
C335   C339    1.388   .     A
C335   C345    1.402   .     A
C335   H384    1.076   .     S
C336   C341    1.388   .     A
C336   C344    1.402   .     A
C336   H385    1.076   .     S
C337   C353    1.488   .     S
C337   C342    1.417   .     A
C338   C343    1.417   .     A
C338   C354    1.488   .     S
C339   C343    1.421   .     A
C339   C355    1.488   .     S
C340   O402    1.294   .     A
C340   O401    1.303   .     A
C340   C346    1.452   .     S
C341   C356    1.488   .     S
C341   C342    1.421   .     A
C342   C351    1.472   .     S
C343   C361    1.472   .     S
C344   C1083   1.487   1_554 S
C345   C1082   1.487   .     S
C347   C366    1.411   .     A
C348   H388    1.110   .     S
C348   C362    1.515   .     S
C348   H387    1.109   .     S
C348   H386    1.082   .     S
C349   H389    1.082   .     S
C349   H390    1.110   .     S
C349   C363    1.515   .     S
C349   H368    1.109   .     S
C350   H369    1.083   .     S
C350   H371    1.109   .     S
C350   C364    1.513   .     S
C350   H370    1.107   .     S
C351   O404    1.305   .     A
C351   O407    1.299   .     A
C352   H373    1.109   .     S
C352   C365    1.513   .     S
C352   H372    1.083   .     S
C352   H374    1.107   .     S
C353   O408    1.221   .     D
C353   H375    1.082   .     S
C354   H376    1.082   .     S
C354   O394    1.221   .     D
C355   O395    1.221   .     D
C355   H377    1.082   .     S
C356   O396    1.221   .     D
C356   H379    1.082   .     S
C357   C366    1.498   .     S
C357   O397    1.221   .     D
C357   H380    1.079   .     S
C358   O398    1.221   .     D
C358   H381    1.079   .     S
C359   O399    1.221   .     D
C359   H382    1.082   .     S
C360   O400    1.221   .     D
C360   H383    1.082   .     S
C361   O406    1.299   .     A
C361   O405    1.305   .     A
C362   N392    1.380   .     A
C363   N391    1.380   .     A
C363   C610    1.428   .     S
C364   N392    1.376   .     A
C365   N391    1.376   .     A
C365   C608    1.428   .     S
N391   Zn409   2.028   .     S
N392   Zn410   2.028   .     S
O393   Zn409   1.973   .     S
O401   Zn410   1.973   .     S
O402   Zn409   1.987   .     S
O403   Zn410   1.987   .     S
O404   Zn409   2.006   .     S
O405   Zn410   2.006   .     S
O406   Zn409   2.021   .     S
O407   Zn410   2.021   .     S
C411   O475    1.303   .     A
C411   C429    1.452   .     S
C411   O485    1.294   .     A
C412   C428    1.411   .     A
C412   C440    1.498   .     S
C412   C250    1.394   1_655 S
C413   C428    1.407   .     A
C413   C441    1.496   .     S
C413   C284    1.394   1_655 S
C414   C429    1.407   .     A
C414   C442    1.496   .     S
C415   C426    1.404   .     A
C415   C419    1.389   .     A
C415   H449    1.076   .     S
C416   H460    1.076   .     S
C416   C427    1.404   .     A
C416   C420    1.389   .     A
C417   C421    1.388   .     A
C417   C427    1.402   .     A
C417   H466    1.076   .     S
C418   C423    1.388   .     A
C418   C426    1.402   .     A
C418   H467    1.076   .     S
C419   C435    1.488   .     S
C419   C424    1.417   .     A
C420   C425    1.417   .     A
C420   C436    1.488   .     S
C421   C425    1.421   .     A
C421   C437    1.488   .     S
C422   O484    1.294   .     A
C422   O483    1.303   .     A
C422   C428    1.452   .     S
C423   C438    1.488   .     S
C423   C424    1.421   .     A
C424   C433    1.472   .     S
C425   C443    1.472   .     S
C426   C1165   1.487   1_554 S
C427   C1164   1.487   .     S
C429   C448    1.411   .     A
C430   H470    1.110   .     S
C430   C444    1.515   .     S
C430   H469    1.109   .     S
C430   H468    1.082   .     S
C431   H471    1.082   .     S
C431   H472    1.110   .     S
C431   C445    1.515   .     S
C431   H450    1.109   .     S
C432   H451    1.083   .     S
C432   H453    1.109   .     S
C432   C446    1.513   .     S
C432   H452    1.107   .     S
C433   O486    1.305   .     A
C433   O489    1.299   .     A
C434   H455    1.109   .     S
C434   C447    1.513   .     S
C434   H454    1.083   .     S
C434   H456    1.107   .     S
C435   O490    1.221   .     D
C435   H457    1.082   .     S
C436   H458    1.082   .     S
C436   O476    1.221   .     D
C437   O477    1.221   .     D
C437   H459    1.082   .     S
C438   O478    1.221   .     D
C438   H461    1.082   .     S
C439   C448    1.498   .     S
C439   O479    1.221   .     D
C439   H462    1.079   .     S
C440   O480    1.221   .     D
C440   H463    1.079   .     S
C441   O481    1.221   .     D
C441   H464    1.082   .     S
C442   O482    1.221   .     D
C442   H465    1.082   .     S
C443   O488    1.299   .     A
C443   O487    1.305   .     A
C444   N474    1.380   .     A
C445   N473    1.380   .     A
C445   C692    1.428   .     S
C446   N474    1.376   .     A
C447   N473    1.376   .     A
C447   C690    1.428   .     S
N473   Zn491   2.028   .     S
N474   Zn492   2.028   .     S
O475   Zn491   1.973   .     S
O483   Zn492   1.973   .     S
O484   Zn491   1.987   .     S
O485   Zn492   1.987   .     S
O486   Zn491   2.006   .     S
O487   Zn492   2.006   .     S
O488   Zn491   2.021   .     S
O489   Zn492   2.021   .     S
C493   O557    1.303   .     A
C493   C511    1.452   .     S
C493   O567    1.294   .     A
C494   C510    1.411   .     A
C494   C522    1.498   .     S
C494   C578    1.394   .     S
C495   C510    1.407   .     A
C495   C523    1.496   .     S
C495   C612    1.394   .     S
C496   C511    1.407   .     A
C496   C524    1.496   .     S
C496   C658    1.394   1_455 S
C497   C508    1.404   .     A
C497   C501    1.389   .     A
C497   H531    1.076   .     S
C498   H542    1.076   .     S
C498   C509    1.404   .     A
C498   C502    1.389   .     A
C499   C503    1.388   .     A
C499   C509    1.402   .     A
C499   H548    1.076   .     S
C500   C505    1.388   .     A
C500   C508    1.402   .     A
C500   H549    1.076   .     S
C501   C517    1.488   .     S
C501   C506    1.417   .     A
C502   C507    1.417   .     A
C502   C518    1.488   .     S
C503   C507    1.421   .     A
C503   C519    1.488   .     S
C504   O566    1.294   .     A
C504   O565    1.303   .     A
C504   C510    1.452   .     S
C505   C520    1.488   .     S
C505   C506    1.421   .     A
C506   C515    1.472   .     S
C507   C525    1.472   .     S
C508   C1247   1.487   1_554 S
C509   C1246   1.487   .     S
C511   C530    1.411   .     A
C512   H552    1.110   .     S
C512   C526    1.515   .     S
C512   H551    1.109   .     S
C512   H550    1.082   .     S
C513   H553    1.082   .     S
C513   H554    1.110   .     S
C513   C527    1.515   .     S
C513   H532    1.109   .     S
C514   H533    1.083   .     S
C514   H535    1.109   .     S
C514   C528    1.513   .     S
C514   H534    1.107   .     S
C515   O568    1.305   .     A
C515   O571    1.299   .     A
C516   H537    1.109   .     S
C516   C529    1.513   .     S
C516   H536    1.083   .     S
C516   H538    1.107   .     S
C517   O572    1.221   .     D
C517   H539    1.082   .     S
C518   H540    1.082   .     S
C518   O558    1.221   .     D
C519   O559    1.221   .     D
C519   H541    1.082   .     S
C520   O560    1.221   .     D
C520   H543    1.082   .     S
C521   C530    1.498   .     S
C521   O561    1.221   .     D
C521   H544    1.079   .     S
C522   O562    1.221   .     D
C522   H545    1.079   .     S
C523   O563    1.221   .     D
C523   H546    1.082   .     S
C524   O564    1.221   .     D
C524   H547    1.082   .     S
C525   O570    1.299   .     A
C525   O569    1.305   .     A
C526   N556    1.380   .     A
C527   N555    1.380   .     A
C527   C36     1.428   1_565 S
C528   N556    1.376   .     A
C529   N555    1.376   .     A
C529   C34     1.428   1_565 S
C530   C659    1.394   1_455 S
N555   Zn573   2.028   .     S
N556   Zn574   2.028   .     S
O557   Zn573   1.973   .     S
O565   Zn574   1.973   .     S
O566   Zn573   1.987   .     S
O567   Zn574   1.987   .     S
O568   Zn573   2.006   .     S
O569   Zn574   2.006   .     S
O570   Zn573   2.021   .     S
O571   Zn574   2.021   .     S
C575   O639    1.303   .     A
C575   C593    1.452   .     S
C575   O649    1.294   .     A
C576   C592    1.411   .     A
C576   C604    1.498   .     S
C576   C660    1.394   .     S
C577   C592    1.407   .     A
C577   C605    1.496   .     S
C577   C694    1.394   .     S
C578   C593    1.407   .     A
C578   C606    1.496   .     S
C579   C590    1.404   .     A
C579   C583    1.389   .     A
C579   H613    1.076   .     S
C580   H624    1.076   .     S
C580   C591    1.404   .     A
C580   C584    1.389   .     A
C581   C585    1.388   .     A
C581   C591    1.402   .     A
C581   H630    1.076   .     S
C582   C587    1.388   .     A
C582   C590    1.402   .     A
C582   H631    1.076   .     S
C583   C599    1.488   .     S
C583   C588    1.417   .     A
C584   C589    1.417   .     A
C584   C600    1.488   .     S
C585   C589    1.421   .     A
C585   C601    1.488   .     S
C586   O648    1.294   .     A
C586   O647    1.303   .     A
C586   C592    1.452   .     S
C587   C602    1.488   .     S
C587   C588    1.421   .     A
C588   C597    1.472   .     S
C589   C607    1.472   .     S
C590   C1329   1.487   1_554 S
C591   C1328   1.487   .     S
C593   C612    1.411   .     A
C594   H634    1.110   .     S
C594   C608    1.515   .     S
C594   H633    1.109   .     S
C594   H632    1.082   .     S
C595   H635    1.082   .     S
C595   H636    1.110   .     S
C595   C609    1.515   .     S
C595   H614    1.109   .     S
C596   H615    1.083   .     S
C596   H617    1.109   .     S
C596   C610    1.513   .     S
C596   H616    1.107   .     S
C597   O650    1.305   .     A
C597   O653    1.299   .     A
C598   H619    1.109   .     S
C598   C611    1.513   .     S
C598   H618    1.083   .     S
C598   H620    1.107   .     S
C599   O654    1.221   .     D
C599   H621    1.082   .     S
C600   H622    1.082   .     S
C600   O640    1.221   .     D
C601   O641    1.221   .     D
C601   H623    1.082   .     S
C602   O642    1.221   .     D
C602   H625    1.082   .     S
C603   C612    1.498   .     S
C603   O643    1.221   .     D
C603   H626    1.079   .     S
C604   O644    1.221   .     D
C604   H627    1.079   .     S
C605   O645    1.221   .     D
C605   H628    1.082   .     S
C606   O646    1.221   .     D
C606   H629    1.082   .     S
C607   O652    1.299   .     A
C607   O651    1.305   .     A
C608   N638    1.380   .     A
C609   N637    1.380   .     A
C609   C118    1.428   1_565 S
C610   N638    1.376   .     A
C611   N637    1.376   .     A
C611   C116    1.428   1_565 S
N637   Zn655   2.028   .     S
N638   Zn656   2.028   .     S
O639   Zn655   1.973   .     S
O647   Zn656   1.973   .     S
O648   Zn655   1.987   .     S
O649   Zn656   1.987   .     S
O650   Zn655   2.006   .     S
O651   Zn656   2.006   .     S
O652   Zn655   2.021   .     S
O653   Zn656   2.021   .     S
C657   O721    1.303   .     A
C657   C675    1.452   .     S
C657   O731    1.294   .     A
C658   C674    1.411   .     A
C658   C686    1.498   .     S
C658   C496    1.394   1_655 S
C659   C674    1.407   .     A
C659   C687    1.496   .     S
C659   C530    1.394   1_655 S
C660   C675    1.407   .     A
C660   C688    1.496   .     S
C661   C672    1.404   .     A
C661   C665    1.389   .     A
C661   H695    1.076   .     S
C662   H706    1.076   .     S
C662   C673    1.404   .     A
C662   C666    1.389   .     A
C663   C667    1.388   .     A
C663   C673    1.402   .     A
C663   H712    1.076   .     S
C664   C669    1.388   .     A
C664   C672    1.402   .     A
C664   H713    1.076   .     S
C665   C681    1.488   .     S
C665   C670    1.417   .     A
C666   C671    1.417   .     A
C666   C682    1.488   .     S
C667   C671    1.421   .     A
C667   C683    1.488   .     S
C668   O730    1.294   .     A
C668   O729    1.303   .     A
C668   C674    1.452   .     S
C669   C684    1.488   .     S
C669   C670    1.421   .     A
C670   C679    1.472   .     S
C671   C689    1.472   .     S
C672   C1411   1.487   1_554 S
C673   C1410   1.487   .     S
C675   C694    1.411   .     A
C676   H716    1.110   .     S
C676   C690    1.515   .     S
C676   H715    1.109   .     S
C676   H714    1.082   .     S
C677   H717    1.082   .     S
C677   H718    1.110   .     S
C677   C691    1.515   .     S
C677   H696    1.109   .     S
C678   H697    1.083   .     S
C678   H699    1.109   .     S
C678   C692    1.513   .     S
C678   H698    1.107   .     S
C679   O732    1.305   .     A
C679   O735    1.299   .     A
C680   H701    1.109   .     S
C680   C693    1.513   .     S
C680   H700    1.083   .     S
C680   H702    1.107   .     S
C681   O736    1.221   .     D
C681   H703    1.082   .     S
C682   H704    1.082   .     S
C682   O722    1.221   .     D
C683   O723    1.221   .     D
C683   H705    1.082   .     S
C684   O724    1.221   .     D
C684   H707    1.082   .     S
C685   C694    1.498   .     S
C685   O725    1.221   .     D
C685   H708    1.079   .     S
C686   O726    1.221   .     D
C686   H709    1.079   .     S
C687   O727    1.221   .     D
C687   H710    1.082   .     S
C688   O728    1.221   .     D
C688   H711    1.082   .     S
C689   O734    1.299   .     A
C689   O733    1.305   .     A
C690   N720    1.380   .     A
C691   N719    1.380   .     A
C691   C200    1.428   1_565 S
C692   N720    1.376   .     A
C693   N719    1.376   .     A
C693   C198    1.428   1_565 S
N719   Zn737   2.028   .     S
N720   Zn738   2.028   .     S
O721   Zn737   1.973   .     S
O729   Zn738   1.973   .     S
O730   Zn737   1.987   .     S
O731   Zn738   1.987   .     S
O732   Zn737   2.006   .     S
O733   Zn738   2.006   .     S
O734   Zn737   2.021   .     S
O735   Zn738   2.021   .     S
C739   O803    1.303   .     A
C739   C757    1.452   .     S
C739   O813    1.294   .     A
C740   C756    1.411   .     A
C740   C768    1.498   .     S
C740   C824    1.394   .     S
C741   C756    1.407   .     A
C741   C769    1.496   .     S
C741   C858    1.394   .     S
C742   C757    1.407   .     A
C742   C770    1.496   .     S
C742   C904    1.394   1_455 S
C743   C754    1.404   .     A
C743   C747    1.389   .     A
C743   H777    1.076   .     S
C744   H788    1.076   .     S
C744   C755    1.404   .     A
C744   C748    1.389   .     A
C745   C749    1.388   .     A
C745   C755    1.402   .     A
C745   H794    1.076   .     S
C746   C751    1.388   .     A
C746   C754    1.402   .     A
C746   H795    1.076   .     S
C747   C763    1.488   .     S
C747   C752    1.417   .     A
C748   C753    1.417   .     A
C748   C764    1.488   .     S
C749   C753    1.421   .     A
C749   C765    1.488   .     S
C750   O812    1.294   .     A
C750   O811    1.303   .     A
C750   C756    1.452   .     S
C751   C766    1.488   .     S
C751   C752    1.421   .     A
C752   C761    1.472   .     S
C753   C771    1.472   .     S
C755   C16     1.487   1_556 S
C757   C776    1.411   .     A
C758   H798    1.110   .     S
C758   C772    1.515   .     S
C758   H797    1.109   .     S
C758   H796    1.082   .     S
C759   H799    1.082   .     S
C759   H800    1.110   .     S
C759   C773    1.515   .     S
C759   H778    1.109   .     S
C760   H779    1.083   .     S
C760   H781    1.109   .     S
C760   C774    1.513   .     S
C760   H780    1.107   .     S
C761   O814    1.305   .     A
C761   O817    1.299   .     A
C762   H783    1.109   .     S
C762   C775    1.513   .     S
C762   H782    1.083   .     S
C762   H784    1.107   .     S
C763   O818    1.221   .     D
C763   H785    1.082   .     S
C764   H786    1.082   .     S
C764   O804    1.221   .     D
C765   O805    1.221   .     D
C765   H787    1.082   .     S
C766   O806    1.221   .     D
C766   H789    1.082   .     S
C767   C776    1.498   .     S
C767   O807    1.221   .     D
C767   H790    1.079   .     S
C768   O808    1.221   .     D
C768   H791    1.079   .     S
C769   O809    1.221   .     D
C769   H792    1.082   .     S
C770   O810    1.221   .     D
C770   H793    1.082   .     S
C771   O816    1.299   .     A
C771   O815    1.305   .     A
C772   N802    1.380   .     A
C772   C1267   1.428   1_545 S
C773   N801    1.380   .     A
C773   C1020   1.428   .     S
C774   N802    1.376   .     A
C774   C1265   1.428   1_545 S
C775   N801    1.376   .     A
C775   C1018   1.428   .     S
C776   C905    1.394   1_455 S
N801   Zn819   2.028   .     S
N802   Zn820   2.028   .     S
O803   Zn819   1.973   .     S
O811   Zn820   1.973   .     S
O812   Zn819   1.987   .     S
O813   Zn820   1.987   .     S
O814   Zn819   2.006   .     S
O815   Zn820   2.006   .     S
O816   Zn819   2.021   .     S
O817   Zn820   2.021   .     S
C821   O885    1.303   .     A
C821   C839    1.452   .     S
C821   O895    1.294   .     A
C822   C838    1.411   .     A
C822   C850    1.498   .     S
C822   C906    1.394   .     S
C823   C838    1.407   .     A
C823   C851    1.496   .     S
C823   C940    1.394   .     S
C824   C839    1.407   .     A
C824   C852    1.496   .     S
C825   C836    1.404   .     A
C825   C829    1.389   .     A
C825   H859    1.076   .     S
C826   H870    1.076   .     S
C826   C837    1.404   .     A
C826   C830    1.389   .     A
C827   C831    1.388   .     A
C827   C837    1.402   .     A
C827   H876    1.076   .     S
C828   C833    1.388   .     A
C828   C836    1.402   .     A
C828   H877    1.076   .     S
C829   C845    1.488   .     S
C829   C834    1.417   .     A
C830   C835    1.417   .     A
C830   C846    1.488   .     S
C831   C835    1.421   .     A
C831   C847    1.488   .     S
C832   O894    1.294   .     A
C832   O893    1.303   .     A
C832   C838    1.452   .     S
C833   C848    1.488   .     S
C833   C834    1.421   .     A
C834   C843    1.472   .     S
C835   C853    1.472   .     S
C837   C98     1.487   1_556 S
C839   C858    1.411   .     A
C840   H880    1.110   .     S
C840   C854    1.515   .     S
C840   H879    1.109   .     S
C840   H878    1.082   .     S
C841   H881    1.082   .     S
C841   H882    1.110   .     S
C841   C855    1.515   .     S
C841   H860    1.109   .     S
C842   H861    1.083   .     S
C842   H863    1.109   .     S
C842   C856    1.513   .     S
C842   H862    1.107   .     S
C843   O896    1.305   .     A
C843   O899    1.299   .     A
C844   H865    1.109   .     S
C844   C857    1.513   .     S
C844   H864    1.083   .     S
C844   H866    1.107   .     S
C845   O900    1.221   .     D
C845   H867    1.082   .     S
C846   H868    1.082   .     S
C846   O886    1.221   .     D
C847   O887    1.221   .     D
C847   H869    1.082   .     S
C848   O888    1.221   .     D
C848   H871    1.082   .     S
C849   C858    1.498   .     S
C849   O889    1.221   .     D
C849   H872    1.079   .     S
C850   O890    1.221   .     D
C850   H873    1.079   .     S
C851   O891    1.221   .     D
C851   H874    1.082   .     S
C852   O892    1.221   .     D
C852   H875    1.082   .     S
C853   O898    1.299   .     A
C853   O897    1.305   .     A
C854   N884    1.380   .     A
C854   C1349   1.428   1_545 S
C855   N883    1.380   .     A
C855   C1102   1.428   .     S
C856   N884    1.376   .     A
C856   C1347   1.428   1_545 S
C857   N883    1.376   .     A
C857   C1100   1.428   .     S
N883   Zn901   2.028   .     S
N884   Zn902   2.028   .     S
O885   Zn901   1.973   .     S
O893   Zn902   1.973   .     S
O894   Zn901   1.987   .     S
O895   Zn902   1.987   .     S
O896   Zn901   2.006   .     S
O897   Zn902   2.006   .     S
O898   Zn901   2.021   .     S
O899   Zn902   2.021   .     S
C903   O967    1.303   .     A
C903   C921    1.452   .     S
C903   O977    1.294   .     A
C904   C920    1.411   .     A
C904   C932    1.498   .     S
C904   C742    1.394   1_655 S
C905   C920    1.407   .     A
C905   C933    1.496   .     S
C905   C776    1.394   1_655 S
C906   C921    1.407   .     A
C906   C934    1.496   .     S
C907   C918    1.404   .     A
C907   C911    1.389   .     A
C907   H941    1.076   .     S
C908   H952    1.076   .     S
C908   C919    1.404   .     A
C908   C912    1.389   .     A
C909   C913    1.388   .     A
C909   C919    1.402   .     A
C909   H958    1.076   .     S
C910   C915    1.388   .     A
C910   C918    1.402   .     A
C910   H959    1.076   .     S
C911   C927    1.488   .     S
C911   C916    1.417   .     A
C912   C917    1.417   .     A
C912   C928    1.488   .     S
C913   C917    1.421   .     A
C913   C929    1.488   .     S
C914   O976    1.294   .     A
C914   O975    1.303   .     A
C914   C920    1.452   .     S
C915   C930    1.488   .     S
C915   C916    1.421   .     A
C916   C925    1.472   .     S
C917   C935    1.472   .     S
C919   C180    1.487   1_556 S
C921   C940    1.411   .     A
C922   H962    1.110   .     S
C922   C936    1.515   .     S
C922   H961    1.109   .     S
C922   H960    1.082   .     S
C923   H963    1.082   .     S
C923   H964    1.110   .     S
C923   C937    1.515   .     S
C923   H942    1.109   .     S
C924   H943    1.083   .     S
C924   H945    1.109   .     S
C924   C938    1.513   .     S
C924   H944    1.107   .     S
C925   O978    1.305   .     A
C925   O981    1.299   .     A
C926   H947    1.109   .     S
C926   C939    1.513   .     S
C926   H946    1.083   .     S
C926   H948    1.107   .     S
C927   O982    1.221   .     D
C927   H949    1.082   .     S
C928   H950    1.082   .     S
C928   O968    1.221   .     D
C929   O969    1.221   .     D
C929   H951    1.082   .     S
C930   O970    1.221   .     D
C930   H953    1.082   .     S
C931   C940    1.498   .     S
C931   O971    1.221   .     D
C931   H954    1.079   .     S
C932   O972    1.221   .     D
C932   H955    1.079   .     S
C933   O973    1.221   .     D
C933   H956    1.082   .     S
C934   O974    1.221   .     D
C934   H957    1.082   .     S
C935   O980    1.299   .     A
C935   O979    1.305   .     A
C936   N966    1.380   .     A
C936   C1431   1.428   1_545 S
C937   N965    1.380   .     A
C937   C1184   1.428   .     S
C938   N966    1.376   .     A
C938   C1429   1.428   1_545 S
C939   N965    1.376   .     A
C939   C1182   1.428   .     S
N965   Zn983   2.028   .     S
N966   Zn984   2.028   .     S
O967   Zn983   1.973   .     S
O975   Zn984   1.973   .     S
O976   Zn983   1.987   .     S
O977   Zn984   1.987   .     S
O978   Zn983   2.006   .     S
O979   Zn984   2.006   .     S
O980   Zn983   2.021   .     S
O981   Zn984   2.021   .     S
C985   O1049   1.303   .     A
C985   C1003   1.452   .     S
C985   O1059   1.294   .     A
C986   C1002   1.411   .     A
C986   C1014   1.498   .     S
C986   C1070   1.394   .     S
C987   C1002   1.407   .     A
C987   C1015   1.496   .     S
C987   C1104   1.394   .     S
C988   C1003   1.407   .     A
C988   C1016   1.496   .     S
C988   C1150   1.394   1_455 S
C989   C1000   1.404   .     A
C989   C993    1.389   .     A
C989   H1023   1.076   .     S
C990   H1034   1.076   .     S
C990   C1001   1.404   .     A
C990   C994    1.389   .     A
C991   C995    1.388   .     A
C991   C1001   1.402   .     A
C991   H1040   1.076   .     S
C992   C997    1.388   .     A
C992   C1000   1.402   .     A
C992   H1041   1.076   .     S
C993   C1009   1.488   .     S
C993   C998    1.417   .     A
C994   C999    1.417   .     A
C994   C1010   1.488   .     S
C995   C999    1.421   .     A
C995   C1011   1.488   .     S
C996   O1058   1.294   .     A
C996   O1057   1.303   .     A
C996   C1002   1.452   .     S
C997   C1012   1.488   .     S
C997   C998    1.421   .     A
C998   C1007   1.472   .     S
C999   C1017   1.472   .     S
C1001  C262    1.487   1_556 S
C1003  C1022   1.411   .     A
C1004  H1044   1.110   .     S
C1004  C1018   1.515   .     S
C1004  H1043   1.109   .     S
C1004  H1042   1.082   .     S
C1005  H1045   1.082   .     S
C1005  H1046   1.110   .     S
C1005  C1019   1.515   .     S
C1005  H1024   1.109   .     S
C1006  H1025   1.083   .     S
C1006  H1027   1.109   .     S
C1006  C1020   1.513   .     S
C1006  H1026   1.107   .     S
C1007  O1060   1.305   .     A
C1007  O1063   1.299   .     A
C1008  H1029   1.109   .     S
C1008  C1021   1.513   .     S
C1008  H1028   1.083   .     S
C1008  H1030   1.107   .     S
C1009  O1064   1.221   .     D
C1009  H1031   1.082   .     S
C1010  H1032   1.082   .     S
C1010  O1050   1.221   .     D
C1011  O1051   1.221   .     D
C1011  H1033   1.082   .     S
C1012  O1052   1.221   .     D
C1012  H1035   1.082   .     S
C1013  C1022   1.498   .     S
C1013  O1053   1.221   .     D
C1013  H1036   1.079   .     S
C1014  O1054   1.221   .     D
C1014  H1037   1.079   .     S
C1015  O1055   1.221   .     D
C1015  H1038   1.082   .     S
C1016  O1056   1.221   .     D
C1016  H1039   1.082   .     S
C1017  O1062   1.299   .     A
C1017  O1061   1.305   .     A
C1018  N1048   1.380   .     A
C1019  N1047   1.380   .     A
C1019  C1266   1.428   .     S
C1020  N1048   1.376   .     A
C1021  N1047   1.376   .     A
C1021  C1264   1.428   .     S
C1022  C1151   1.394   1_455 S
N1047  Zn1065  2.028   .     S
N1048  Zn1066  2.028   .     S
O1049  Zn1065  1.973   .     S
O1057  Zn1066  1.973   .     S
O1058  Zn1065  1.987   .     S
O1059  Zn1066  1.987   .     S
O1060  Zn1065  2.006   .     S
O1061  Zn1066  2.006   .     S
O1062  Zn1065  2.021   .     S
O1063  Zn1066  2.021   .     S
C1067  O1131   1.303   .     A
C1067  C1085   1.452   .     S
C1067  O1141   1.294   .     A
C1068  C1084   1.411   .     A
C1068  C1096   1.498   .     S
C1068  C1152   1.394   .     S
C1069  C1084   1.407   .     A
C1069  C1097   1.496   .     S
C1069  C1186   1.394   .     S
C1070  C1085   1.407   .     A
C1070  C1098   1.496   .     S
C1071  C1082   1.404   .     A
C1071  C1075   1.389   .     A
C1071  H1105   1.076   .     S
C1072  H1116   1.076   .     S
C1072  C1083   1.404   .     A
C1072  C1076   1.389   .     A
C1073  C1077   1.388   .     A
C1073  C1083   1.402   .     A
C1073  H1122   1.076   .     S
C1074  C1079   1.388   .     A
C1074  C1082   1.402   .     A
C1074  H1123   1.076   .     S
C1075  C1091   1.488   .     S
C1075  C1080   1.417   .     A
C1076  C1081   1.417   .     A
C1076  C1092   1.488   .     S
C1077  C1081   1.421   .     A
C1077  C1093   1.488   .     S
C1078  O1140   1.294   .     A
C1078  O1139   1.303   .     A
C1078  C1084   1.452   .     S
C1079  C1094   1.488   .     S
C1079  C1080   1.421   .     A
C1080  C1089   1.472   .     S
C1081  C1099   1.472   .     S
C1083  C344    1.487   1_556 S
C1085  C1104   1.411   .     A
C1086  H1126   1.110   .     S
C1086  C1100   1.515   .     S
C1086  H1125   1.109   .     S
C1086  H1124   1.082   .     S
C1087  H1127   1.082   .     S
C1087  H1128   1.110   .     S
C1087  C1101   1.515   .     S
C1087  H1106   1.109   .     S
C1088  H1107   1.083   .     S
C1088  H1109   1.109   .     S
C1088  C1102   1.513   .     S
C1088  H1108   1.107   .     S
C1089  O1142   1.305   .     A
C1089  O1145   1.299   .     A
C1090  H1111   1.109   .     S
C1090  C1103   1.513   .     S
C1090  H1110   1.083   .     S
C1090  H1112   1.107   .     S
C1091  O1146   1.221   .     D
C1091  H1113   1.082   .     S
C1092  H1114   1.082   .     S
C1092  O1132   1.221   .     D
C1093  O1133   1.221   .     D
C1093  H1115   1.082   .     S
C1094  O1134   1.221   .     D
C1094  H1117   1.082   .     S
C1095  C1104   1.498   .     S
C1095  O1135   1.221   .     D
C1095  H1118   1.079   .     S
C1096  O1136   1.221   .     D
C1096  H1119   1.079   .     S
C1097  O1137   1.221   .     D
C1097  H1120   1.082   .     S
C1098  O1138   1.221   .     D
C1098  H1121   1.082   .     S
C1099  O1144   1.299   .     A
C1099  O1143   1.305   .     A
C1100  N1130   1.380   .     A
C1101  N1129   1.380   .     A
C1101  C1348   1.428   .     S
C1102  N1130   1.376   .     A
C1103  N1129   1.376   .     A
C1103  C1346   1.428   .     S
N1129  Zn1147  2.028   .     S
N1130  Zn1148  2.028   .     S
O1131  Zn1147  1.973   .     S
O1139  Zn1148  1.973   .     S
O1140  Zn1147  1.987   .     S
O1141  Zn1148  1.987   .     S
O1142  Zn1147  2.006   .     S
O1143  Zn1148  2.006   .     S
O1144  Zn1147  2.021   .     S
O1145  Zn1148  2.021   .     S
C1149  O1213   1.303   .     A
C1149  C1167   1.452   .     S
C1149  O1223   1.294   .     A
C1150  C1166   1.411   .     A
C1150  C1178   1.498   .     S
C1150  C988    1.394   1_655 S
C1151  C1166   1.407   .     A
C1151  C1179   1.496   .     S
C1151  C1022   1.394   1_655 S
C1152  C1167   1.407   .     A
C1152  C1180   1.496   .     S
C1153  C1164   1.404   .     A
C1153  C1157   1.389   .     A
C1153  H1187   1.076   .     S
C1154  H1198   1.076   .     S
C1154  C1165   1.404   .     A
C1154  C1158   1.389   .     A
C1155  C1159   1.388   .     A
C1155  C1165   1.402   .     A
C1155  H1204   1.076   .     S
C1156  C1161   1.388   .     A
C1156  C1164   1.402   .     A
C1156  H1205   1.076   .     S
C1157  C1173   1.488   .     S
C1157  C1162   1.417   .     A
C1158  C1163   1.417   .     A
C1158  C1174   1.488   .     S
C1159  C1163   1.421   .     A
C1159  C1175   1.488   .     S
C1160  O1222   1.294   .     A
C1160  O1221   1.303   .     A
C1160  C1166   1.452   .     S
C1161  C1176   1.488   .     S
C1161  C1162   1.421   .     A
C1162  C1171   1.472   .     S
C1163  C1181   1.472   .     S
C1165  C426    1.487   1_556 S
C1167  C1186   1.411   .     A
C1168  H1208   1.110   .     S
C1168  C1182   1.515   .     S
C1168  H1207   1.109   .     S
C1168  H1206   1.082   .     S
C1169  H1209   1.082   .     S
C1169  H1210   1.110   .     S
C1169  C1183   1.515   .     S
C1169  H1188   1.109   .     S
C1170  H1189   1.083   .     S
C1170  H1191   1.109   .     S
C1170  C1184   1.513   .     S
C1170  H1190   1.107   .     S
C1171  O1224   1.305   .     A
C1171  O1227   1.299   .     A
C1172  H1193   1.109   .     S
C1172  C1185   1.513   .     S
C1172  H1192   1.083   .     S
C1172  H1194   1.107   .     S
C1173  O1228   1.221   .     D
C1173  H1195   1.082   .     S
C1174  H1196   1.082   .     S
C1174  O1214   1.221   .     D
C1175  O1215   1.221   .     D
C1175  H1197   1.082   .     S
C1176  O1216   1.221   .     D
C1176  H1199   1.082   .     S
C1177  C1186   1.498   .     S
C1177  O1217   1.221   .     D
C1177  H1200   1.079   .     S
C1178  O1218   1.221   .     D
C1178  H1201   1.079   .     S
C1179  O1219   1.221   .     D
C1179  H1202   1.082   .     S
C1180  O1220   1.221   .     D
C1180  H1203   1.082   .     S
C1181  O1226   1.299   .     A
C1181  O1225   1.305   .     A
C1182  N1212   1.380   .     A
C1183  N1211   1.380   .     A
C1183  C1430   1.428   .     S
C1184  N1212   1.376   .     A
C1185  N1211   1.376   .     A
C1185  C1428   1.428   .     S
N1211  Zn1229  2.028   .     S
N1212  Zn1230  2.028   .     S
O1213  Zn1229  1.973   .     S
O1221  Zn1230  1.973   .     S
O1222  Zn1229  1.987   .     S
O1223  Zn1230  1.987   .     S
O1224  Zn1229  2.006   .     S
O1225  Zn1230  2.006   .     S
O1226  Zn1229  2.021   .     S
O1227  Zn1230  2.021   .     S
C1231  O1295   1.303   .     A
C1231  C1249   1.452   .     S
C1231  O1305   1.294   .     A
C1232  C1248   1.411   .     A
C1232  C1260   1.498   .     S
C1232  C1316   1.394   .     S
C1233  C1248   1.407   .     A
C1233  C1261   1.496   .     S
C1233  C1350   1.394   .     S
C1234  C1249   1.407   .     A
C1234  C1262   1.496   .     S
C1234  C1396   1.394   1_455 S
C1235  C1246   1.404   .     A
C1235  C1239   1.389   .     A
C1235  H1269   1.076   .     S
C1236  H1280   1.076   .     S
C1236  C1247   1.404   .     A
C1236  C1240   1.389   .     A
C1237  C1241   1.388   .     A
C1237  C1247   1.402   .     A
C1237  H1286   1.076   .     S
C1238  C1243   1.388   .     A
C1238  C1246   1.402   .     A
C1238  H1287   1.076   .     S
C1239  C1255   1.488   .     S
C1239  C1244   1.417   .     A
C1240  C1245   1.417   .     A
C1240  C1256   1.488   .     S
C1241  C1245   1.421   .     A
C1241  C1257   1.488   .     S
C1242  O1304   1.294   .     A
C1242  O1303   1.303   .     A
C1242  C1248   1.452   .     S
C1243  C1258   1.488   .     S
C1243  C1244   1.421   .     A
C1244  C1253   1.472   .     S
C1245  C1263   1.472   .     S
C1247  C508    1.487   1_556 S
C1249  C1268   1.411   .     A
C1250  H1290   1.110   .     S
C1250  C1264   1.515   .     S
C1250  H1289   1.109   .     S
C1250  H1288   1.082   .     S
C1251  H1291   1.082   .     S
C1251  H1292   1.110   .     S
C1251  C1265   1.515   .     S
C1251  H1270   1.109   .     S
C1252  H1271   1.083   .     S
C1252  H1273   1.109   .     S
C1252  C1266   1.513   .     S
C1252  H1272   1.107   .     S
C1253  O1306   1.305   .     A
C1253  O1309   1.299   .     A
C1254  H1275   1.109   .     S
C1254  C1267   1.513   .     S
C1254  H1274   1.083   .     S
C1254  H1276   1.107   .     S
C1255  O1310   1.221   .     D
C1255  H1277   1.082   .     S
C1256  H1278   1.082   .     S
C1256  O1296   1.221   .     D
C1257  O1297   1.221   .     D
C1257  H1279   1.082   .     S
C1258  O1298   1.221   .     D
C1258  H1281   1.082   .     S
C1259  C1268   1.498   .     S
C1259  O1299   1.221   .     D
C1259  H1282   1.079   .     S
C1260  O1300   1.221   .     D
C1260  H1283   1.079   .     S
C1261  O1301   1.221   .     D
C1261  H1284   1.082   .     S
C1262  O1302   1.221   .     D
C1262  H1285   1.082   .     S
C1263  O1308   1.299   .     A
C1263  O1307   1.305   .     A
C1264  N1294   1.380   .     A
C1265  N1293   1.380   .     A
C1265  C774    1.428   1_565 S
C1266  N1294   1.376   .     A
C1267  N1293   1.376   .     A
C1267  C772    1.428   1_565 S
C1268  C1397   1.394   1_455 S
N1293  Zn1311  2.028   .     S
N1294  Zn1312  2.028   .     S
O1295  Zn1311  1.973   .     S
O1303  Zn1312  1.973   .     S
O1304  Zn1311  1.987   .     S
O1305  Zn1312  1.987   .     S
O1306  Zn1311  2.006   .     S
O1307  Zn1312  2.006   .     S
O1308  Zn1311  2.021   .     S
O1309  Zn1312  2.021   .     S
C1313  O1377   1.303   .     A
C1313  C1331   1.452   .     S
C1313  O1387   1.294   .     A
C1314  C1330   1.411   .     A
C1314  C1342   1.498   .     S
C1314  C1398   1.394   .     S
C1315  C1330   1.407   .     A
C1315  C1343   1.496   .     S
C1315  C1432   1.394   .     S
C1316  C1331   1.407   .     A
C1316  C1344   1.496   .     S
C1317  C1328   1.404   .     A
C1317  C1321   1.389   .     A
C1317  H1351   1.076   .     S
C1318  H1362   1.076   .     S
C1318  C1329   1.404   .     A
C1318  C1322   1.389   .     A
C1319  C1323   1.388   .     A
C1319  C1329   1.402   .     A
C1319  H1368   1.076   .     S
C1320  C1325   1.388   .     A
C1320  C1328   1.402   .     A
C1320  H1369   1.076   .     S
C1321  C1337   1.488   .     S
C1321  C1326   1.417   .     A
C1322  C1327   1.417   .     A
C1322  C1338   1.488   .     S
C1323  C1327   1.421   .     A
C1323  C1339   1.488   .     S
C1324  O1386   1.294   .     A
C1324  O1385   1.303   .     A
C1324  C1330   1.452   .     S
C1325  C1340   1.488   .     S
C1325  C1326   1.421   .     A
C1326  C1335   1.472   .     S
C1327  C1345   1.472   .     S
C1329  C590    1.487   1_556 S
C1331  C1350   1.411   .     A
C1332  H1372   1.110   .     S
C1332  C1346   1.515   .     S
C1332  H1371   1.109   .     S
C1332  H1370   1.082   .     S
C1333  H1373   1.082   .     S
C1333  H1374   1.110   .     S
C1333  C1347   1.515   .     S
C1333  H1352   1.109   .     S
C1334  H1353   1.083   .     S
C1334  H1355   1.109   .     S
C1334  C1348   1.513   .     S
C1334  H1354   1.107   .     S
C1335  O1388   1.305   .     A
C1335  O1391   1.299   .     A
C1336  H1357   1.109   .     S
C1336  C1349   1.513   .     S
C1336  H1356   1.083   .     S
C1336  H1358   1.107   .     S
C1337  O1392   1.221   .     D
C1337  H1359   1.082   .     S
C1338  H1360   1.082   .     S
C1338  O1378   1.221   .     D
C1339  O1379   1.221   .     D
C1339  H1361   1.082   .     S
C1340  O1380   1.221   .     D
C1340  H1363   1.082   .     S
C1341  C1350   1.498   .     S
C1341  O1381   1.221   .     D
C1341  H1364   1.079   .     S
C1342  O1382   1.221   .     D
C1342  H1365   1.079   .     S
C1343  O1383   1.221   .     D
C1343  H1366   1.082   .     S
C1344  O1384   1.221   .     D
C1344  H1367   1.082   .     S
C1345  O1390   1.299   .     A
C1345  O1389   1.305   .     A
C1346  N1376   1.380   .     A
C1347  N1375   1.380   .     A
C1347  C856    1.428   1_565 S
C1348  N1376   1.376   .     A
C1349  N1375   1.376   .     A
C1349  C854    1.428   1_565 S
N1375  Zn1393  2.028   .     S
N1376  Zn1394  2.028   .     S
O1377  Zn1393  1.973   .     S
O1385  Zn1394  1.973   .     S
O1386  Zn1393  1.987   .     S
O1387  Zn1394  1.987   .     S
O1388  Zn1393  2.006   .     S
O1389  Zn1394  2.006   .     S
O1390  Zn1393  2.021   .     S
O1391  Zn1394  2.021   .     S
C1395  O1459   1.303   .     A
C1395  C1413   1.452   .     S
C1395  O1469   1.294   .     A
C1396  C1412   1.411   .     A
C1396  C1424   1.498   .     S
C1396  C1234   1.394   1_655 S
C1397  C1412   1.407   .     A
C1397  C1425   1.496   .     S
C1397  C1268   1.394   1_655 S
C1398  C1413   1.407   .     A
C1398  C1426   1.496   .     S
C1399  C1410   1.404   .     A
C1399  C1403   1.389   .     A
C1399  H1433   1.076   .     S
C1400  H1444   1.076   .     S
C1400  C1411   1.404   .     A
C1400  C1404   1.389   .     A
C1401  C1405   1.388   .     A
C1401  C1411   1.402   .     A
C1401  H1450   1.076   .     S
C1402  C1407   1.388   .     A
C1402  C1410   1.402   .     A
C1402  H1451   1.076   .     S
C1403  C1419   1.488   .     S
C1403  C1408   1.417   .     A
C1404  C1409   1.417   .     A
C1404  C1420   1.488   .     S
C1405  C1409   1.421   .     A
C1405  C1421   1.488   .     S
C1406  O1468   1.294   .     A
C1406  O1467   1.303   .     A
C1406  C1412   1.452   .     S
C1407  C1422   1.488   .     S
C1407  C1408   1.421   .     A
C1408  C1417   1.472   .     S
C1409  C1427   1.472   .     S
C1411  C672    1.487   1_556 S
C1413  C1432   1.411   .     A
C1414  H1454   1.110   .     S
C1414  C1428   1.515   .     S
C1414  H1453   1.109   .     S
C1414  H1452   1.082   .     S
C1415  H1455   1.082   .     S
C1415  H1456   1.110   .     S
C1415  C1429   1.515   .     S
C1415  H1434   1.109   .     S
C1416  H1435   1.083   .     S
C1416  H1437   1.109   .     S
C1416  C1430   1.513   .     S
C1416  H1436   1.107   .     S
C1417  O1470   1.305   .     A
C1417  O1473   1.299   .     A
C1418  H1439   1.109   .     S
C1418  C1431   1.513   .     S
C1418  H1438   1.083   .     S
C1418  H1440   1.107   .     S
C1419  O1474   1.221   .     D
C1419  H1441   1.082   .     S
C1420  H1442   1.082   .     S
C1420  O1460   1.221   .     D
C1421  O1461   1.221   .     D
C1421  H1443   1.082   .     S
C1422  O1462   1.221   .     D
C1422  H1445   1.082   .     S
C1423  C1432   1.498   .     S
C1423  O1463   1.221   .     D
C1423  H1446   1.079   .     S
C1424  O1464   1.221   .     D
C1424  H1447   1.079   .     S
C1425  O1465   1.221   .     D
C1425  H1448   1.082   .     S
C1426  O1466   1.221   .     D
C1426  H1449   1.082   .     S
C1427  O1472   1.299   .     A
C1427  O1471   1.305   .     A
C1428  N1458   1.380   .     A
C1429  N1457   1.380   .     A
C1429  C938    1.428   1_565 S
C1430  N1458   1.376   .     A
C1431  N1457   1.376   .     A
C1431  C936    1.428   1_565 S
N1457  Zn1475  2.028   .     S
N1458  Zn1476  2.028   .     S
O1459  Zn1475  1.973   .     S
O1467  Zn1476  1.973   .     S
O1468  Zn1475  1.987   .     S
O1469  Zn1476  1.987   .     S
O1470  Zn1475  2.006   .     S
O1471  Zn1476  2.006   .     S
O1472  Zn1475  2.021   .     S
O1473  Zn1476  2.021   .     S
