data_str_m3_o1_o5_pcu_sym.20
_audit_creation_date              2020-01-03
_audit_creation_method            'Materials Studio'
_symmetry_space_group_name_H-M    'P1'
_symmetry_Int_Tables_number       1
_symmetry_cell_setting            triclinic
loop_
_symmetry_equiv_pos_as_xyz
  x,y,z
_cell_length_a                    32.4764
_cell_length_b                    29.8311
_cell_length_c                    26.6216
_cell_angle_alpha                 89.9558
_cell_angle_beta                  92.1106
_cell_angle_gamma                 90.3773
loop_
_atom_site_label
_atom_site_type_symbol
_atom_site_fract_x
_atom_site_fract_y
_atom_site_fract_z
_atom_site_U_iso_or_equiv
_atom_site_adp_type
_atom_site_occupancy
C1     C     0.08663   0.16664   0.16678   0.00000  Uiso   1.00
C2     C     0.02151   0.20855   0.17003   0.00000  Uiso   1.00
C3     C     0.29080   0.16823   0.17233   0.00000  Uiso   1.00
C4     C     0.04235   0.16716   0.16863   0.00000  Uiso   1.00
C5     C     0.18804   0.02375   0.20313   0.00000  Uiso   1.00
C6     C     0.14428   0.30922   0.13100   0.00000  Uiso   1.00
C7     C     0.14541   0.02360   0.12998   0.00000  Uiso   1.00
C8     C     0.18939   0.30946   0.20195   0.00000  Uiso   1.00
C9     C     0.02165   0.06461   0.12196   0.00000  Uiso   1.00
C10    C     0.02723   0.01427   0.12557   0.00000  Uiso   1.00
C11    C     0.28924   0.25397   0.10099   0.00000  Uiso   1.00
C12    C     0.24659   0.16700   0.16881   0.00000  Uiso   1.00
C13    C     0.26137   0.29349   0.08816   0.00000  Uiso   1.00
C14    C     0.30964   0.08675   0.25543   0.00000  Uiso   1.00
C15    C     0.32142   0.03805   0.26447   0.00000  Uiso   1.00
C16    C     0.04105   0.26047   0.22865   0.00000  Uiso   1.00
C17    C     0.07737   0.29094   0.24310   0.00000  Uiso   1.00
C18    C     0.16663   0.16668   0.07301   0.00000  Uiso   1.00
C19    C     0.16674   0.16666   0.26033   0.00000  Uiso   1.00
C20    C     0.16668   0.16670   0.02184   0.00000  Uiso   1.00
C21    C     0.16672   0.16667   0.31149   0.00000  Uiso   1.00
C22    C     0.02000   0.12678   0.17125   0.00000  Uiso   1.00
C23    C     0.31237   0.20856   0.16400   0.00000  Uiso   1.00
C24    C     0.31244   0.12898   0.18384   0.00000  Uiso   1.00
Cl25   Cl    0.21324   0.05160   0.25335   0.00000  Uiso   1.00
Cl26   Cl    0.11344   0.28012   0.08590   0.00000  Uiso   1.00
Cl27   Cl    0.11943   0.05149   0.08021   0.00000  Uiso   1.00
Cl28   Cl    0.22143   0.28078   0.24580   0.00000  Uiso   1.00
H29    H     0.03794   0.07769   0.08900   0.00000  Uiso   1.00
H30    H     0.22942   0.28571   0.09886   0.00000  Uiso   1.00
H31    H     0.28543   0.09620   0.28171   0.00000  Uiso   1.00
H32    H     0.00385   0.10791   0.26590   0.00000  Uiso   1.00
H33    H     0.29557   0.01532   0.25309   0.00000  Uiso   1.00
H34    H     0.01520   0.02982   0.24226   0.00000  Uiso   1.00
H35    H     0.32949   0.03271   0.30492   0.00000  Uiso   1.00
H36    H     0.04308   0.23071   0.25417   0.00000  Uiso   1.00
H37    H     0.01191   0.27839   0.23554   0.00000  Uiso   1.00
H38    H     0.07747   0.32129   0.21911   0.00000  Uiso   1.00
H39    H     0.07532   0.30150   0.28292   0.00000  Uiso   1.00
H40    H     0.32137   0.07040   0.11479   0.00000  Uiso   1.00
H41    H     0.10669   0.27269   0.23894   0.00000  Uiso   1.00
H42    H     0.00659   0.00019   0.15398   0.00000  Uiso   1.00
H43    H     0.01977   0.33210   0.08845   0.00000  Uiso   1.00
H44    H     0.05939   0.00630   0.13686   0.00000  Uiso   1.00
H45    H     0.27554   0.22372   0.08205   0.00000  Uiso   1.00
H46    H     0.32016   0.26050   0.08577   0.00000  Uiso   1.00
H47    H     0.27225   0.32402   0.10855   0.00000  Uiso   1.00
H48    H     0.26129   0.30012   0.04710   0.00000  Uiso   1.00
N49    N     0.16667   0.28573   0.16667   0.00000  Uiso   1.00
N50    N     0.16667   0.04760   0.16667   0.00000  Uiso   1.00
O51    O     0.10559   0.20487   0.16666   0.00000  Uiso   1.00
O52    O     0.29243   0.24856   0.15375   0.00000  Uiso   1.00
O53    O     0.29384   0.09212   0.20524   0.00000  Uiso   1.00
O54    O     0.04224   0.24889   0.17710   0.00000  Uiso   1.00
O55    O     0.22774   0.12846   0.16667   0.00000  Uiso   1.00
O56    O     0.22774   0.20487   0.16667   0.00000  Uiso   1.00
O57    O     0.10559   0.12846   0.16666   0.00000  Uiso   1.00
O58    O     0.16667   0.20488   0.09511   0.00000  Uiso   1.00
O59    O     0.16666   0.12845   0.23822   0.00000  Uiso   1.00
O60    O     0.16666   0.20488   0.23822   0.00000  Uiso   1.00
O61    O     0.16667   0.12845   0.09511   0.00000  Uiso   1.00
O62    O     0.03810   0.08524   0.16637   0.00000  Uiso   1.00
Zn63   Zn    0.16667   0.21771   0.16667   0.00000  Uiso   1.00
Zn64   Zn    0.16667   0.11563   0.16667   0.00000  Uiso   1.00
C65    C     0.41997   0.16664   0.16678   0.00000  Uiso   1.00
C66    C     0.35485   0.20855   0.17003   0.00000  Uiso   1.00
C67    C     0.62413   0.16823   0.17233   0.00000  Uiso   1.00
C68    C     0.37568   0.16716   0.16863   0.00000  Uiso   1.00
C69    C     0.52138   0.02375   0.20313   0.00000  Uiso   1.00
C70    C     0.47762   0.30922   0.13100   0.00000  Uiso   1.00
C71    C     0.47875   0.02360   0.12998   0.00000  Uiso   1.00
C72    C     0.52272   0.30946   0.20195   0.00000  Uiso   1.00
C73    C     0.35498   0.06461   0.12196   0.00000  Uiso   1.00
C74    C     0.36056   0.01427   0.12557   0.00000  Uiso   1.00
C75    C     0.62258   0.25397   0.10099   0.00000  Uiso   1.00
C76    C     0.57993   0.16700   0.16881   0.00000  Uiso   1.00
C77    C     0.59470   0.29349   0.08816   0.00000  Uiso   1.00
C78    C     0.64297   0.08675   0.25543   0.00000  Uiso   1.00
C79    C     0.65475   0.03805   0.26447   0.00000  Uiso   1.00
C80    C     0.37438   0.26047   0.22865   0.00000  Uiso   1.00
C81    C     0.41071   0.29094   0.24310   0.00000  Uiso   1.00
C82    C     0.49997   0.16668   0.07301   0.00000  Uiso   1.00
C83    C     0.50008   0.16666   0.26033   0.00000  Uiso   1.00
C84    C     0.50002   0.16670   0.02184   0.00000  Uiso   1.00
C85    C     0.50005   0.16667   0.31149   0.00000  Uiso   1.00
C86    C     0.35333   0.12678   0.17125   0.00000  Uiso   1.00
C87    C     0.64570   0.20856   0.16400   0.00000  Uiso   1.00
C88    C     0.64578   0.12898   0.18384   0.00000  Uiso   1.00
Cl89   Cl    0.54657   0.05160   0.25335   0.00000  Uiso   1.00
Cl90   Cl    0.44678   0.28012   0.08590   0.00000  Uiso   1.00
Cl91   Cl    0.45277   0.05149   0.08021   0.00000  Uiso   1.00
Cl92   Cl    0.55477   0.28078   0.24580   0.00000  Uiso   1.00
H93    H     0.37127   0.07769   0.08900   0.00000  Uiso   1.00
H94    H     0.56276   0.28571   0.09886   0.00000  Uiso   1.00
H95    H     0.61877   0.09620   0.28171   0.00000  Uiso   1.00
H96    H     0.33718   0.10791   0.26590   0.00000  Uiso   1.00
H97    H     0.62891   0.01532   0.25309   0.00000  Uiso   1.00
H98    H     0.34853   0.02982   0.24226   0.00000  Uiso   1.00
H99    H     0.66282   0.03271   0.30492   0.00000  Uiso   1.00
H100   H     0.37641   0.23071   0.25417   0.00000  Uiso   1.00
H101   H     0.34524   0.27839   0.23554   0.00000  Uiso   1.00
H102   H     0.41080   0.32129   0.21911   0.00000  Uiso   1.00
H103   H     0.40865   0.30150   0.28292   0.00000  Uiso   1.00
H104   H     0.65471   0.07040   0.11479   0.00000  Uiso   1.00
H105   H     0.44003   0.27269   0.23894   0.00000  Uiso   1.00
H106   H     0.33992   0.00019   0.15398   0.00000  Uiso   1.00
H107   H     0.35310   0.33210   0.08845   0.00000  Uiso   1.00
H108   H     0.39272   0.00630   0.13686   0.00000  Uiso   1.00
H109   H     0.60887   0.22372   0.08205   0.00000  Uiso   1.00
H110   H     0.65349   0.26050   0.08577   0.00000  Uiso   1.00
H111   H     0.60558   0.32402   0.10855   0.00000  Uiso   1.00
H112   H     0.59463   0.30012   0.04710   0.00000  Uiso   1.00
N113   N     0.50000   0.28573   0.16667   0.00000  Uiso   1.00
N114   N     0.50000   0.04760   0.16667   0.00000  Uiso   1.00
O115   O     0.43892   0.20487   0.16666   0.00000  Uiso   1.00
O116   O     0.62576   0.24856   0.15375   0.00000  Uiso   1.00
O117   O     0.62717   0.09212   0.20524   0.00000  Uiso   1.00
O118   O     0.37557   0.24889   0.17710   0.00000  Uiso   1.00
O119   O     0.56108   0.12846   0.16667   0.00000  Uiso   1.00
O120   O     0.56108   0.20487   0.16667   0.00000  Uiso   1.00
O121   O     0.43892   0.12846   0.16666   0.00000  Uiso   1.00
O122   O     0.50000   0.20488   0.09511   0.00000  Uiso   1.00
O123   O     0.50000   0.12845   0.23822   0.00000  Uiso   1.00
O124   O     0.50000   0.20488   0.23822   0.00000  Uiso   1.00
O125   O     0.50000   0.12845   0.09511   0.00000  Uiso   1.00
O126   O     0.37143   0.08524   0.16637   0.00000  Uiso   1.00
Zn127  Zn    0.50000   0.21771   0.16667   0.00000  Uiso   1.00
Zn128  Zn    0.50000   0.11563   0.16667   0.00000  Uiso   1.00
C129   C     0.75330   0.16664   0.16678   0.00000  Uiso   1.00
C130   C     0.68818   0.20855   0.17003   0.00000  Uiso   1.00
C131   C     0.95747   0.16823   0.17233   0.00000  Uiso   1.00
C132   C     0.70902   0.16716   0.16863   0.00000  Uiso   1.00
C133   C     0.85471   0.02375   0.20313   0.00000  Uiso   1.00
C134   C     0.81095   0.30922   0.13100   0.00000  Uiso   1.00
C135   C     0.81208   0.02360   0.12998   0.00000  Uiso   1.00
C136   C     0.85606   0.30946   0.20195   0.00000  Uiso   1.00
C137   C     0.68831   0.06461   0.12196   0.00000  Uiso   1.00
C138   C     0.69390   0.01427   0.12557   0.00000  Uiso   1.00
C139   C     0.95591   0.25397   0.10099   0.00000  Uiso   1.00
C140   C     0.91326   0.16700   0.16881   0.00000  Uiso   1.00
C141   C     0.92803   0.29349   0.08816   0.00000  Uiso   1.00
C142   C     0.97631   0.08675   0.25543   0.00000  Uiso   1.00
C143   C     0.98808   0.03805   0.26447   0.00000  Uiso   1.00
C144   C     0.70772   0.26047   0.22865   0.00000  Uiso   1.00
C145   C     0.74404   0.29094   0.24310   0.00000  Uiso   1.00
C146   C     0.83330   0.16668   0.07301   0.00000  Uiso   1.00
C147   C     0.83341   0.16666   0.26033   0.00000  Uiso   1.00
C148   C     0.83335   0.16670   0.02184   0.00000  Uiso   1.00
C149   C     0.83339   0.16667   0.31149   0.00000  Uiso   1.00
C150   C     0.68667   0.12678   0.17125   0.00000  Uiso   1.00
C151   C     0.97904   0.20856   0.16400   0.00000  Uiso   1.00
C152   C     0.97911   0.12898   0.18384   0.00000  Uiso   1.00
Cl153  Cl    0.87991   0.05160   0.25335   0.00000  Uiso   1.00
Cl154  Cl    0.78011   0.28012   0.08590   0.00000  Uiso   1.00
Cl155  Cl    0.78610   0.05149   0.08021   0.00000  Uiso   1.00
Cl156  Cl    0.88810   0.28078   0.24580   0.00000  Uiso   1.00
H157   H     0.70461   0.07769   0.08900   0.00000  Uiso   1.00
H158   H     0.89609   0.28571   0.09886   0.00000  Uiso   1.00
H159   H     0.95210   0.09620   0.28171   0.00000  Uiso   1.00
H160   H     0.67051   0.10791   0.26590   0.00000  Uiso   1.00
H161   H     0.96224   0.01532   0.25309   0.00000  Uiso   1.00
H162   H     0.68187   0.02982   0.24226   0.00000  Uiso   1.00
H163   H     0.99616   0.03271   0.30492   0.00000  Uiso   1.00
H164   H     0.70974   0.23071   0.25417   0.00000  Uiso   1.00
H165   H     0.67857   0.27839   0.23554   0.00000  Uiso   1.00
H166   H     0.74413   0.32129   0.21911   0.00000  Uiso   1.00
H167   H     0.74198   0.30150   0.28292   0.00000  Uiso   1.00
H168   H     0.98804   0.07040   0.11479   0.00000  Uiso   1.00
H169   H     0.77336   0.27269   0.23894   0.00000  Uiso   1.00
H170   H     0.67326   0.00019   0.15398   0.00000  Uiso   1.00
H171   H     0.68644   0.33210   0.08845   0.00000  Uiso   1.00
H172   H     0.72605   0.00630   0.13686   0.00000  Uiso   1.00
H173   H     0.94220   0.22372   0.08205   0.00000  Uiso   1.00
H174   H     0.98683   0.26050   0.08577   0.00000  Uiso   1.00
H175   H     0.93891   0.32402   0.10855   0.00000  Uiso   1.00
H176   H     0.92796   0.30012   0.04710   0.00000  Uiso   1.00
N177   N     0.83333   0.28573   0.16667   0.00000  Uiso   1.00
N178   N     0.83333   0.04760   0.16667   0.00000  Uiso   1.00
O179   O     0.77226   0.20487   0.16666   0.00000  Uiso   1.00
O180   O     0.95910   0.24856   0.15375   0.00000  Uiso   1.00
O181   O     0.96050   0.09212   0.20524   0.00000  Uiso   1.00
O182   O     0.70891   0.24889   0.17710   0.00000  Uiso   1.00
O183   O     0.89441   0.12846   0.16667   0.00000  Uiso   1.00
O184   O     0.89441   0.20487   0.16667   0.00000  Uiso   1.00
O185   O     0.77226   0.12846   0.16666   0.00000  Uiso   1.00
O186   O     0.83334   0.20488   0.09511   0.00000  Uiso   1.00
O187   O     0.83333   0.12845   0.23822   0.00000  Uiso   1.00
O188   O     0.83333   0.20488   0.23822   0.00000  Uiso   1.00
O189   O     0.83334   0.12845   0.09511   0.00000  Uiso   1.00
O190   O     0.70477   0.08524   0.16637   0.00000  Uiso   1.00
Zn191  Zn    0.83333   0.21771   0.16667   0.00000  Uiso   1.00
Zn192  Zn    0.83333   0.11563   0.16667   0.00000  Uiso   1.00
C193   C     0.08663   0.49998   0.16678   0.00000  Uiso   1.00
C194   C     0.02151   0.54188   0.17003   0.00000  Uiso   1.00
C195   C     0.29080   0.50157   0.17233   0.00000  Uiso   1.00
C196   C     0.04235   0.50050   0.16863   0.00000  Uiso   1.00
C197   C     0.18804   0.35708   0.20313   0.00000  Uiso   1.00
C198   C     0.14428   0.64255   0.13100   0.00000  Uiso   1.00
C199   C     0.14541   0.35693   0.12998   0.00000  Uiso   1.00
C200   C     0.18939   0.64279   0.20195   0.00000  Uiso   1.00
C201   C     0.02165   0.39794   0.12196   0.00000  Uiso   1.00
C202   C     0.02723   0.34761   0.12557   0.00000  Uiso   1.00
C203   C     0.28924   0.58731   0.10099   0.00000  Uiso   1.00
C204   C     0.24659   0.50034   0.16881   0.00000  Uiso   1.00
C205   C     0.26137   0.62683   0.08816   0.00000  Uiso   1.00
C206   C     0.30964   0.42008   0.25543   0.00000  Uiso   1.00
C207   C     0.32142   0.37139   0.26447   0.00000  Uiso   1.00
C208   C     0.04105   0.59380   0.22865   0.00000  Uiso   1.00
C209   C     0.07737   0.62427   0.24310   0.00000  Uiso   1.00
C210   C     0.16663   0.50002   0.07301   0.00000  Uiso   1.00
C211   C     0.16674   0.49999   0.26033   0.00000  Uiso   1.00
C212   C     0.16668   0.50003   0.02184   0.00000  Uiso   1.00
C213   C     0.16672   0.50000   0.31149   0.00000  Uiso   1.00
C214   C     0.02000   0.46012   0.17125   0.00000  Uiso   1.00
C215   C     0.31237   0.54189   0.16400   0.00000  Uiso   1.00
C216   C     0.31244   0.46231   0.18384   0.00000  Uiso   1.00
Cl217  Cl    0.21324   0.38494   0.25335   0.00000  Uiso   1.00
Cl218  Cl    0.11344   0.61345   0.08590   0.00000  Uiso   1.00
Cl219  Cl    0.11943   0.38483   0.08021   0.00000  Uiso   1.00
Cl220  Cl    0.22143   0.61411   0.24580   0.00000  Uiso   1.00
H221   H     0.03794   0.41102   0.08900   0.00000  Uiso   1.00
H222   H     0.22942   0.61904   0.09886   0.00000  Uiso   1.00
H223   H     0.28543   0.42953   0.28171   0.00000  Uiso   1.00
H224   H     0.00385   0.44125   0.26590   0.00000  Uiso   1.00
H225   H     0.29557   0.34865   0.25309   0.00000  Uiso   1.00
H226   H     0.01520   0.36315   0.24226   0.00000  Uiso   1.00
H227   H     0.32949   0.36604   0.30492   0.00000  Uiso   1.00
H228   H     0.04308   0.56405   0.25417   0.00000  Uiso   1.00
H229   H     0.01191   0.61172   0.23554   0.00000  Uiso   1.00
H230   H     0.07747   0.65462   0.21911   0.00000  Uiso   1.00
H231   H     0.07532   0.63483   0.28292   0.00000  Uiso   1.00
H232   H     0.32137   0.40374   0.11479   0.00000  Uiso   1.00
H233   H     0.10669   0.60603   0.23894   0.00000  Uiso   1.00
H234   H     0.00659   0.33352   0.15398   0.00000  Uiso   1.00
H235   H     0.01977   0.66544   0.08845   0.00000  Uiso   1.00
H236   H     0.05939   0.33964   0.13686   0.00000  Uiso   1.00
H237   H     0.27554   0.55706   0.08205   0.00000  Uiso   1.00
H238   H     0.32016   0.59383   0.08577   0.00000  Uiso   1.00
H239   H     0.27225   0.65736   0.10855   0.00000  Uiso   1.00
H240   H     0.26129   0.63345   0.04710   0.00000  Uiso   1.00
N241   N     0.16667   0.61907   0.16667   0.00000  Uiso   1.00
N242   N     0.16667   0.38093   0.16667   0.00000  Uiso   1.00
O243   O     0.10559   0.53821   0.16666   0.00000  Uiso   1.00
O244   O     0.29243   0.58189   0.15375   0.00000  Uiso   1.00
O245   O     0.29384   0.42545   0.20524   0.00000  Uiso   1.00
O246   O     0.04224   0.58222   0.17710   0.00000  Uiso   1.00
O247   O     0.22774   0.46179   0.16667   0.00000  Uiso   1.00
O248   O     0.22774   0.53821   0.16667   0.00000  Uiso   1.00
O249   O     0.10559   0.46179   0.16666   0.00000  Uiso   1.00
O250   O     0.16667   0.53821   0.09511   0.00000  Uiso   1.00
O251   O     0.16666   0.46179   0.23822   0.00000  Uiso   1.00
O252   O     0.16666   0.53821   0.23822   0.00000  Uiso   1.00
O253   O     0.16667   0.46179   0.09511   0.00000  Uiso   1.00
O254   O     0.03810   0.41858   0.16637   0.00000  Uiso   1.00
Zn255  Zn    0.16667   0.55104   0.16667   0.00000  Uiso   1.00
Zn256  Zn    0.16667   0.44896   0.16667   0.00000  Uiso   1.00
C257   C     0.41997   0.49998   0.16678   0.00000  Uiso   1.00
C258   C     0.35485   0.54188   0.17003   0.00000  Uiso   1.00
C259   C     0.62413   0.50157   0.17233   0.00000  Uiso   1.00
C260   C     0.37568   0.50050   0.16863   0.00000  Uiso   1.00
C261   C     0.52138   0.35708   0.20313   0.00000  Uiso   1.00
C262   C     0.47762   0.64255   0.13100   0.00000  Uiso   1.00
C263   C     0.47875   0.35693   0.12998   0.00000  Uiso   1.00
C264   C     0.52272   0.64279   0.20195   0.00000  Uiso   1.00
C265   C     0.35498   0.39794   0.12196   0.00000  Uiso   1.00
C266   C     0.36056   0.34761   0.12557   0.00000  Uiso   1.00
C267   C     0.62258   0.58731   0.10099   0.00000  Uiso   1.00
C268   C     0.57993   0.50034   0.16881   0.00000  Uiso   1.00
C269   C     0.59470   0.62683   0.08816   0.00000  Uiso   1.00
C270   C     0.64297   0.42008   0.25543   0.00000  Uiso   1.00
C271   C     0.65475   0.37139   0.26447   0.00000  Uiso   1.00
C272   C     0.37438   0.59380   0.22865   0.00000  Uiso   1.00
C273   C     0.41071   0.62427   0.24310   0.00000  Uiso   1.00
C274   C     0.49997   0.50002   0.07301   0.00000  Uiso   1.00
C275   C     0.50008   0.49999   0.26033   0.00000  Uiso   1.00
C276   C     0.50002   0.50003   0.02184   0.00000  Uiso   1.00
C277   C     0.50005   0.50000   0.31149   0.00000  Uiso   1.00
C278   C     0.35333   0.46012   0.17125   0.00000  Uiso   1.00
C279   C     0.64570   0.54189   0.16400   0.00000  Uiso   1.00
C280   C     0.64578   0.46231   0.18384   0.00000  Uiso   1.00
Cl281  Cl    0.54657   0.38494   0.25335   0.00000  Uiso   1.00
Cl282  Cl    0.44678   0.61345   0.08590   0.00000  Uiso   1.00
Cl283  Cl    0.45277   0.38483   0.08021   0.00000  Uiso   1.00
Cl284  Cl    0.55477   0.61411   0.24580   0.00000  Uiso   1.00
H285   H     0.37127   0.41102   0.08900   0.00000  Uiso   1.00
H286   H     0.56276   0.61904   0.09886   0.00000  Uiso   1.00
H287   H     0.61877   0.42953   0.28171   0.00000  Uiso   1.00
H288   H     0.33718   0.44125   0.26590   0.00000  Uiso   1.00
H289   H     0.62891   0.34865   0.25309   0.00000  Uiso   1.00
H290   H     0.34853   0.36315   0.24226   0.00000  Uiso   1.00
H291   H     0.66282   0.36604   0.30492   0.00000  Uiso   1.00
H292   H     0.37641   0.56405   0.25417   0.00000  Uiso   1.00
H293   H     0.34524   0.61172   0.23554   0.00000  Uiso   1.00
H294   H     0.41080   0.65462   0.21911   0.00000  Uiso   1.00
H295   H     0.40865   0.63483   0.28292   0.00000  Uiso   1.00
H296   H     0.65471   0.40374   0.11479   0.00000  Uiso   1.00
H297   H     0.44003   0.60603   0.23894   0.00000  Uiso   1.00
H298   H     0.33992   0.33352   0.15398   0.00000  Uiso   1.00
H299   H     0.35310   0.66544   0.08845   0.00000  Uiso   1.00
H300   H     0.39272   0.33964   0.13686   0.00000  Uiso   1.00
H301   H     0.60887   0.55706   0.08205   0.00000  Uiso   1.00
H302   H     0.65349   0.59383   0.08577   0.00000  Uiso   1.00
H303   H     0.60558   0.65736   0.10855   0.00000  Uiso   1.00
H304   H     0.59463   0.63345   0.04710   0.00000  Uiso   1.00
N305   N     0.50000   0.61907   0.16667   0.00000  Uiso   1.00
N306   N     0.50000   0.38093   0.16667   0.00000  Uiso   1.00
O307   O     0.43892   0.53821   0.16666   0.00000  Uiso   1.00
O308   O     0.62576   0.58189   0.15375   0.00000  Uiso   1.00
O309   O     0.62717   0.42545   0.20524   0.00000  Uiso   1.00
O310   O     0.37557   0.58222   0.17710   0.00000  Uiso   1.00
O311   O     0.56108   0.46179   0.16667   0.00000  Uiso   1.00
O312   O     0.56108   0.53821   0.16667   0.00000  Uiso   1.00
O313   O     0.43892   0.46179   0.16666   0.00000  Uiso   1.00
O314   O     0.50000   0.53821   0.09511   0.00000  Uiso   1.00
O315   O     0.50000   0.46179   0.23822   0.00000  Uiso   1.00
O316   O     0.50000   0.53821   0.23822   0.00000  Uiso   1.00
O317   O     0.50000   0.46179   0.09511   0.00000  Uiso   1.00
O318   O     0.37143   0.41858   0.16637   0.00000  Uiso   1.00
Zn319  Zn    0.50000   0.55104   0.16667   0.00000  Uiso   1.00
Zn320  Zn    0.50000   0.44896   0.16667   0.00000  Uiso   1.00
C321   C     0.75330   0.49998   0.16678   0.00000  Uiso   1.00
C322   C     0.68818   0.54188   0.17003   0.00000  Uiso   1.00
C323   C     0.95747   0.50157   0.17233   0.00000  Uiso   1.00
C324   C     0.70902   0.50050   0.16863   0.00000  Uiso   1.00
C325   C     0.85471   0.35708   0.20313   0.00000  Uiso   1.00
C326   C     0.81095   0.64255   0.13100   0.00000  Uiso   1.00
C327   C     0.81208   0.35693   0.12998   0.00000  Uiso   1.00
C328   C     0.85606   0.64279   0.20195   0.00000  Uiso   1.00
C329   C     0.68831   0.39794   0.12196   0.00000  Uiso   1.00
C330   C     0.69390   0.34761   0.12557   0.00000  Uiso   1.00
C331   C     0.95591   0.58731   0.10099   0.00000  Uiso   1.00
C332   C     0.91326   0.50034   0.16881   0.00000  Uiso   1.00
C333   C     0.92803   0.62683   0.08816   0.00000  Uiso   1.00
C334   C     0.97631   0.42008   0.25543   0.00000  Uiso   1.00
C335   C     0.98808   0.37139   0.26447   0.00000  Uiso   1.00
C336   C     0.70772   0.59380   0.22865   0.00000  Uiso   1.00
C337   C     0.74404   0.62427   0.24310   0.00000  Uiso   1.00
C338   C     0.83330   0.50002   0.07301   0.00000  Uiso   1.00
C339   C     0.83341   0.49999   0.26033   0.00000  Uiso   1.00
C340   C     0.83335   0.50003   0.02184   0.00000  Uiso   1.00
C341   C     0.83339   0.50000   0.31149   0.00000  Uiso   1.00
C342   C     0.68667   0.46012   0.17125   0.00000  Uiso   1.00
C343   C     0.97904   0.54189   0.16400   0.00000  Uiso   1.00
C344   C     0.97911   0.46231   0.18384   0.00000  Uiso   1.00
Cl345  Cl    0.87991   0.38494   0.25335   0.00000  Uiso   1.00
Cl346  Cl    0.78011   0.61345   0.08590   0.00000  Uiso   1.00
Cl347  Cl    0.78610   0.38483   0.08021   0.00000  Uiso   1.00
Cl348  Cl    0.88810   0.61411   0.24580   0.00000  Uiso   1.00
H349   H     0.70461   0.41102   0.08900   0.00000  Uiso   1.00
H350   H     0.89609   0.61904   0.09886   0.00000  Uiso   1.00
H351   H     0.95210   0.42953   0.28171   0.00000  Uiso   1.00
H352   H     0.67051   0.44125   0.26590   0.00000  Uiso   1.00
H353   H     0.96224   0.34865   0.25309   0.00000  Uiso   1.00
H354   H     0.68187   0.36315   0.24226   0.00000  Uiso   1.00
H355   H     0.99616   0.36604   0.30492   0.00000  Uiso   1.00
H356   H     0.70974   0.56405   0.25417   0.00000  Uiso   1.00
H357   H     0.67857   0.61172   0.23554   0.00000  Uiso   1.00
H358   H     0.74413   0.65462   0.21911   0.00000  Uiso   1.00
H359   H     0.74198   0.63483   0.28292   0.00000  Uiso   1.00
H360   H     0.98804   0.40374   0.11479   0.00000  Uiso   1.00
H361   H     0.77336   0.60603   0.23894   0.00000  Uiso   1.00
H362   H     0.67326   0.33352   0.15398   0.00000  Uiso   1.00
H363   H     0.68644   0.66544   0.08845   0.00000  Uiso   1.00
H364   H     0.72605   0.33964   0.13686   0.00000  Uiso   1.00
H365   H     0.94220   0.55706   0.08205   0.00000  Uiso   1.00
H366   H     0.98683   0.59383   0.08577   0.00000  Uiso   1.00
H367   H     0.93891   0.65736   0.10855   0.00000  Uiso   1.00
H368   H     0.92796   0.63345   0.04710   0.00000  Uiso   1.00
N369   N     0.83333   0.61907   0.16667   0.00000  Uiso   1.00
N370   N     0.83333   0.38093   0.16667   0.00000  Uiso   1.00
O371   O     0.77226   0.53821   0.16666   0.00000  Uiso   1.00
O372   O     0.95910   0.58189   0.15375   0.00000  Uiso   1.00
O373   O     0.96050   0.42545   0.20524   0.00000  Uiso   1.00
O374   O     0.70891   0.58222   0.17710   0.00000  Uiso   1.00
O375   O     0.89441   0.46179   0.16667   0.00000  Uiso   1.00
O376   O     0.89441   0.53821   0.16667   0.00000  Uiso   1.00
O377   O     0.77226   0.46179   0.16666   0.00000  Uiso   1.00
O378   O     0.83334   0.53821   0.09511   0.00000  Uiso   1.00
O379   O     0.83333   0.46179   0.23822   0.00000  Uiso   1.00
O380   O     0.83333   0.53821   0.23822   0.00000  Uiso   1.00
O381   O     0.83334   0.46179   0.09511   0.00000  Uiso   1.00
O382   O     0.70477   0.41858   0.16637   0.00000  Uiso   1.00
Zn383  Zn    0.83333   0.55104   0.16667   0.00000  Uiso   1.00
Zn384  Zn    0.83333   0.44896   0.16667   0.00000  Uiso   1.00
C385   C     0.08663   0.83331   0.16678   0.00000  Uiso   1.00
C386   C     0.02151   0.87522   0.17003   0.00000  Uiso   1.00
C387   C     0.29080   0.83490   0.17233   0.00000  Uiso   1.00
C388   C     0.04235   0.83383   0.16863   0.00000  Uiso   1.00
C389   C     0.18804   0.69041   0.20313   0.00000  Uiso   1.00
C390   C     0.14428   0.97589   0.13100   0.00000  Uiso   1.00
C391   C     0.14541   0.69027   0.12998   0.00000  Uiso   1.00
C392   C     0.18939   0.97612   0.20195   0.00000  Uiso   1.00
C393   C     0.02165   0.73128   0.12196   0.00000  Uiso   1.00
C394   C     0.02723   0.68094   0.12557   0.00000  Uiso   1.00
C395   C     0.28924   0.92064   0.10099   0.00000  Uiso   1.00
C396   C     0.24659   0.83367   0.16881   0.00000  Uiso   1.00
C397   C     0.26137   0.96016   0.08816   0.00000  Uiso   1.00
C398   C     0.30964   0.75342   0.25543   0.00000  Uiso   1.00
C399   C     0.32142   0.70472   0.26447   0.00000  Uiso   1.00
C400   C     0.04105   0.92714   0.22865   0.00000  Uiso   1.00
C401   C     0.07737   0.95760   0.24310   0.00000  Uiso   1.00
C402   C     0.16663   0.83335   0.07301   0.00000  Uiso   1.00
C403   C     0.16674   0.83333   0.26033   0.00000  Uiso   1.00
C404   C     0.16668   0.83337   0.02184   0.00000  Uiso   1.00
C405   C     0.16672   0.83334   0.31149   0.00000  Uiso   1.00
C406   C     0.02000   0.79345   0.17125   0.00000  Uiso   1.00
C407   C     0.31237   0.87522   0.16400   0.00000  Uiso   1.00
C408   C     0.31244   0.79565   0.18384   0.00000  Uiso   1.00
Cl409  Cl    0.21324   0.71827   0.25335   0.00000  Uiso   1.00
Cl410  Cl    0.11344   0.94679   0.08590   0.00000  Uiso   1.00
Cl411  Cl    0.11943   0.71816   0.08021   0.00000  Uiso   1.00
Cl412  Cl    0.22143   0.94744   0.24580   0.00000  Uiso   1.00
H413   H     0.03794   0.74435   0.08900   0.00000  Uiso   1.00
H414   H     0.22942   0.95237   0.09886   0.00000  Uiso   1.00
H415   H     0.28543   0.76287   0.28171   0.00000  Uiso   1.00
H416   H     0.00385   0.77458   0.26590   0.00000  Uiso   1.00
H417   H     0.29557   0.68199   0.25309   0.00000  Uiso   1.00
H418   H     0.01520   0.69649   0.24226   0.00000  Uiso   1.00
H419   H     0.32949   0.69937   0.30492   0.00000  Uiso   1.00
H420   H     0.04308   0.89738   0.25417   0.00000  Uiso   1.00
H421   H     0.01191   0.94506   0.23554   0.00000  Uiso   1.00
H422   H     0.07747   0.98795   0.21911   0.00000  Uiso   1.00
H423   H     0.07532   0.96816   0.28292   0.00000  Uiso   1.00
H424   H     0.32137   0.73707   0.11479   0.00000  Uiso   1.00
H425   H     0.10669   0.93936   0.23894   0.00000  Uiso   1.00
H426   H     0.00659   0.66685   0.15398   0.00000  Uiso   1.00
H427   H     0.01977   0.99877   0.08845   0.00000  Uiso   1.00
H428   H     0.05939   0.67297   0.13686   0.00000  Uiso   1.00
H429   H     0.27554   0.89039   0.08205   0.00000  Uiso   1.00
H430   H     0.32016   0.92717   0.08577   0.00000  Uiso   1.00
H431   H     0.27225   0.99069   0.10855   0.00000  Uiso   1.00
H432   H     0.26129   0.96679   0.04710   0.00000  Uiso   1.00
N433   N     0.16667   0.95240   0.16667   0.00000  Uiso   1.00
N434   N     0.16667   0.71427   0.16667   0.00000  Uiso   1.00
O435   O     0.10559   0.87154   0.16666   0.00000  Uiso   1.00
O436   O     0.29243   0.91523   0.15375   0.00000  Uiso   1.00
O437   O     0.29384   0.75879   0.20524   0.00000  Uiso   1.00
O438   O     0.04224   0.91555   0.17710   0.00000  Uiso   1.00
O439   O     0.22774   0.79513   0.16667   0.00000  Uiso   1.00
O440   O     0.22774   0.87154   0.16667   0.00000  Uiso   1.00
O441   O     0.10559   0.79513   0.16666   0.00000  Uiso   1.00
O442   O     0.16667   0.87155   0.09511   0.00000  Uiso   1.00
O443   O     0.16666   0.79512   0.23822   0.00000  Uiso   1.00
O444   O     0.16666   0.87155   0.23822   0.00000  Uiso   1.00
O445   O     0.16667   0.79512   0.09511   0.00000  Uiso   1.00
O446   O     0.03810   0.75191   0.16637   0.00000  Uiso   1.00
Zn447  Zn    0.16667   0.88437   0.16667   0.00000  Uiso   1.00
Zn448  Zn    0.16667   0.78229   0.16667   0.00000  Uiso   1.00
C449   C     0.41997   0.83331   0.16678   0.00000  Uiso   1.00
C450   C     0.35485   0.87522   0.17003   0.00000  Uiso   1.00
C451   C     0.62413   0.83490   0.17233   0.00000  Uiso   1.00
C452   C     0.37568   0.83383   0.16863   0.00000  Uiso   1.00
C453   C     0.52138   0.69041   0.20313   0.00000  Uiso   1.00
C454   C     0.47762   0.97589   0.13100   0.00000  Uiso   1.00
C455   C     0.47875   0.69027   0.12998   0.00000  Uiso   1.00
C456   C     0.52272   0.97612   0.20195   0.00000  Uiso   1.00
C457   C     0.35498   0.73128   0.12196   0.00000  Uiso   1.00
C458   C     0.36056   0.68094   0.12557   0.00000  Uiso   1.00
C459   C     0.62258   0.92064   0.10099   0.00000  Uiso   1.00
C460   C     0.57993   0.83367   0.16881   0.00000  Uiso   1.00
C461   C     0.59470   0.96016   0.08816   0.00000  Uiso   1.00
C462   C     0.64297   0.75342   0.25543   0.00000  Uiso   1.00
C463   C     0.65475   0.70472   0.26447   0.00000  Uiso   1.00
C464   C     0.37438   0.92714   0.22865   0.00000  Uiso   1.00
C465   C     0.41071   0.95760   0.24310   0.00000  Uiso   1.00
C466   C     0.49997   0.83335   0.07301   0.00000  Uiso   1.00
C467   C     0.50008   0.83333   0.26033   0.00000  Uiso   1.00
C468   C     0.50002   0.83337   0.02184   0.00000  Uiso   1.00
C469   C     0.50005   0.83334   0.31149   0.00000  Uiso   1.00
C470   C     0.35333   0.79345   0.17125   0.00000  Uiso   1.00
C471   C     0.64570   0.87522   0.16400   0.00000  Uiso   1.00
C472   C     0.64578   0.79565   0.18384   0.00000  Uiso   1.00
Cl473  Cl    0.54657   0.71827   0.25335   0.00000  Uiso   1.00
Cl474  Cl    0.44678   0.94679   0.08590   0.00000  Uiso   1.00
Cl475  Cl    0.45277   0.71816   0.08021   0.00000  Uiso   1.00
Cl476  Cl    0.55477   0.94744   0.24580   0.00000  Uiso   1.00
H477   H     0.37127   0.74435   0.08900   0.00000  Uiso   1.00
H478   H     0.56276   0.95237   0.09886   0.00000  Uiso   1.00
H479   H     0.61877   0.76287   0.28171   0.00000  Uiso   1.00
H480   H     0.33718   0.77458   0.26590   0.00000  Uiso   1.00
H481   H     0.62891   0.68199   0.25309   0.00000  Uiso   1.00
H482   H     0.34853   0.69649   0.24226   0.00000  Uiso   1.00
H483   H     0.66282   0.69937   0.30492   0.00000  Uiso   1.00
H484   H     0.37641   0.89738   0.25417   0.00000  Uiso   1.00
H485   H     0.34524   0.94506   0.23554   0.00000  Uiso   1.00
H486   H     0.41080   0.98795   0.21911   0.00000  Uiso   1.00
H487   H     0.40865   0.96816   0.28292   0.00000  Uiso   1.00
H488   H     0.65471   0.73707   0.11479   0.00000  Uiso   1.00
H489   H     0.44003   0.93936   0.23894   0.00000  Uiso   1.00
H490   H     0.33992   0.66685   0.15398   0.00000  Uiso   1.00
H491   H     0.35310   0.99877   0.08845   0.00000  Uiso   1.00
H492   H     0.39272   0.67297   0.13686   0.00000  Uiso   1.00
H493   H     0.60887   0.89039   0.08205   0.00000  Uiso   1.00
H494   H     0.65349   0.92717   0.08577   0.00000  Uiso   1.00
H495   H     0.60558   0.99069   0.10855   0.00000  Uiso   1.00
H496   H     0.59463   0.96679   0.04710   0.00000  Uiso   1.00
N497   N     0.50000   0.95240   0.16667   0.00000  Uiso   1.00
N498   N     0.50000   0.71427   0.16667   0.00000  Uiso   1.00
O499   O     0.43892   0.87154   0.16666   0.00000  Uiso   1.00
O500   O     0.62576   0.91523   0.15375   0.00000  Uiso   1.00
O501   O     0.62717   0.75879   0.20524   0.00000  Uiso   1.00
O502   O     0.37557   0.91555   0.17710   0.00000  Uiso   1.00
O503   O     0.56108   0.79513   0.16667   0.00000  Uiso   1.00
O504   O     0.56108   0.87154   0.16667   0.00000  Uiso   1.00
O505   O     0.43892   0.79513   0.16666   0.00000  Uiso   1.00
O506   O     0.50000   0.87155   0.09511   0.00000  Uiso   1.00
O507   O     0.50000   0.79512   0.23822   0.00000  Uiso   1.00
O508   O     0.50000   0.87155   0.23822   0.00000  Uiso   1.00
O509   O     0.50000   0.79512   0.09511   0.00000  Uiso   1.00
O510   O     0.37143   0.75191   0.16637   0.00000  Uiso   1.00
Zn511  Zn    0.50000   0.88437   0.16667   0.00000  Uiso   1.00
Zn512  Zn    0.50000   0.78229   0.16667   0.00000  Uiso   1.00
C513   C     0.75330   0.83331   0.16678   0.00000  Uiso   1.00
C514   C     0.68818   0.87522   0.17003   0.00000  Uiso   1.00
C515   C     0.95747   0.83490   0.17233   0.00000  Uiso   1.00
C516   C     0.70902   0.83383   0.16863   0.00000  Uiso   1.00
C517   C     0.85471   0.69041   0.20313   0.00000  Uiso   1.00
C518   C     0.81095   0.97589   0.13100   0.00000  Uiso   1.00
C519   C     0.81208   0.69027   0.12998   0.00000  Uiso   1.00
C520   C     0.85606   0.97612   0.20195   0.00000  Uiso   1.00
C521   C     0.68831   0.73128   0.12196   0.00000  Uiso   1.00
C522   C     0.69390   0.68094   0.12557   0.00000  Uiso   1.00
C523   C     0.95591   0.92064   0.10099   0.00000  Uiso   1.00
C524   C     0.91326   0.83367   0.16881   0.00000  Uiso   1.00
C525   C     0.92803   0.96016   0.08816   0.00000  Uiso   1.00
C526   C     0.97631   0.75342   0.25543   0.00000  Uiso   1.00
C527   C     0.98808   0.70472   0.26447   0.00000  Uiso   1.00
C528   C     0.70772   0.92714   0.22865   0.00000  Uiso   1.00
C529   C     0.74404   0.95760   0.24310   0.00000  Uiso   1.00
C530   C     0.83330   0.83335   0.07301   0.00000  Uiso   1.00
C531   C     0.83341   0.83333   0.26033   0.00000  Uiso   1.00
C532   C     0.83335   0.83337   0.02184   0.00000  Uiso   1.00
C533   C     0.83339   0.83334   0.31149   0.00000  Uiso   1.00
C534   C     0.68667   0.79345   0.17125   0.00000  Uiso   1.00
C535   C     0.97904   0.87522   0.16400   0.00000  Uiso   1.00
C536   C     0.97911   0.79565   0.18384   0.00000  Uiso   1.00
Cl537  Cl    0.87991   0.71827   0.25335   0.00000  Uiso   1.00
Cl538  Cl    0.78011   0.94679   0.08590   0.00000  Uiso   1.00
Cl539  Cl    0.78610   0.71816   0.08021   0.00000  Uiso   1.00
Cl540  Cl    0.88810   0.94744   0.24580   0.00000  Uiso   1.00
H541   H     0.70461   0.74435   0.08900   0.00000  Uiso   1.00
H542   H     0.89609   0.95237   0.09886   0.00000  Uiso   1.00
H543   H     0.95210   0.76287   0.28171   0.00000  Uiso   1.00
H544   H     0.67051   0.77458   0.26590   0.00000  Uiso   1.00
H545   H     0.96224   0.68199   0.25309   0.00000  Uiso   1.00
H546   H     0.68187   0.69649   0.24226   0.00000  Uiso   1.00
H547   H     0.99616   0.69937   0.30492   0.00000  Uiso   1.00
H548   H     0.70974   0.89738   0.25417   0.00000  Uiso   1.00
H549   H     0.67857   0.94506   0.23554   0.00000  Uiso   1.00
H550   H     0.74413   0.98795   0.21911   0.00000  Uiso   1.00
H551   H     0.74198   0.96816   0.28292   0.00000  Uiso   1.00
H552   H     0.98804   0.73707   0.11479   0.00000  Uiso   1.00
H553   H     0.77336   0.93936   0.23894   0.00000  Uiso   1.00
H554   H     0.67326   0.66685   0.15398   0.00000  Uiso   1.00
H555   H     0.68644   0.99877   0.08845   0.00000  Uiso   1.00
H556   H     0.72605   0.67297   0.13686   0.00000  Uiso   1.00
H557   H     0.94220   0.89039   0.08205   0.00000  Uiso   1.00
H558   H     0.98683   0.92717   0.08577   0.00000  Uiso   1.00
H559   H     0.93891   0.99069   0.10855   0.00000  Uiso   1.00
H560   H     0.92796   0.96679   0.04710   0.00000  Uiso   1.00
N561   N     0.83333   0.95240   0.16667   0.00000  Uiso   1.00
N562   N     0.83333   0.71427   0.16667   0.00000  Uiso   1.00
O563   O     0.77226   0.87154   0.16666   0.00000  Uiso   1.00
O564   O     0.95910   0.91523   0.15375   0.00000  Uiso   1.00
O565   O     0.96050   0.75879   0.20524   0.00000  Uiso   1.00
O566   O     0.70891   0.91555   0.17710   0.00000  Uiso   1.00
O567   O     0.89441   0.79513   0.16667   0.00000  Uiso   1.00
O568   O     0.89441   0.87154   0.16667   0.00000  Uiso   1.00
O569   O     0.77226   0.79513   0.16666   0.00000  Uiso   1.00
O570   O     0.83334   0.87155   0.09511   0.00000  Uiso   1.00
O571   O     0.83333   0.79512   0.23822   0.00000  Uiso   1.00
O572   O     0.83333   0.87155   0.23822   0.00000  Uiso   1.00
O573   O     0.83334   0.79512   0.09511   0.00000  Uiso   1.00
O574   O     0.70477   0.75191   0.16637   0.00000  Uiso   1.00
Zn575  Zn    0.83333   0.88437   0.16667   0.00000  Uiso   1.00
Zn576  Zn    0.83333   0.78229   0.16667   0.00000  Uiso   1.00
C577   C     0.08663   0.16664   0.50012   0.00000  Uiso   1.00
C578   C     0.02151   0.20855   0.50336   0.00000  Uiso   1.00
C579   C     0.29080   0.16823   0.50567   0.00000  Uiso   1.00
C580   C     0.04235   0.16716   0.50196   0.00000  Uiso   1.00
C581   C     0.18804   0.02375   0.53647   0.00000  Uiso   1.00
C582   C     0.14428   0.30922   0.46433   0.00000  Uiso   1.00
C583   C     0.14541   0.02360   0.46332   0.00000  Uiso   1.00
C584   C     0.18939   0.30946   0.53529   0.00000  Uiso   1.00
C585   C     0.02165   0.06461   0.45529   0.00000  Uiso   1.00
C586   C     0.02723   0.01427   0.45890   0.00000  Uiso   1.00
C587   C     0.28924   0.25397   0.43432   0.00000  Uiso   1.00
C588   C     0.24659   0.16700   0.50214   0.00000  Uiso   1.00
C589   C     0.26137   0.29349   0.42149   0.00000  Uiso   1.00
C590   C     0.30964   0.08675   0.58876   0.00000  Uiso   1.00
C591   C     0.32142   0.03805   0.59780   0.00000  Uiso   1.00
C592   C     0.04105   0.26047   0.56199   0.00000  Uiso   1.00
C593   C     0.07737   0.29094   0.57643   0.00000  Uiso   1.00
C594   C     0.16663   0.16668   0.40634   0.00000  Uiso   1.00
C595   C     0.16674   0.16666   0.59366   0.00000  Uiso   1.00
C596   C     0.16668   0.16670   0.35518   0.00000  Uiso   1.00
C597   C     0.16672   0.16667   0.64482   0.00000  Uiso   1.00
C598   C     0.02000   0.12678   0.50458   0.00000  Uiso   1.00
C599   C     0.31237   0.20856   0.49733   0.00000  Uiso   1.00
C600   C     0.31244   0.12898   0.51717   0.00000  Uiso   1.00
Cl601  Cl    0.21324   0.05160   0.58668   0.00000  Uiso   1.00
Cl602  Cl    0.11344   0.28012   0.41923   0.00000  Uiso   1.00
Cl603  Cl    0.11943   0.05149   0.41355   0.00000  Uiso   1.00
Cl604  Cl    0.22143   0.28078   0.57913   0.00000  Uiso   1.00
H605   H     0.03794   0.07769   0.42233   0.00000  Uiso   1.00
H606   H     0.22942   0.28571   0.43219   0.00000  Uiso   1.00
H607   H     0.28543   0.09620   0.61504   0.00000  Uiso   1.00
H608   H     0.00385   0.10791   0.59923   0.00000  Uiso   1.00
H609   H     0.29557   0.01532   0.58642   0.00000  Uiso   1.00
H610   H     0.01520   0.02982   0.57560   0.00000  Uiso   1.00
H611   H     0.32949   0.03271   0.63825   0.00000  Uiso   1.00
H612   H     0.04308   0.23071   0.58750   0.00000  Uiso   1.00
H613   H     0.01191   0.27839   0.56888   0.00000  Uiso   1.00
H614   H     0.07747   0.32129   0.55244   0.00000  Uiso   1.00
H615   H     0.07532   0.30150   0.61625   0.00000  Uiso   1.00
H616   H     0.32137   0.07040   0.44812   0.00000  Uiso   1.00
H617   H     0.10669   0.27269   0.57228   0.00000  Uiso   1.00
H618   H     0.00659   0.00019   0.48731   0.00000  Uiso   1.00
H619   H     0.01977   0.33210   0.42179   0.00000  Uiso   1.00
H620   H     0.05939   0.00630   0.47020   0.00000  Uiso   1.00
H621   H     0.27554   0.22372   0.41538   0.00000  Uiso   1.00
H622   H     0.32016   0.26050   0.41910   0.00000  Uiso   1.00
H623   H     0.27225   0.32402   0.44189   0.00000  Uiso   1.00
H624   H     0.26129   0.30012   0.38043   0.00000  Uiso   1.00
N625   N     0.16667   0.28573   0.50000   0.00000  Uiso   1.00
N626   N     0.16667   0.04760   0.50000   0.00000  Uiso   1.00
O627   O     0.10559   0.20487   0.50000   0.00000  Uiso   1.00
O628   O     0.29243   0.24856   0.48708   0.00000  Uiso   1.00
O629   O     0.29384   0.09212   0.53858   0.00000  Uiso   1.00
O630   O     0.04224   0.24889   0.51043   0.00000  Uiso   1.00
O631   O     0.22774   0.12846   0.50000   0.00000  Uiso   1.00
O632   O     0.22774   0.20487   0.50000   0.00000  Uiso   1.00
O633   O     0.10559   0.12846   0.50000   0.00000  Uiso   1.00
O634   O     0.16667   0.20488   0.42845   0.00000  Uiso   1.00
O635   O     0.16666   0.12845   0.57155   0.00000  Uiso   1.00
O636   O     0.16666   0.20488   0.57155   0.00000  Uiso   1.00
O637   O     0.16667   0.12845   0.42845   0.00000  Uiso   1.00
O638   O     0.03810   0.08524   0.49970   0.00000  Uiso   1.00
Zn639  Zn    0.16667   0.21771   0.50000   0.00000  Uiso   1.00
Zn640  Zn    0.16667   0.11563   0.50000   0.00000  Uiso   1.00
C641   C     0.41997   0.16664   0.50012   0.00000  Uiso   1.00
C642   C     0.35485   0.20855   0.50336   0.00000  Uiso   1.00
C643   C     0.62413   0.16823   0.50567   0.00000  Uiso   1.00
C644   C     0.37568   0.16716   0.50196   0.00000  Uiso   1.00
C645   C     0.52138   0.02375   0.53647   0.00000  Uiso   1.00
C646   C     0.47762   0.30922   0.46433   0.00000  Uiso   1.00
C647   C     0.47875   0.02360   0.46332   0.00000  Uiso   1.00
C648   C     0.52272   0.30946   0.53529   0.00000  Uiso   1.00
C649   C     0.35498   0.06461   0.45529   0.00000  Uiso   1.00
C650   C     0.36056   0.01427   0.45890   0.00000  Uiso   1.00
C651   C     0.62258   0.25397   0.43432   0.00000  Uiso   1.00
C652   C     0.57993   0.16700   0.50214   0.00000  Uiso   1.00
C653   C     0.59470   0.29349   0.42149   0.00000  Uiso   1.00
C654   C     0.64297   0.08675   0.58876   0.00000  Uiso   1.00
C655   C     0.65475   0.03805   0.59780   0.00000  Uiso   1.00
C656   C     0.37438   0.26047   0.56199   0.00000  Uiso   1.00
C657   C     0.41071   0.29094   0.57643   0.00000  Uiso   1.00
C658   C     0.49997   0.16668   0.40634   0.00000  Uiso   1.00
C659   C     0.50008   0.16666   0.59366   0.00000  Uiso   1.00
C660   C     0.50002   0.16670   0.35518   0.00000  Uiso   1.00
C661   C     0.50005   0.16667   0.64482   0.00000  Uiso   1.00
C662   C     0.35333   0.12678   0.50458   0.00000  Uiso   1.00
C663   C     0.64570   0.20856   0.49733   0.00000  Uiso   1.00
C664   C     0.64578   0.12898   0.51717   0.00000  Uiso   1.00
Cl665  Cl    0.54657   0.05160   0.58668   0.00000  Uiso   1.00
Cl666  Cl    0.44678   0.28012   0.41923   0.00000  Uiso   1.00
Cl667  Cl    0.45277   0.05149   0.41355   0.00000  Uiso   1.00
Cl668  Cl    0.55477   0.28078   0.57913   0.00000  Uiso   1.00
H669   H     0.37127   0.07769   0.42233   0.00000  Uiso   1.00
H670   H     0.56276   0.28571   0.43219   0.00000  Uiso   1.00
H671   H     0.61877   0.09620   0.61504   0.00000  Uiso   1.00
H672   H     0.33718   0.10791   0.59923   0.00000  Uiso   1.00
H673   H     0.62891   0.01532   0.58642   0.00000  Uiso   1.00
H674   H     0.34853   0.02982   0.57560   0.00000  Uiso   1.00
H675   H     0.66282   0.03271   0.63825   0.00000  Uiso   1.00
H676   H     0.37641   0.23071   0.58750   0.00000  Uiso   1.00
H677   H     0.34524   0.27839   0.56888   0.00000  Uiso   1.00
H678   H     0.41080   0.32129   0.55244   0.00000  Uiso   1.00
H679   H     0.40865   0.30150   0.61625   0.00000  Uiso   1.00
H680   H     0.65471   0.07040   0.44812   0.00000  Uiso   1.00
H681   H     0.44003   0.27269   0.57228   0.00000  Uiso   1.00
H682   H     0.33992   0.00019   0.48731   0.00000  Uiso   1.00
H683   H     0.35310   0.33210   0.42179   0.00000  Uiso   1.00
H684   H     0.39272   0.00630   0.47020   0.00000  Uiso   1.00
H685   H     0.60887   0.22372   0.41538   0.00000  Uiso   1.00
H686   H     0.65349   0.26050   0.41910   0.00000  Uiso   1.00
H687   H     0.60558   0.32402   0.44189   0.00000  Uiso   1.00
H688   H     0.59463   0.30012   0.38043   0.00000  Uiso   1.00
N689   N     0.50000   0.28573   0.50000   0.00000  Uiso   1.00
N690   N     0.50000   0.04760   0.50000   0.00000  Uiso   1.00
O691   O     0.43892   0.20487   0.50000   0.00000  Uiso   1.00
O692   O     0.62576   0.24856   0.48708   0.00000  Uiso   1.00
O693   O     0.62717   0.09212   0.53858   0.00000  Uiso   1.00
O694   O     0.37557   0.24889   0.51043   0.00000  Uiso   1.00
O695   O     0.56108   0.12846   0.50000   0.00000  Uiso   1.00
O696   O     0.56108   0.20487   0.50000   0.00000  Uiso   1.00
O697   O     0.43892   0.12846   0.50000   0.00000  Uiso   1.00
O698   O     0.50000   0.20488   0.42845   0.00000  Uiso   1.00
O699   O     0.50000   0.12845   0.57155   0.00000  Uiso   1.00
O700   O     0.50000   0.20488   0.57155   0.00000  Uiso   1.00
O701   O     0.50000   0.12845   0.42845   0.00000  Uiso   1.00
O702   O     0.37143   0.08524   0.49970   0.00000  Uiso   1.00
Zn703  Zn    0.50000   0.21771   0.50000   0.00000  Uiso   1.00
Zn704  Zn    0.50000   0.11563   0.50000   0.00000  Uiso   1.00
C705   C     0.75330   0.16664   0.50012   0.00000  Uiso   1.00
C706   C     0.68818   0.20855   0.50336   0.00000  Uiso   1.00
C707   C     0.95747   0.16823   0.50567   0.00000  Uiso   1.00
C708   C     0.70902   0.16716   0.50196   0.00000  Uiso   1.00
C709   C     0.85471   0.02375   0.53647   0.00000  Uiso   1.00
C710   C     0.81095   0.30922   0.46433   0.00000  Uiso   1.00
C711   C     0.81208   0.02360   0.46332   0.00000  Uiso   1.00
C712   C     0.85606   0.30946   0.53529   0.00000  Uiso   1.00
C713   C     0.68831   0.06461   0.45529   0.00000  Uiso   1.00
C714   C     0.69390   0.01427   0.45890   0.00000  Uiso   1.00
C715   C     0.95591   0.25397   0.43432   0.00000  Uiso   1.00
C716   C     0.91326   0.16700   0.50214   0.00000  Uiso   1.00
C717   C     0.92803   0.29349   0.42149   0.00000  Uiso   1.00
C718   C     0.97631   0.08675   0.58876   0.00000  Uiso   1.00
C719   C     0.98808   0.03805   0.59780   0.00000  Uiso   1.00
C720   C     0.70772   0.26047   0.56199   0.00000  Uiso   1.00
C721   C     0.74404   0.29094   0.57643   0.00000  Uiso   1.00
C722   C     0.83330   0.16668   0.40634   0.00000  Uiso   1.00
C723   C     0.83341   0.16666   0.59366   0.00000  Uiso   1.00
C724   C     0.83335   0.16670   0.35518   0.00000  Uiso   1.00
C725   C     0.83339   0.16667   0.64482   0.00000  Uiso   1.00
C726   C     0.68667   0.12678   0.50458   0.00000  Uiso   1.00
C727   C     0.97904   0.20856   0.49733   0.00000  Uiso   1.00
C728   C     0.97911   0.12898   0.51717   0.00000  Uiso   1.00
Cl729  Cl    0.87991   0.05160   0.58668   0.00000  Uiso   1.00
Cl730  Cl    0.78011   0.28012   0.41923   0.00000  Uiso   1.00
Cl731  Cl    0.78610   0.05149   0.41355   0.00000  Uiso   1.00
Cl732  Cl    0.88810   0.28078   0.57913   0.00000  Uiso   1.00
H733   H     0.70461   0.07769   0.42233   0.00000  Uiso   1.00
H734   H     0.89609   0.28571   0.43219   0.00000  Uiso   1.00
H735   H     0.95210   0.09620   0.61504   0.00000  Uiso   1.00
H736   H     0.67051   0.10791   0.59923   0.00000  Uiso   1.00
H737   H     0.96224   0.01532   0.58642   0.00000  Uiso   1.00
H738   H     0.68187   0.02982   0.57560   0.00000  Uiso   1.00
H739   H     0.99616   0.03271   0.63825   0.00000  Uiso   1.00
H740   H     0.70974   0.23071   0.58750   0.00000  Uiso   1.00
H741   H     0.67857   0.27839   0.56888   0.00000  Uiso   1.00
H742   H     0.74413   0.32129   0.55244   0.00000  Uiso   1.00
H743   H     0.74198   0.30150   0.61625   0.00000  Uiso   1.00
H744   H     0.98804   0.07040   0.44812   0.00000  Uiso   1.00
H745   H     0.77336   0.27269   0.57228   0.00000  Uiso   1.00
H746   H     0.67326   0.00019   0.48731   0.00000  Uiso   1.00
H747   H     0.68644   0.33210   0.42179   0.00000  Uiso   1.00
H748   H     0.72605   0.00630   0.47020   0.00000  Uiso   1.00
H749   H     0.94220   0.22372   0.41538   0.00000  Uiso   1.00
H750   H     0.98683   0.26050   0.41910   0.00000  Uiso   1.00
H751   H     0.93891   0.32402   0.44189   0.00000  Uiso   1.00
H752   H     0.92796   0.30012   0.38043   0.00000  Uiso   1.00
N753   N     0.83333   0.28573   0.50000   0.00000  Uiso   1.00
N754   N     0.83333   0.04760   0.50000   0.00000  Uiso   1.00
O755   O     0.77226   0.20487   0.50000   0.00000  Uiso   1.00
O756   O     0.95910   0.24856   0.48708   0.00000  Uiso   1.00
O757   O     0.96050   0.09212   0.53858   0.00000  Uiso   1.00
O758   O     0.70891   0.24889   0.51043   0.00000  Uiso   1.00
O759   O     0.89441   0.12846   0.50000   0.00000  Uiso   1.00
O760   O     0.89441   0.20487   0.50000   0.00000  Uiso   1.00
O761   O     0.77226   0.12846   0.50000   0.00000  Uiso   1.00
O762   O     0.83334   0.20488   0.42845   0.00000  Uiso   1.00
O763   O     0.83333   0.12845   0.57155   0.00000  Uiso   1.00
O764   O     0.83333   0.20488   0.57155   0.00000  Uiso   1.00
O765   O     0.83334   0.12845   0.42845   0.00000  Uiso   1.00
O766   O     0.70477   0.08524   0.49970   0.00000  Uiso   1.00
Zn767  Zn    0.83333   0.21771   0.50000   0.00000  Uiso   1.00
Zn768  Zn    0.83333   0.11563   0.50000   0.00000  Uiso   1.00
C769   C     0.08663   0.49998   0.50012   0.00000  Uiso   1.00
C770   C     0.02151   0.54188   0.50336   0.00000  Uiso   1.00
C771   C     0.29080   0.50157   0.50567   0.00000  Uiso   1.00
C772   C     0.04235   0.50050   0.50196   0.00000  Uiso   1.00
C773   C     0.18804   0.35708   0.53647   0.00000  Uiso   1.00
C774   C     0.14428   0.64255   0.46433   0.00000  Uiso   1.00
C775   C     0.14541   0.35693   0.46332   0.00000  Uiso   1.00
C776   C     0.18939   0.64279   0.53529   0.00000  Uiso   1.00
C777   C     0.02165   0.39794   0.45529   0.00000  Uiso   1.00
C778   C     0.02723   0.34761   0.45890   0.00000  Uiso   1.00
C779   C     0.28924   0.58731   0.43432   0.00000  Uiso   1.00
C780   C     0.24659   0.50034   0.50214   0.00000  Uiso   1.00
C781   C     0.26137   0.62683   0.42149   0.00000  Uiso   1.00
C782   C     0.30964   0.42008   0.58876   0.00000  Uiso   1.00
C783   C     0.32142   0.37139   0.59780   0.00000  Uiso   1.00
C784   C     0.04105   0.59380   0.56199   0.00000  Uiso   1.00
C785   C     0.07737   0.62427   0.57643   0.00000  Uiso   1.00
C786   C     0.16663   0.50002   0.40634   0.00000  Uiso   1.00
C787   C     0.16674   0.49999   0.59366   0.00000  Uiso   1.00
C788   C     0.16668   0.50003   0.35518   0.00000  Uiso   1.00
C789   C     0.16672   0.50000   0.64482   0.00000  Uiso   1.00
C790   C     0.02000   0.46012   0.50458   0.00000  Uiso   1.00
C791   C     0.31237   0.54189   0.49733   0.00000  Uiso   1.00
C792   C     0.31244   0.46231   0.51717   0.00000  Uiso   1.00
Cl793  Cl    0.21324   0.38494   0.58668   0.00000  Uiso   1.00
Cl794  Cl    0.11344   0.61345   0.41923   0.00000  Uiso   1.00
Cl795  Cl    0.11943   0.38483   0.41355   0.00000  Uiso   1.00
Cl796  Cl    0.22143   0.61411   0.57913   0.00000  Uiso   1.00
H797   H     0.03794   0.41102   0.42233   0.00000  Uiso   1.00
H798   H     0.22942   0.61904   0.43219   0.00000  Uiso   1.00
H799   H     0.28543   0.42953   0.61504   0.00000  Uiso   1.00
H800   H     0.00385   0.44125   0.59923   0.00000  Uiso   1.00
H801   H     0.29557   0.34865   0.58642   0.00000  Uiso   1.00
H802   H     0.01520   0.36315   0.57560   0.00000  Uiso   1.00
H803   H     0.32949   0.36604   0.63825   0.00000  Uiso   1.00
H804   H     0.04308   0.56405   0.58750   0.00000  Uiso   1.00
H805   H     0.01191   0.61172   0.56888   0.00000  Uiso   1.00
H806   H     0.07747   0.65462   0.55244   0.00000  Uiso   1.00
H807   H     0.07532   0.63483   0.61625   0.00000  Uiso   1.00
H808   H     0.32137   0.40374   0.44812   0.00000  Uiso   1.00
H809   H     0.10669   0.60603   0.57228   0.00000  Uiso   1.00
H810   H     0.00659   0.33352   0.48731   0.00000  Uiso   1.00
H811   H     0.01977   0.66544   0.42179   0.00000  Uiso   1.00
H812   H     0.05939   0.33964   0.47020   0.00000  Uiso   1.00
H813   H     0.27554   0.55706   0.41538   0.00000  Uiso   1.00
H814   H     0.32016   0.59383   0.41910   0.00000  Uiso   1.00
H815   H     0.27225   0.65736   0.44189   0.00000  Uiso   1.00
H816   H     0.26129   0.63345   0.38043   0.00000  Uiso   1.00
N817   N     0.16667   0.61907   0.50000   0.00000  Uiso   1.00
N818   N     0.16667   0.38093   0.50000   0.00000  Uiso   1.00
O819   O     0.10559   0.53821   0.50000   0.00000  Uiso   1.00
O820   O     0.29243   0.58189   0.48708   0.00000  Uiso   1.00
O821   O     0.29384   0.42545   0.53858   0.00000  Uiso   1.00
O822   O     0.04224   0.58222   0.51043   0.00000  Uiso   1.00
O823   O     0.22774   0.46179   0.50000   0.00000  Uiso   1.00
O824   O     0.22774   0.53821   0.50000   0.00000  Uiso   1.00
O825   O     0.10559   0.46179   0.50000   0.00000  Uiso   1.00
O826   O     0.16667   0.53821   0.42845   0.00000  Uiso   1.00
O827   O     0.16666   0.46179   0.57155   0.00000  Uiso   1.00
O828   O     0.16666   0.53821   0.57155   0.00000  Uiso   1.00
O829   O     0.16667   0.46179   0.42845   0.00000  Uiso   1.00
O830   O     0.03810   0.41858   0.49970   0.00000  Uiso   1.00
Zn831  Zn    0.16667   0.55104   0.50000   0.00000  Uiso   1.00
Zn832  Zn    0.16667   0.44896   0.50000   0.00000  Uiso   1.00
C833   C     0.41997   0.49998   0.50012   0.00000  Uiso   1.00
C834   C     0.35485   0.54188   0.50336   0.00000  Uiso   1.00
C835   C     0.62413   0.50157   0.50567   0.00000  Uiso   1.00
C836   C     0.37568   0.50050   0.50196   0.00000  Uiso   1.00
C837   C     0.52138   0.35708   0.53647   0.00000  Uiso   1.00
C838   C     0.47762   0.64255   0.46433   0.00000  Uiso   1.00
C839   C     0.47875   0.35693   0.46332   0.00000  Uiso   1.00
C840   C     0.52272   0.64279   0.53529   0.00000  Uiso   1.00
C841   C     0.35498   0.39794   0.45529   0.00000  Uiso   1.00
C842   C     0.36056   0.34761   0.45890   0.00000  Uiso   1.00
C843   C     0.62258   0.58731   0.43432   0.00000  Uiso   1.00
C844   C     0.57993   0.50034   0.50214   0.00000  Uiso   1.00
C845   C     0.59470   0.62683   0.42149   0.00000  Uiso   1.00
C846   C     0.64297   0.42008   0.58876   0.00000  Uiso   1.00
C847   C     0.65475   0.37139   0.59780   0.00000  Uiso   1.00
C848   C     0.37438   0.59380   0.56199   0.00000  Uiso   1.00
C849   C     0.41071   0.62427   0.57643   0.00000  Uiso   1.00
C850   C     0.49997   0.50002   0.40634   0.00000  Uiso   1.00
C851   C     0.50008   0.49999   0.59366   0.00000  Uiso   1.00
C852   C     0.50002   0.50003   0.35518   0.00000  Uiso   1.00
C853   C     0.50005   0.50000   0.64482   0.00000  Uiso   1.00
C854   C     0.35333   0.46012   0.50458   0.00000  Uiso   1.00
C855   C     0.64570   0.54189   0.49733   0.00000  Uiso   1.00
C856   C     0.64578   0.46231   0.51717   0.00000  Uiso   1.00
Cl857  Cl    0.54657   0.38494   0.58668   0.00000  Uiso   1.00
Cl858  Cl    0.44678   0.61345   0.41923   0.00000  Uiso   1.00
Cl859  Cl    0.45277   0.38483   0.41355   0.00000  Uiso   1.00
Cl860  Cl    0.55477   0.61411   0.57913   0.00000  Uiso   1.00
H861   H     0.37127   0.41102   0.42233   0.00000  Uiso   1.00
H862   H     0.56276   0.61904   0.43219   0.00000  Uiso   1.00
H863   H     0.61877   0.42953   0.61504   0.00000  Uiso   1.00
H864   H     0.33718   0.44125   0.59923   0.00000  Uiso   1.00
H865   H     0.62891   0.34865   0.58642   0.00000  Uiso   1.00
H866   H     0.34853   0.36315   0.57560   0.00000  Uiso   1.00
H867   H     0.66282   0.36604   0.63825   0.00000  Uiso   1.00
H868   H     0.37641   0.56405   0.58750   0.00000  Uiso   1.00
H869   H     0.34524   0.61172   0.56888   0.00000  Uiso   1.00
H870   H     0.41080   0.65462   0.55244   0.00000  Uiso   1.00
H871   H     0.40865   0.63483   0.61625   0.00000  Uiso   1.00
H872   H     0.65471   0.40374   0.44812   0.00000  Uiso   1.00
H873   H     0.44003   0.60603   0.57228   0.00000  Uiso   1.00
H874   H     0.33992   0.33352   0.48731   0.00000  Uiso   1.00
H875   H     0.35310   0.66544   0.42179   0.00000  Uiso   1.00
H876   H     0.39272   0.33964   0.47020   0.00000  Uiso   1.00
H877   H     0.60887   0.55706   0.41538   0.00000  Uiso   1.00
H878   H     0.65349   0.59383   0.41910   0.00000  Uiso   1.00
H879   H     0.60558   0.65736   0.44189   0.00000  Uiso   1.00
H880   H     0.59463   0.63345   0.38043   0.00000  Uiso   1.00
N881   N     0.50000   0.61907   0.50000   0.00000  Uiso   1.00
N882   N     0.50000   0.38093   0.50000   0.00000  Uiso   1.00
O883   O     0.43892   0.53821   0.50000   0.00000  Uiso   1.00
O884   O     0.62576   0.58189   0.48708   0.00000  Uiso   1.00
O885   O     0.62717   0.42545   0.53858   0.00000  Uiso   1.00
O886   O     0.37557   0.58222   0.51043   0.00000  Uiso   1.00
O887   O     0.56108   0.46179   0.50000   0.00000  Uiso   1.00
O888   O     0.56108   0.53821   0.50000   0.00000  Uiso   1.00
O889   O     0.43892   0.46179   0.50000   0.00000  Uiso   1.00
O890   O     0.50000   0.53821   0.42845   0.00000  Uiso   1.00
O891   O     0.50000   0.46179   0.57155   0.00000  Uiso   1.00
O892   O     0.50000   0.53821   0.57155   0.00000  Uiso   1.00
O893   O     0.50000   0.46179   0.42845   0.00000  Uiso   1.00
O894   O     0.37143   0.41858   0.49970   0.00000  Uiso   1.00
Zn895  Zn    0.50000   0.55104   0.50000   0.00000  Uiso   1.00
Zn896  Zn    0.50000   0.44896   0.50000   0.00000  Uiso   1.00
C897   C     0.75330   0.49998   0.50012   0.00000  Uiso   1.00
C898   C     0.68818   0.54188   0.50336   0.00000  Uiso   1.00
C899   C     0.95747   0.50157   0.50567   0.00000  Uiso   1.00
C900   C     0.70902   0.50050   0.50196   0.00000  Uiso   1.00
C901   C     0.85471   0.35708   0.53647   0.00000  Uiso   1.00
C902   C     0.81095   0.64255   0.46433   0.00000  Uiso   1.00
C903   C     0.81208   0.35693   0.46332   0.00000  Uiso   1.00
C904   C     0.85606   0.64279   0.53529   0.00000  Uiso   1.00
C905   C     0.68831   0.39794   0.45529   0.00000  Uiso   1.00
C906   C     0.69390   0.34761   0.45890   0.00000  Uiso   1.00
C907   C     0.95591   0.58731   0.43432   0.00000  Uiso   1.00
C908   C     0.91326   0.50034   0.50214   0.00000  Uiso   1.00
C909   C     0.92803   0.62683   0.42149   0.00000  Uiso   1.00
C910   C     0.97631   0.42008   0.58876   0.00000  Uiso   1.00
C911   C     0.98808   0.37139   0.59780   0.00000  Uiso   1.00
C912   C     0.70772   0.59380   0.56199   0.00000  Uiso   1.00
C913   C     0.74404   0.62427   0.57643   0.00000  Uiso   1.00
C914   C     0.83330   0.50002   0.40634   0.00000  Uiso   1.00
C915   C     0.83341   0.49999   0.59366   0.00000  Uiso   1.00
C916   C     0.83335   0.50003   0.35518   0.00000  Uiso   1.00
C917   C     0.83339   0.50000   0.64482   0.00000  Uiso   1.00
C918   C     0.68667   0.46012   0.50458   0.00000  Uiso   1.00
C919   C     0.97904   0.54189   0.49733   0.00000  Uiso   1.00
C920   C     0.97911   0.46231   0.51717   0.00000  Uiso   1.00
Cl921  Cl    0.87991   0.38494   0.58668   0.00000  Uiso   1.00
Cl922  Cl    0.78011   0.61345   0.41923   0.00000  Uiso   1.00
Cl923  Cl    0.78610   0.38483   0.41355   0.00000  Uiso   1.00
Cl924  Cl    0.88810   0.61411   0.57913   0.00000  Uiso   1.00
H925   H     0.70461   0.41102   0.42233   0.00000  Uiso   1.00
H926   H     0.89609   0.61904   0.43219   0.00000  Uiso   1.00
H927   H     0.95210   0.42953   0.61504   0.00000  Uiso   1.00
H928   H     0.67051   0.44125   0.59923   0.00000  Uiso   1.00
H929   H     0.96224   0.34865   0.58642   0.00000  Uiso   1.00
H930   H     0.68187   0.36315   0.57560   0.00000  Uiso   1.00
H931   H     0.99616   0.36604   0.63825   0.00000  Uiso   1.00
H932   H     0.70974   0.56405   0.58750   0.00000  Uiso   1.00
H933   H     0.67857   0.61172   0.56888   0.00000  Uiso   1.00
H934   H     0.74413   0.65462   0.55244   0.00000  Uiso   1.00
H935   H     0.74198   0.63483   0.61625   0.00000  Uiso   1.00
H936   H     0.98804   0.40374   0.44812   0.00000  Uiso   1.00
H937   H     0.77336   0.60603   0.57228   0.00000  Uiso   1.00
H938   H     0.67326   0.33352   0.48731   0.00000  Uiso   1.00
H939   H     0.68644   0.66544   0.42179   0.00000  Uiso   1.00
H940   H     0.72605   0.33964   0.47020   0.00000  Uiso   1.00
H941   H     0.94220   0.55706   0.41538   0.00000  Uiso   1.00
H942   H     0.98683   0.59383   0.41910   0.00000  Uiso   1.00
H943   H     0.93891   0.65736   0.44189   0.00000  Uiso   1.00
H944   H     0.92796   0.63345   0.38043   0.00000  Uiso   1.00
N945   N     0.83333   0.61907   0.50000   0.00000  Uiso   1.00
N946   N     0.83333   0.38093   0.50000   0.00000  Uiso   1.00
O947   O     0.77226   0.53821   0.50000   0.00000  Uiso   1.00
O948   O     0.95910   0.58189   0.48708   0.00000  Uiso   1.00
O949   O     0.96050   0.42545   0.53858   0.00000  Uiso   1.00
O950   O     0.70891   0.58222   0.51043   0.00000  Uiso   1.00
O951   O     0.89441   0.46179   0.50000   0.00000  Uiso   1.00
O952   O     0.89441   0.53821   0.50000   0.00000  Uiso   1.00
O953   O     0.77226   0.46179   0.50000   0.00000  Uiso   1.00
O954   O     0.83334   0.53821   0.42845   0.00000  Uiso   1.00
O955   O     0.83333   0.46179   0.57155   0.00000  Uiso   1.00
O956   O     0.83333   0.53821   0.57155   0.00000  Uiso   1.00
O957   O     0.83334   0.46179   0.42845   0.00000  Uiso   1.00
O958   O     0.70477   0.41858   0.49970   0.00000  Uiso   1.00
Zn959  Zn    0.83333   0.55104   0.50000   0.00000  Uiso   1.00
Zn960  Zn    0.83333   0.44896   0.50000   0.00000  Uiso   1.00
C961   C     0.08663   0.83331   0.50012   0.00000  Uiso   1.00
C962   C     0.02151   0.87522   0.50336   0.00000  Uiso   1.00
C963   C     0.29080   0.83490   0.50567   0.00000  Uiso   1.00
C964   C     0.04235   0.83383   0.50196   0.00000  Uiso   1.00
C965   C     0.18804   0.69041   0.53647   0.00000  Uiso   1.00
C966   C     0.14428   0.97589   0.46433   0.00000  Uiso   1.00
C967   C     0.14541   0.69027   0.46332   0.00000  Uiso   1.00
C968   C     0.18939   0.97612   0.53529   0.00000  Uiso   1.00
C969   C     0.02165   0.73128   0.45529   0.00000  Uiso   1.00
C970   C     0.02723   0.68094   0.45890   0.00000  Uiso   1.00
C971   C     0.28924   0.92064   0.43432   0.00000  Uiso   1.00
C972   C     0.24659   0.83367   0.50214   0.00000  Uiso   1.00
C973   C     0.26137   0.96016   0.42149   0.00000  Uiso   1.00
C974   C     0.30964   0.75342   0.58876   0.00000  Uiso   1.00
C975   C     0.32142   0.70472   0.59780   0.00000  Uiso   1.00
C976   C     0.04105   0.92714   0.56199   0.00000  Uiso   1.00
C977   C     0.07737   0.95760   0.57643   0.00000  Uiso   1.00
C978   C     0.16663   0.83335   0.40634   0.00000  Uiso   1.00
C979   C     0.16674   0.83333   0.59366   0.00000  Uiso   1.00
C980   C     0.16668   0.83337   0.35518   0.00000  Uiso   1.00
C981   C     0.16672   0.83334   0.64482   0.00000  Uiso   1.00
C982   C     0.02000   0.79345   0.50458   0.00000  Uiso   1.00
C983   C     0.31237   0.87522   0.49733   0.00000  Uiso   1.00
C984   C     0.31244   0.79565   0.51717   0.00000  Uiso   1.00
Cl985  Cl    0.21324   0.71827   0.58668   0.00000  Uiso   1.00
Cl986  Cl    0.11344   0.94679   0.41923   0.00000  Uiso   1.00
Cl987  Cl    0.11943   0.71816   0.41355   0.00000  Uiso   1.00
Cl988  Cl    0.22143   0.94744   0.57913   0.00000  Uiso   1.00
H989   H     0.03794   0.74435   0.42233   0.00000  Uiso   1.00
H990   H     0.22942   0.95237   0.43219   0.00000  Uiso   1.00
H991   H     0.28543   0.76287   0.61504   0.00000  Uiso   1.00
H992   H     0.00385   0.77458   0.59923   0.00000  Uiso   1.00
H993   H     0.29557   0.68199   0.58642   0.00000  Uiso   1.00
H994   H     0.01520   0.69649   0.57560   0.00000  Uiso   1.00
H995   H     0.32949   0.69937   0.63825   0.00000  Uiso   1.00
H996   H     0.04308   0.89738   0.58750   0.00000  Uiso   1.00
H997   H     0.01191   0.94506   0.56888   0.00000  Uiso   1.00
H998   H     0.07747   0.98795   0.55244   0.00000  Uiso   1.00
H999   H     0.07532   0.96816   0.61625   0.00000  Uiso   1.00
H1000  H     0.32137   0.73707   0.44812   0.00000  Uiso   1.00
H1001  H     0.10669   0.93936   0.57228   0.00000  Uiso   1.00
H1002  H     0.00659   0.66685   0.48731   0.00000  Uiso   1.00
H1003  H     0.01977   0.99877   0.42179   0.00000  Uiso   1.00
H1004  H     0.05939   0.67297   0.47020   0.00000  Uiso   1.00
H1005  H     0.27554   0.89039   0.41538   0.00000  Uiso   1.00
H1006  H     0.32016   0.92717   0.41910   0.00000  Uiso   1.00
H1007  H     0.27225   0.99069   0.44189   0.00000  Uiso   1.00
H1008  H     0.26129   0.96679   0.38043   0.00000  Uiso   1.00
N1009  N     0.16667   0.95240   0.50000   0.00000  Uiso   1.00
N1010  N     0.16667   0.71427   0.50000   0.00000  Uiso   1.00
O1011  O     0.10559   0.87154   0.50000   0.00000  Uiso   1.00
O1012  O     0.29243   0.91523   0.48708   0.00000  Uiso   1.00
O1013  O     0.29384   0.75879   0.53858   0.00000  Uiso   1.00
O1014  O     0.04224   0.91555   0.51043   0.00000  Uiso   1.00
O1015  O     0.22774   0.79513   0.50000   0.00000  Uiso   1.00
O1016  O     0.22774   0.87154   0.50000   0.00000  Uiso   1.00
O1017  O     0.10559   0.79513   0.50000   0.00000  Uiso   1.00
O1018  O     0.16667   0.87155   0.42845   0.00000  Uiso   1.00
O1019  O     0.16666   0.79512   0.57155   0.00000  Uiso   1.00
O1020  O     0.16666   0.87155   0.57155   0.00000  Uiso   1.00
O1021  O     0.16667   0.79512   0.42845   0.00000  Uiso   1.00
O1022  O     0.03810   0.75191   0.49970   0.00000  Uiso   1.00
Zn1023 Zn    0.16667   0.88437   0.50000   0.00000  Uiso   1.00
Zn1024 Zn    0.16667   0.78229   0.50000   0.00000  Uiso   1.00
C1025  C     0.41997   0.83331   0.50012   0.00000  Uiso   1.00
C1026  C     0.35485   0.87522   0.50336   0.00000  Uiso   1.00
C1027  C     0.62413   0.83490   0.50567   0.00000  Uiso   1.00
C1028  C     0.37568   0.83383   0.50196   0.00000  Uiso   1.00
C1029  C     0.52138   0.69041   0.53647   0.00000  Uiso   1.00
C1030  C     0.47762   0.97589   0.46433   0.00000  Uiso   1.00
C1031  C     0.47875   0.69027   0.46332   0.00000  Uiso   1.00
C1032  C     0.52272   0.97612   0.53529   0.00000  Uiso   1.00
C1033  C     0.35498   0.73128   0.45529   0.00000  Uiso   1.00
C1034  C     0.36056   0.68094   0.45890   0.00000  Uiso   1.00
C1035  C     0.62258   0.92064   0.43432   0.00000  Uiso   1.00
C1036  C     0.57993   0.83367   0.50214   0.00000  Uiso   1.00
C1037  C     0.59470   0.96016   0.42149   0.00000  Uiso   1.00
C1038  C     0.64297   0.75342   0.58876   0.00000  Uiso   1.00
C1039  C     0.65475   0.70472   0.59780   0.00000  Uiso   1.00
C1040  C     0.37438   0.92714   0.56199   0.00000  Uiso   1.00
C1041  C     0.41071   0.95760   0.57643   0.00000  Uiso   1.00
C1042  C     0.49997   0.83335   0.40634   0.00000  Uiso   1.00
C1043  C     0.50008   0.83333   0.59366   0.00000  Uiso   1.00
C1044  C     0.50002   0.83337   0.35518   0.00000  Uiso   1.00
C1045  C     0.50005   0.83334   0.64482   0.00000  Uiso   1.00
C1046  C     0.35333   0.79345   0.50458   0.00000  Uiso   1.00
C1047  C     0.64570   0.87522   0.49733   0.00000  Uiso   1.00
C1048  C     0.64578   0.79565   0.51717   0.00000  Uiso   1.00
Cl1049 Cl    0.54657   0.71827   0.58668   0.00000  Uiso   1.00
Cl1050 Cl    0.44678   0.94679   0.41923   0.00000  Uiso   1.00
Cl1051 Cl    0.45277   0.71816   0.41355   0.00000  Uiso   1.00
Cl1052 Cl    0.55477   0.94744   0.57913   0.00000  Uiso   1.00
H1053  H     0.37127   0.74435   0.42233   0.00000  Uiso   1.00
H1054  H     0.56276   0.95237   0.43219   0.00000  Uiso   1.00
H1055  H     0.61877   0.76287   0.61504   0.00000  Uiso   1.00
H1056  H     0.33718   0.77458   0.59923   0.00000  Uiso   1.00
H1057  H     0.62891   0.68199   0.58642   0.00000  Uiso   1.00
H1058  H     0.34853   0.69649   0.57560   0.00000  Uiso   1.00
H1059  H     0.66282   0.69937   0.63825   0.00000  Uiso   1.00
H1060  H     0.37641   0.89738   0.58750   0.00000  Uiso   1.00
H1061  H     0.34524   0.94506   0.56888   0.00000  Uiso   1.00
H1062  H     0.41080   0.98795   0.55244   0.00000  Uiso   1.00
H1063  H     0.40865   0.96816   0.61625   0.00000  Uiso   1.00
H1064  H     0.65471   0.73707   0.44812   0.00000  Uiso   1.00
H1065  H     0.44003   0.93936   0.57228   0.00000  Uiso   1.00
H1066  H     0.33992   0.66685   0.48731   0.00000  Uiso   1.00
H1067  H     0.35310   0.99877   0.42179   0.00000  Uiso   1.00
H1068  H     0.39272   0.67297   0.47020   0.00000  Uiso   1.00
H1069  H     0.60887   0.89039   0.41538   0.00000  Uiso   1.00
H1070  H     0.65349   0.92717   0.41910   0.00000  Uiso   1.00
H1071  H     0.60558   0.99069   0.44189   0.00000  Uiso   1.00
H1072  H     0.59463   0.96679   0.38043   0.00000  Uiso   1.00
N1073  N     0.50000   0.95240   0.50000   0.00000  Uiso   1.00
N1074  N     0.50000   0.71427   0.50000   0.00000  Uiso   1.00
O1075  O     0.43892   0.87154   0.50000   0.00000  Uiso   1.00
O1076  O     0.62576   0.91523   0.48708   0.00000  Uiso   1.00
O1077  O     0.62717   0.75879   0.53858   0.00000  Uiso   1.00
O1078  O     0.37557   0.91555   0.51043   0.00000  Uiso   1.00
O1079  O     0.56108   0.79513   0.50000   0.00000  Uiso   1.00
O1080  O     0.56108   0.87154   0.50000   0.00000  Uiso   1.00
O1081  O     0.43892   0.79513   0.50000   0.00000  Uiso   1.00
O1082  O     0.50000   0.87155   0.42845   0.00000  Uiso   1.00
O1083  O     0.50000   0.79512   0.57155   0.00000  Uiso   1.00
O1084  O     0.50000   0.87155   0.57155   0.00000  Uiso   1.00
O1085  O     0.50000   0.79512   0.42845   0.00000  Uiso   1.00
O1086  O     0.37143   0.75191   0.49970   0.00000  Uiso   1.00
Zn1087 Zn    0.50000   0.88437   0.50000   0.00000  Uiso   1.00
Zn1088 Zn    0.50000   0.78229   0.50000   0.00000  Uiso   1.00
C1089  C     0.75330   0.83331   0.50012   0.00000  Uiso   1.00
C1090  C     0.68818   0.87522   0.50336   0.00000  Uiso   1.00
C1091  C     0.95747   0.83490   0.50567   0.00000  Uiso   1.00
C1092  C     0.70902   0.83383   0.50196   0.00000  Uiso   1.00
C1093  C     0.85471   0.69041   0.53647   0.00000  Uiso   1.00
C1094  C     0.81095   0.97589   0.46433   0.00000  Uiso   1.00
C1095  C     0.81208   0.69027   0.46332   0.00000  Uiso   1.00
C1096  C     0.85606   0.97612   0.53529   0.00000  Uiso   1.00
C1097  C     0.68831   0.73128   0.45529   0.00000  Uiso   1.00
C1098  C     0.69390   0.68094   0.45890   0.00000  Uiso   1.00
C1099  C     0.95591   0.92064   0.43432   0.00000  Uiso   1.00
C1100  C     0.91326   0.83367   0.50214   0.00000  Uiso   1.00
C1101  C     0.92803   0.96016   0.42149   0.00000  Uiso   1.00
C1102  C     0.97631   0.75342   0.58876   0.00000  Uiso   1.00
C1103  C     0.98808   0.70472   0.59780   0.00000  Uiso   1.00
C1104  C     0.70772   0.92714   0.56199   0.00000  Uiso   1.00
C1105  C     0.74404   0.95760   0.57643   0.00000  Uiso   1.00
C1106  C     0.83330   0.83335   0.40634   0.00000  Uiso   1.00
C1107  C     0.83341   0.83333   0.59366   0.00000  Uiso   1.00
C1108  C     0.83335   0.83337   0.35518   0.00000  Uiso   1.00
C1109  C     0.83339   0.83334   0.64482   0.00000  Uiso   1.00
C1110  C     0.68667   0.79345   0.50458   0.00000  Uiso   1.00
C1111  C     0.97904   0.87522   0.49733   0.00000  Uiso   1.00
C1112  C     0.97911   0.79565   0.51717   0.00000  Uiso   1.00
Cl1113 Cl    0.87991   0.71827   0.58668   0.00000  Uiso   1.00
Cl1114 Cl    0.78011   0.94679   0.41923   0.00000  Uiso   1.00
Cl1115 Cl    0.78610   0.71816   0.41355   0.00000  Uiso   1.00
Cl1116 Cl    0.88810   0.94744   0.57913   0.00000  Uiso   1.00
H1117  H     0.70461   0.74435   0.42233   0.00000  Uiso   1.00
H1118  H     0.89609   0.95237   0.43219   0.00000  Uiso   1.00
H1119  H     0.95210   0.76287   0.61504   0.00000  Uiso   1.00
H1120  H     0.67051   0.77458   0.59923   0.00000  Uiso   1.00
H1121  H     0.96224   0.68199   0.58642   0.00000  Uiso   1.00
H1122  H     0.68187   0.69649   0.57560   0.00000  Uiso   1.00
H1123  H     0.99616   0.69937   0.63825   0.00000  Uiso   1.00
H1124  H     0.70974   0.89738   0.58750   0.00000  Uiso   1.00
H1125  H     0.67857   0.94506   0.56888   0.00000  Uiso   1.00
H1126  H     0.74413   0.98795   0.55244   0.00000  Uiso   1.00
H1127  H     0.74198   0.96816   0.61625   0.00000  Uiso   1.00
H1128  H     0.98804   0.73707   0.44812   0.00000  Uiso   1.00
H1129  H     0.77336   0.93936   0.57228   0.00000  Uiso   1.00
H1130  H     0.67326   0.66685   0.48731   0.00000  Uiso   1.00
H1131  H     0.68644   0.99877   0.42179   0.00000  Uiso   1.00
H1132  H     0.72605   0.67297   0.47020   0.00000  Uiso   1.00
H1133  H     0.94220   0.89039   0.41538   0.00000  Uiso   1.00
H1134  H     0.98683   0.92717   0.41910   0.00000  Uiso   1.00
H1135  H     0.93891   0.99069   0.44189   0.00000  Uiso   1.00
H1136  H     0.92796   0.96679   0.38043   0.00000  Uiso   1.00
N1137  N     0.83333   0.95240   0.50000   0.00000  Uiso   1.00
N1138  N     0.83333   0.71427   0.50000   0.00000  Uiso   1.00
O1139  O     0.77226   0.87154   0.50000   0.00000  Uiso   1.00
O1140  O     0.95910   0.91523   0.48708   0.00000  Uiso   1.00
O1141  O     0.96050   0.75879   0.53858   0.00000  Uiso   1.00
O1142  O     0.70891   0.91555   0.51043   0.00000  Uiso   1.00
O1143  O     0.89441   0.79513   0.50000   0.00000  Uiso   1.00
O1144  O     0.89441   0.87154   0.50000   0.00000  Uiso   1.00
O1145  O     0.77226   0.79513   0.50000   0.00000  Uiso   1.00
O1146  O     0.83334   0.87155   0.42845   0.00000  Uiso   1.00
O1147  O     0.83333   0.79512   0.57155   0.00000  Uiso   1.00
O1148  O     0.83333   0.87155   0.57155   0.00000  Uiso   1.00
O1149  O     0.83334   0.79512   0.42845   0.00000  Uiso   1.00
O1150  O     0.70477   0.75191   0.49970   0.00000  Uiso   1.00
Zn1151 Zn    0.83333   0.88437   0.50000   0.00000  Uiso   1.00
Zn1152 Zn    0.83333   0.78229   0.50000   0.00000  Uiso   1.00
C1153  C     0.08663   0.16664   0.83345   0.00000  Uiso   1.00
C1154  C     0.02151   0.20855   0.83670   0.00000  Uiso   1.00
C1155  C     0.29080   0.16823   0.83900   0.00000  Uiso   1.00
C1156  C     0.04235   0.16716   0.83530   0.00000  Uiso   1.00
C1157  C     0.18804   0.02375   0.86980   0.00000  Uiso   1.00
C1158  C     0.14428   0.30922   0.79766   0.00000  Uiso   1.00
C1159  C     0.14541   0.02360   0.79665   0.00000  Uiso   1.00
C1160  C     0.18939   0.30946   0.86862   0.00000  Uiso   1.00
C1161  C     0.02165   0.06461   0.78862   0.00000  Uiso   1.00
C1162  C     0.02723   0.01427   0.79224   0.00000  Uiso   1.00
C1163  C     0.28924   0.25397   0.76765   0.00000  Uiso   1.00
C1164  C     0.24659   0.16700   0.83548   0.00000  Uiso   1.00
C1165  C     0.26137   0.29349   0.75482   0.00000  Uiso   1.00
C1166  C     0.30964   0.08675   0.92209   0.00000  Uiso   1.00
C1167  C     0.32142   0.03805   0.93113   0.00000  Uiso   1.00
C1168  C     0.04105   0.26047   0.89532   0.00000  Uiso   1.00
C1169  C     0.07737   0.29094   0.90977   0.00000  Uiso   1.00
C1170  C     0.16663   0.16668   0.73967   0.00000  Uiso   1.00
C1171  C     0.16674   0.16666   0.92700   0.00000  Uiso   1.00
C1172  C     0.16668   0.16670   0.68851   0.00000  Uiso   1.00
C1173  C     0.16672   0.16667   0.97816   0.00000  Uiso   1.00
C1174  C     0.02000   0.12678   0.83791   0.00000  Uiso   1.00
C1175  C     0.31237   0.20856   0.83067   0.00000  Uiso   1.00
C1176  C     0.31244   0.12898   0.85051   0.00000  Uiso   1.00
Cl1177 Cl    0.21324   0.05160   0.92001   0.00000  Uiso   1.00
Cl1178 Cl    0.11344   0.28012   0.75256   0.00000  Uiso   1.00
Cl1179 Cl    0.11943   0.05149   0.74688   0.00000  Uiso   1.00
Cl1180 Cl    0.22143   0.28078   0.91246   0.00000  Uiso   1.00
H1181  H     0.03794   0.07769   0.75566   0.00000  Uiso   1.00
H1182  H     0.22942   0.28571   0.76552   0.00000  Uiso   1.00
H1183  H     0.28543   0.09620   0.94838   0.00000  Uiso   1.00
H1184  H     0.00385   0.10791   0.93256   0.00000  Uiso   1.00
H1185  H     0.29557   0.01532   0.91976   0.00000  Uiso   1.00
H1186  H     0.01520   0.02982   0.90893   0.00000  Uiso   1.00
H1187  H     0.32949   0.03271   0.97159   0.00000  Uiso   1.00
H1188  H     0.04308   0.23071   0.92083   0.00000  Uiso   1.00
H1189  H     0.01191   0.27839   0.90221   0.00000  Uiso   1.00
H1190  H     0.07747   0.32129   0.88578   0.00000  Uiso   1.00
H1191  H     0.07532   0.30150   0.94958   0.00000  Uiso   1.00
H1192  H     0.32137   0.07040   0.78146   0.00000  Uiso   1.00
H1193  H     0.10669   0.27269   0.90561   0.00000  Uiso   1.00
H1194  H     0.00659   0.00019   0.82064   0.00000  Uiso   1.00
H1195  H     0.01977   0.33210   0.75512   0.00000  Uiso   1.00
H1196  H     0.05939   0.00630   0.80353   0.00000  Uiso   1.00
H1197  H     0.27554   0.22372   0.74871   0.00000  Uiso   1.00
H1198  H     0.32016   0.26050   0.75243   0.00000  Uiso   1.00
H1199  H     0.27225   0.32402   0.77522   0.00000  Uiso   1.00
H1200  H     0.26129   0.30012   0.71376   0.00000  Uiso   1.00
N1201  N     0.16667   0.28573   0.83333   0.00000  Uiso   1.00
N1202  N     0.16667   0.04760   0.83333   0.00000  Uiso   1.00
O1203  O     0.10559   0.20487   0.83333   0.00000  Uiso   1.00
O1204  O     0.29243   0.24856   0.82041   0.00000  Uiso   1.00
O1205  O     0.29384   0.09212   0.87191   0.00000  Uiso   1.00
O1206  O     0.04224   0.24889   0.84377   0.00000  Uiso   1.00
O1207  O     0.22774   0.12846   0.83334   0.00000  Uiso   1.00
O1208  O     0.22774   0.20487   0.83334   0.00000  Uiso   1.00
O1209  O     0.10559   0.12846   0.83333   0.00000  Uiso   1.00
O1210  O     0.16667   0.20488   0.76178   0.00000  Uiso   1.00
O1211  O     0.16666   0.12845   0.90489   0.00000  Uiso   1.00
O1212  O     0.16666   0.20488   0.90489   0.00000  Uiso   1.00
O1213  O     0.16667   0.12845   0.76178   0.00000  Uiso   1.00
O1214  O     0.03810   0.08524   0.83303   0.00000  Uiso   1.00
Zn1215 Zn    0.16667   0.21771   0.83333   0.00000  Uiso   1.00
Zn1216 Zn    0.16667   0.11563   0.83333   0.00000  Uiso   1.00
C1217  C     0.41997   0.16664   0.83345   0.00000  Uiso   1.00
C1218  C     0.35485   0.20855   0.83670   0.00000  Uiso   1.00
C1219  C     0.62413   0.16823   0.83900   0.00000  Uiso   1.00
C1220  C     0.37568   0.16716   0.83530   0.00000  Uiso   1.00
C1221  C     0.52138   0.02375   0.86980   0.00000  Uiso   1.00
C1222  C     0.47762   0.30922   0.79766   0.00000  Uiso   1.00
C1223  C     0.47875   0.02360   0.79665   0.00000  Uiso   1.00
C1224  C     0.52272   0.30946   0.86862   0.00000  Uiso   1.00
C1225  C     0.35498   0.06461   0.78862   0.00000  Uiso   1.00
C1226  C     0.36056   0.01427   0.79224   0.00000  Uiso   1.00
C1227  C     0.62258   0.25397   0.76765   0.00000  Uiso   1.00
C1228  C     0.57993   0.16700   0.83548   0.00000  Uiso   1.00
C1229  C     0.59470   0.29349   0.75482   0.00000  Uiso   1.00
C1230  C     0.64297   0.08675   0.92209   0.00000  Uiso   1.00
C1231  C     0.65475   0.03805   0.93113   0.00000  Uiso   1.00
C1232  C     0.37438   0.26047   0.89532   0.00000  Uiso   1.00
C1233  C     0.41071   0.29094   0.90977   0.00000  Uiso   1.00
C1234  C     0.49997   0.16668   0.73967   0.00000  Uiso   1.00
C1235  C     0.50008   0.16666   0.92700   0.00000  Uiso   1.00
C1236  C     0.50002   0.16670   0.68851   0.00000  Uiso   1.00
C1237  C     0.50005   0.16667   0.97816   0.00000  Uiso   1.00
C1238  C     0.35333   0.12678   0.83791   0.00000  Uiso   1.00
C1239  C     0.64570   0.20856   0.83067   0.00000  Uiso   1.00
C1240  C     0.64578   0.12898   0.85051   0.00000  Uiso   1.00
Cl1241 Cl    0.54657   0.05160   0.92001   0.00000  Uiso   1.00
Cl1242 Cl    0.44678   0.28012   0.75256   0.00000  Uiso   1.00
Cl1243 Cl    0.45277   0.05149   0.74688   0.00000  Uiso   1.00
Cl1244 Cl    0.55477   0.28078   0.91246   0.00000  Uiso   1.00
H1245  H     0.37127   0.07769   0.75566   0.00000  Uiso   1.00
H1246  H     0.56276   0.28571   0.76552   0.00000  Uiso   1.00
H1247  H     0.61877   0.09620   0.94838   0.00000  Uiso   1.00
H1248  H     0.33718   0.10791   0.93256   0.00000  Uiso   1.00
H1249  H     0.62891   0.01532   0.91976   0.00000  Uiso   1.00
H1250  H     0.34853   0.02982   0.90893   0.00000  Uiso   1.00
H1251  H     0.66282   0.03271   0.97159   0.00000  Uiso   1.00
H1252  H     0.37641   0.23071   0.92083   0.00000  Uiso   1.00
H1253  H     0.34524   0.27839   0.90221   0.00000  Uiso   1.00
H1254  H     0.41080   0.32129   0.88578   0.00000  Uiso   1.00
H1255  H     0.40865   0.30150   0.94958   0.00000  Uiso   1.00
H1256  H     0.65471   0.07040   0.78146   0.00000  Uiso   1.00
H1257  H     0.44003   0.27269   0.90561   0.00000  Uiso   1.00
H1258  H     0.33992   0.00019   0.82064   0.00000  Uiso   1.00
H1259  H     0.35310   0.33210   0.75512   0.00000  Uiso   1.00
H1260  H     0.39272   0.00630   0.80353   0.00000  Uiso   1.00
H1261  H     0.60887   0.22372   0.74871   0.00000  Uiso   1.00
H1262  H     0.65349   0.26050   0.75243   0.00000  Uiso   1.00
H1263  H     0.60558   0.32402   0.77522   0.00000  Uiso   1.00
H1264  H     0.59463   0.30012   0.71376   0.00000  Uiso   1.00
N1265  N     0.50000   0.28573   0.83333   0.00000  Uiso   1.00
N1266  N     0.50000   0.04760   0.83333   0.00000  Uiso   1.00
O1267  O     0.43892   0.20487   0.83333   0.00000  Uiso   1.00
O1268  O     0.62576   0.24856   0.82041   0.00000  Uiso   1.00
O1269  O     0.62717   0.09212   0.87191   0.00000  Uiso   1.00
O1270  O     0.37557   0.24889   0.84377   0.00000  Uiso   1.00
O1271  O     0.56108   0.12846   0.83334   0.00000  Uiso   1.00
O1272  O     0.56108   0.20487   0.83334   0.00000  Uiso   1.00
O1273  O     0.43892   0.12846   0.83333   0.00000  Uiso   1.00
O1274  O     0.50000   0.20488   0.76178   0.00000  Uiso   1.00
O1275  O     0.50000   0.12845   0.90489   0.00000  Uiso   1.00
O1276  O     0.50000   0.20488   0.90489   0.00000  Uiso   1.00
O1277  O     0.50000   0.12845   0.76178   0.00000  Uiso   1.00
O1278  O     0.37143   0.08524   0.83303   0.00000  Uiso   1.00
Zn1279 Zn    0.50000   0.21771   0.83333   0.00000  Uiso   1.00
Zn1280 Zn    0.50000   0.11563   0.83333   0.00000  Uiso   1.00
C1281  C     0.75330   0.16664   0.83345   0.00000  Uiso   1.00
C1282  C     0.68818   0.20855   0.83670   0.00000  Uiso   1.00
C1283  C     0.95747   0.16823   0.83900   0.00000  Uiso   1.00
C1284  C     0.70902   0.16716   0.83530   0.00000  Uiso   1.00
C1285  C     0.85471   0.02375   0.86980   0.00000  Uiso   1.00
C1286  C     0.81095   0.30922   0.79766   0.00000  Uiso   1.00
C1287  C     0.81208   0.02360   0.79665   0.00000  Uiso   1.00
C1288  C     0.85606   0.30946   0.86862   0.00000  Uiso   1.00
C1289  C     0.68831   0.06461   0.78862   0.00000  Uiso   1.00
C1290  C     0.69390   0.01427   0.79224   0.00000  Uiso   1.00
C1291  C     0.95591   0.25397   0.76765   0.00000  Uiso   1.00
C1292  C     0.91326   0.16700   0.83548   0.00000  Uiso   1.00
C1293  C     0.92803   0.29349   0.75482   0.00000  Uiso   1.00
C1294  C     0.97631   0.08675   0.92209   0.00000  Uiso   1.00
C1295  C     0.98808   0.03805   0.93113   0.00000  Uiso   1.00
C1296  C     0.70772   0.26047   0.89532   0.00000  Uiso   1.00
C1297  C     0.74404   0.29094   0.90977   0.00000  Uiso   1.00
C1298  C     0.83330   0.16668   0.73967   0.00000  Uiso   1.00
C1299  C     0.83341   0.16666   0.92700   0.00000  Uiso   1.00
C1300  C     0.83335   0.16670   0.68851   0.00000  Uiso   1.00
C1301  C     0.83339   0.16667   0.97816   0.00000  Uiso   1.00
C1302  C     0.68667   0.12678   0.83791   0.00000  Uiso   1.00
C1303  C     0.97904   0.20856   0.83067   0.00000  Uiso   1.00
C1304  C     0.97911   0.12898   0.85051   0.00000  Uiso   1.00
Cl1305 Cl    0.87991   0.05160   0.92001   0.00000  Uiso   1.00
Cl1306 Cl    0.78011   0.28012   0.75256   0.00000  Uiso   1.00
Cl1307 Cl    0.78610   0.05149   0.74688   0.00000  Uiso   1.00
Cl1308 Cl    0.88810   0.28078   0.91246   0.00000  Uiso   1.00
H1309  H     0.70461   0.07769   0.75566   0.00000  Uiso   1.00
H1310  H     0.89609   0.28571   0.76552   0.00000  Uiso   1.00
H1311  H     0.95210   0.09620   0.94838   0.00000  Uiso   1.00
H1312  H     0.67051   0.10791   0.93256   0.00000  Uiso   1.00
H1313  H     0.96224   0.01532   0.91976   0.00000  Uiso   1.00
H1314  H     0.68187   0.02982   0.90893   0.00000  Uiso   1.00
H1315  H     0.99616   0.03271   0.97159   0.00000  Uiso   1.00
H1316  H     0.70974   0.23071   0.92083   0.00000  Uiso   1.00
H1317  H     0.67857   0.27839   0.90221   0.00000  Uiso   1.00
H1318  H     0.74413   0.32129   0.88578   0.00000  Uiso   1.00
H1319  H     0.74198   0.30150   0.94958   0.00000  Uiso   1.00
H1320  H     0.98804   0.07040   0.78146   0.00000  Uiso   1.00
H1321  H     0.77336   0.27269   0.90561   0.00000  Uiso   1.00
H1322  H     0.67326   0.00019   0.82064   0.00000  Uiso   1.00
H1323  H     0.68644   0.33210   0.75512   0.00000  Uiso   1.00
H1324  H     0.72605   0.00630   0.80353   0.00000  Uiso   1.00
H1325  H     0.94220   0.22372   0.74871   0.00000  Uiso   1.00
H1326  H     0.98683   0.26050   0.75243   0.00000  Uiso   1.00
H1327  H     0.93891   0.32402   0.77522   0.00000  Uiso   1.00
H1328  H     0.92796   0.30012   0.71376   0.00000  Uiso   1.00
N1329  N     0.83333   0.28573   0.83333   0.00000  Uiso   1.00
N1330  N     0.83333   0.04760   0.83333   0.00000  Uiso   1.00
O1331  O     0.77226   0.20487   0.83333   0.00000  Uiso   1.00
O1332  O     0.95910   0.24856   0.82041   0.00000  Uiso   1.00
O1333  O     0.96050   0.09212   0.87191   0.00000  Uiso   1.00
O1334  O     0.70891   0.24889   0.84377   0.00000  Uiso   1.00
O1335  O     0.89441   0.12846   0.83334   0.00000  Uiso   1.00
O1336  O     0.89441   0.20487   0.83334   0.00000  Uiso   1.00
O1337  O     0.77226   0.12846   0.83333   0.00000  Uiso   1.00
O1338  O     0.83334   0.20488   0.76178   0.00000  Uiso   1.00
O1339  O     0.83333   0.12845   0.90489   0.00000  Uiso   1.00
O1340  O     0.83333   0.20488   0.90489   0.00000  Uiso   1.00
O1341  O     0.83334   0.12845   0.76178   0.00000  Uiso   1.00
O1342  O     0.70477   0.08524   0.83303   0.00000  Uiso   1.00
Zn1343 Zn    0.83333   0.21771   0.83333   0.00000  Uiso   1.00
Zn1344 Zn    0.83333   0.11563   0.83333   0.00000  Uiso   1.00
C1345  C     0.08663   0.49998   0.83345   0.00000  Uiso   1.00
C1346  C     0.02151   0.54188   0.83670   0.00000  Uiso   1.00
C1347  C     0.29080   0.50157   0.83900   0.00000  Uiso   1.00
C1348  C     0.04235   0.50050   0.83530   0.00000  Uiso   1.00
C1349  C     0.18804   0.35708   0.86980   0.00000  Uiso   1.00
C1350  C     0.14428   0.64255   0.79766   0.00000  Uiso   1.00
C1351  C     0.14541   0.35693   0.79665   0.00000  Uiso   1.00
C1352  C     0.18939   0.64279   0.86862   0.00000  Uiso   1.00
C1353  C     0.02165   0.39794   0.78862   0.00000  Uiso   1.00
C1354  C     0.02723   0.34761   0.79224   0.00000  Uiso   1.00
C1355  C     0.28924   0.58731   0.76765   0.00000  Uiso   1.00
C1356  C     0.24659   0.50034   0.83548   0.00000  Uiso   1.00
C1357  C     0.26137   0.62683   0.75482   0.00000  Uiso   1.00
C1358  C     0.30964   0.42008   0.92209   0.00000  Uiso   1.00
C1359  C     0.32142   0.37139   0.93113   0.00000  Uiso   1.00
C1360  C     0.04105   0.59380   0.89532   0.00000  Uiso   1.00
C1361  C     0.07737   0.62427   0.90977   0.00000  Uiso   1.00
C1362  C     0.16663   0.50002   0.73967   0.00000  Uiso   1.00
C1363  C     0.16674   0.49999   0.92700   0.00000  Uiso   1.00
C1364  C     0.16668   0.50003   0.68851   0.00000  Uiso   1.00
C1365  C     0.16672   0.50000   0.97816   0.00000  Uiso   1.00
C1366  C     0.02000   0.46012   0.83791   0.00000  Uiso   1.00
C1367  C     0.31237   0.54189   0.83067   0.00000  Uiso   1.00
C1368  C     0.31244   0.46231   0.85051   0.00000  Uiso   1.00
Cl1369 Cl    0.21324   0.38494   0.92001   0.00000  Uiso   1.00
Cl1370 Cl    0.11344   0.61345   0.75256   0.00000  Uiso   1.00
Cl1371 Cl    0.11943   0.38483   0.74688   0.00000  Uiso   1.00
Cl1372 Cl    0.22143   0.61411   0.91246   0.00000  Uiso   1.00
H1373  H     0.03794   0.41102   0.75566   0.00000  Uiso   1.00
H1374  H     0.22942   0.61904   0.76552   0.00000  Uiso   1.00
H1375  H     0.28543   0.42953   0.94838   0.00000  Uiso   1.00
H1376  H     0.00385   0.44125   0.93256   0.00000  Uiso   1.00
H1377  H     0.29557   0.34865   0.91976   0.00000  Uiso   1.00
H1378  H     0.01520   0.36315   0.90893   0.00000  Uiso   1.00
H1379  H     0.32949   0.36604   0.97159   0.00000  Uiso   1.00
H1380  H     0.04308   0.56405   0.92083   0.00000  Uiso   1.00
H1381  H     0.01191   0.61172   0.90221   0.00000  Uiso   1.00
H1382  H     0.07747   0.65462   0.88578   0.00000  Uiso   1.00
H1383  H     0.07532   0.63483   0.94958   0.00000  Uiso   1.00
H1384  H     0.32137   0.40374   0.78146   0.00000  Uiso   1.00
H1385  H     0.10669   0.60603   0.90561   0.00000  Uiso   1.00
H1386  H     0.00659   0.33352   0.82064   0.00000  Uiso   1.00
H1387  H     0.01977   0.66544   0.75512   0.00000  Uiso   1.00
H1388  H     0.05939   0.33964   0.80353   0.00000  Uiso   1.00
H1389  H     0.27554   0.55706   0.74871   0.00000  Uiso   1.00
H1390  H     0.32016   0.59383   0.75243   0.00000  Uiso   1.00
H1391  H     0.27225   0.65736   0.77522   0.00000  Uiso   1.00
H1392  H     0.26129   0.63345   0.71376   0.00000  Uiso   1.00
N1393  N     0.16667   0.61907   0.83333   0.00000  Uiso   1.00
N1394  N     0.16667   0.38093   0.83333   0.00000  Uiso   1.00
O1395  O     0.10559   0.53821   0.83333   0.00000  Uiso   1.00
O1396  O     0.29243   0.58189   0.82041   0.00000  Uiso   1.00
O1397  O     0.29384   0.42545   0.87191   0.00000  Uiso   1.00
O1398  O     0.04224   0.58222   0.84377   0.00000  Uiso   1.00
O1399  O     0.22774   0.46179   0.83334   0.00000  Uiso   1.00
O1400  O     0.22774   0.53821   0.83334   0.00000  Uiso   1.00
O1401  O     0.10559   0.46179   0.83333   0.00000  Uiso   1.00
O1402  O     0.16667   0.53821   0.76178   0.00000  Uiso   1.00
O1403  O     0.16666   0.46179   0.90489   0.00000  Uiso   1.00
O1404  O     0.16666   0.53821   0.90489   0.00000  Uiso   1.00
O1405  O     0.16667   0.46179   0.76178   0.00000  Uiso   1.00
O1406  O     0.03810   0.41858   0.83303   0.00000  Uiso   1.00
Zn1407 Zn    0.16667   0.55104   0.83333   0.00000  Uiso   1.00
Zn1408 Zn    0.16667   0.44896   0.83333   0.00000  Uiso   1.00
C1409  C     0.41997   0.49998   0.83345   0.00000  Uiso   1.00
C1410  C     0.35485   0.54188   0.83670   0.00000  Uiso   1.00
C1411  C     0.62413   0.50157   0.83900   0.00000  Uiso   1.00
C1412  C     0.37568   0.50050   0.83530   0.00000  Uiso   1.00
C1413  C     0.52138   0.35708   0.86980   0.00000  Uiso   1.00
C1414  C     0.47762   0.64255   0.79766   0.00000  Uiso   1.00
C1415  C     0.47875   0.35693   0.79665   0.00000  Uiso   1.00
C1416  C     0.52272   0.64279   0.86862   0.00000  Uiso   1.00
C1417  C     0.35498   0.39794   0.78862   0.00000  Uiso   1.00
C1418  C     0.36056   0.34761   0.79224   0.00000  Uiso   1.00
C1419  C     0.62258   0.58731   0.76765   0.00000  Uiso   1.00
C1420  C     0.57993   0.50034   0.83548   0.00000  Uiso   1.00
C1421  C     0.59470   0.62683   0.75482   0.00000  Uiso   1.00
C1422  C     0.64297   0.42008   0.92209   0.00000  Uiso   1.00
C1423  C     0.65475   0.37139   0.93113   0.00000  Uiso   1.00
C1424  C     0.37438   0.59380   0.89532   0.00000  Uiso   1.00
C1425  C     0.41071   0.62427   0.90977   0.00000  Uiso   1.00
C1426  C     0.49997   0.50002   0.73967   0.00000  Uiso   1.00
C1427  C     0.50008   0.49999   0.92700   0.00000  Uiso   1.00
C1428  C     0.50002   0.50003   0.68851   0.00000  Uiso   1.00
C1429  C     0.50005   0.50000   0.97816   0.00000  Uiso   1.00
C1430  C     0.35333   0.46012   0.83791   0.00000  Uiso   1.00
C1431  C     0.64570   0.54189   0.83067   0.00000  Uiso   1.00
C1432  C     0.64578   0.46231   0.85051   0.00000  Uiso   1.00
Cl1433 Cl    0.54657   0.38494   0.92001   0.00000  Uiso   1.00
Cl1434 Cl    0.44678   0.61345   0.75256   0.00000  Uiso   1.00
Cl1435 Cl    0.45277   0.38483   0.74688   0.00000  Uiso   1.00
Cl1436 Cl    0.55477   0.61411   0.91246   0.00000  Uiso   1.00
H1437  H     0.37127   0.41102   0.75566   0.00000  Uiso   1.00
H1438  H     0.56276   0.61904   0.76552   0.00000  Uiso   1.00
H1439  H     0.61877   0.42953   0.94838   0.00000  Uiso   1.00
H1440  H     0.33718   0.44125   0.93256   0.00000  Uiso   1.00
H1441  H     0.62891   0.34865   0.91976   0.00000  Uiso   1.00
H1442  H     0.34853   0.36315   0.90893   0.00000  Uiso   1.00
H1443  H     0.66282   0.36604   0.97159   0.00000  Uiso   1.00
H1444  H     0.37641   0.56405   0.92083   0.00000  Uiso   1.00
H1445  H     0.34524   0.61172   0.90221   0.00000  Uiso   1.00
H1446  H     0.41080   0.65462   0.88578   0.00000  Uiso   1.00
H1447  H     0.40865   0.63483   0.94958   0.00000  Uiso   1.00
H1448  H     0.65471   0.40374   0.78146   0.00000  Uiso   1.00
H1449  H     0.44003   0.60603   0.90561   0.00000  Uiso   1.00
H1450  H     0.33992   0.33352   0.82064   0.00000  Uiso   1.00
H1451  H     0.35310   0.66544   0.75512   0.00000  Uiso   1.00
H1452  H     0.39272   0.33964   0.80353   0.00000  Uiso   1.00
H1453  H     0.60887   0.55706   0.74871   0.00000  Uiso   1.00
H1454  H     0.65349   0.59383   0.75243   0.00000  Uiso   1.00
H1455  H     0.60558   0.65736   0.77522   0.00000  Uiso   1.00
H1456  H     0.59463   0.63345   0.71376   0.00000  Uiso   1.00
N1457  N     0.50000   0.61907   0.83333   0.00000  Uiso   1.00
N1458  N     0.50000   0.38093   0.83333   0.00000  Uiso   1.00
O1459  O     0.43892   0.53821   0.83333   0.00000  Uiso   1.00
O1460  O     0.62576   0.58189   0.82041   0.00000  Uiso   1.00
O1461  O     0.62717   0.42545   0.87191   0.00000  Uiso   1.00
O1462  O     0.37557   0.58222   0.84377   0.00000  Uiso   1.00
O1463  O     0.56108   0.46179   0.83334   0.00000  Uiso   1.00
O1464  O     0.56108   0.53821   0.83334   0.00000  Uiso   1.00
O1465  O     0.43892   0.46179   0.83333   0.00000  Uiso   1.00
O1466  O     0.50000   0.53821   0.76178   0.00000  Uiso   1.00
O1467  O     0.50000   0.46179   0.90489   0.00000  Uiso   1.00
O1468  O     0.50000   0.53821   0.90489   0.00000  Uiso   1.00
O1469  O     0.50000   0.46179   0.76178   0.00000  Uiso   1.00
O1470  O     0.37143   0.41858   0.83303   0.00000  Uiso   1.00
Zn1471 Zn    0.50000   0.55104   0.83333   0.00000  Uiso   1.00
Zn1472 Zn    0.50000   0.44896   0.83333   0.00000  Uiso   1.00
C1473  C     0.75330   0.49998   0.83345   0.00000  Uiso   1.00
C1474  C     0.68818   0.54188   0.83670   0.00000  Uiso   1.00
C1475  C     0.95747   0.50157   0.83900   0.00000  Uiso   1.00
C1476  C     0.70902   0.50050   0.83530   0.00000  Uiso   1.00
C1477  C     0.85471   0.35708   0.86980   0.00000  Uiso   1.00
C1478  C     0.81095   0.64255   0.79766   0.00000  Uiso   1.00
C1479  C     0.81208   0.35693   0.79665   0.00000  Uiso   1.00
C1480  C     0.85606   0.64279   0.86862   0.00000  Uiso   1.00
C1481  C     0.68831   0.39794   0.78862   0.00000  Uiso   1.00
C1482  C     0.69390   0.34761   0.79224   0.00000  Uiso   1.00
C1483  C     0.95591   0.58731   0.76765   0.00000  Uiso   1.00
C1484  C     0.91326   0.50034   0.83548   0.00000  Uiso   1.00
C1485  C     0.92803   0.62683   0.75482   0.00000  Uiso   1.00
C1486  C     0.97631   0.42008   0.92209   0.00000  Uiso   1.00
C1487  C     0.98808   0.37139   0.93113   0.00000  Uiso   1.00
C1488  C     0.70772   0.59380   0.89532   0.00000  Uiso   1.00
C1489  C     0.74404   0.62427   0.90977   0.00000  Uiso   1.00
C1490  C     0.83330   0.50002   0.73967   0.00000  Uiso   1.00
C1491  C     0.83341   0.49999   0.92700   0.00000  Uiso   1.00
C1492  C     0.83335   0.50003   0.68851   0.00000  Uiso   1.00
C1493  C     0.83339   0.50000   0.97816   0.00000  Uiso   1.00
C1494  C     0.68667   0.46012   0.83791   0.00000  Uiso   1.00
C1495  C     0.97904   0.54189   0.83067   0.00000  Uiso   1.00
C1496  C     0.97911   0.46231   0.85051   0.00000  Uiso   1.00
Cl1497 Cl    0.87991   0.38494   0.92001   0.00000  Uiso   1.00
Cl1498 Cl    0.78011   0.61345   0.75256   0.00000  Uiso   1.00
Cl1499 Cl    0.78610   0.38483   0.74688   0.00000  Uiso   1.00
Cl1500 Cl    0.88810   0.61411   0.91246   0.00000  Uiso   1.00
H1501  H     0.70461   0.41102   0.75566   0.00000  Uiso   1.00
H1502  H     0.89609   0.61904   0.76552   0.00000  Uiso   1.00
H1503  H     0.95210   0.42953   0.94838   0.00000  Uiso   1.00
H1504  H     0.67051   0.44125   0.93256   0.00000  Uiso   1.00
H1505  H     0.96224   0.34865   0.91976   0.00000  Uiso   1.00
H1506  H     0.68187   0.36315   0.90893   0.00000  Uiso   1.00
H1507  H     0.99616   0.36604   0.97159   0.00000  Uiso   1.00
H1508  H     0.70974   0.56405   0.92083   0.00000  Uiso   1.00
H1509  H     0.67857   0.61172   0.90221   0.00000  Uiso   1.00
H1510  H     0.74413   0.65462   0.88578   0.00000  Uiso   1.00
H1511  H     0.74198   0.63483   0.94958   0.00000  Uiso   1.00
H1512  H     0.98804   0.40374   0.78146   0.00000  Uiso   1.00
H1513  H     0.77336   0.60603   0.90561   0.00000  Uiso   1.00
H1514  H     0.67326   0.33352   0.82064   0.00000  Uiso   1.00
H1515  H     0.68644   0.66544   0.75512   0.00000  Uiso   1.00
H1516  H     0.72605   0.33964   0.80353   0.00000  Uiso   1.00
H1517  H     0.94220   0.55706   0.74871   0.00000  Uiso   1.00
H1518  H     0.98683   0.59383   0.75243   0.00000  Uiso   1.00
H1519  H     0.93891   0.65736   0.77522   0.00000  Uiso   1.00
H1520  H     0.92796   0.63345   0.71376   0.00000  Uiso   1.00
N1521  N     0.83333   0.61907   0.83333   0.00000  Uiso   1.00
N1522  N     0.83333   0.38093   0.83333   0.00000  Uiso   1.00
O1523  O     0.77226   0.53821   0.83333   0.00000  Uiso   1.00
O1524  O     0.95910   0.58189   0.82041   0.00000  Uiso   1.00
O1525  O     0.96050   0.42545   0.87191   0.00000  Uiso   1.00
O1526  O     0.70891   0.58222   0.84377   0.00000  Uiso   1.00
O1527  O     0.89441   0.46179   0.83334   0.00000  Uiso   1.00
O1528  O     0.89441   0.53821   0.83334   0.00000  Uiso   1.00
O1529  O     0.77226   0.46179   0.83333   0.00000  Uiso   1.00
O1530  O     0.83334   0.53821   0.76178   0.00000  Uiso   1.00
O1531  O     0.83333   0.46179   0.90489   0.00000  Uiso   1.00
O1532  O     0.83333   0.53821   0.90489   0.00000  Uiso   1.00
O1533  O     0.83334   0.46179   0.76178   0.00000  Uiso   1.00
O1534  O     0.70477   0.41858   0.83303   0.00000  Uiso   1.00
Zn1535 Zn    0.83333   0.55104   0.83333   0.00000  Uiso   1.00
Zn1536 Zn    0.83333   0.44896   0.83333   0.00000  Uiso   1.00
C1537  C     0.08663   0.83331   0.83345   0.00000  Uiso   1.00
C1538  C     0.02151   0.87522   0.83670   0.00000  Uiso   1.00
C1539  C     0.29080   0.83490   0.83900   0.00000  Uiso   1.00
C1540  C     0.04235   0.83383   0.83530   0.00000  Uiso   1.00
C1541  C     0.18804   0.69041   0.86980   0.00000  Uiso   1.00
C1542  C     0.14428   0.97589   0.79766   0.00000  Uiso   1.00
C1543  C     0.14541   0.69027   0.79665   0.00000  Uiso   1.00
C1544  C     0.18939   0.97612   0.86862   0.00000  Uiso   1.00
C1545  C     0.02165   0.73128   0.78862   0.00000  Uiso   1.00
C1546  C     0.02723   0.68094   0.79224   0.00000  Uiso   1.00
C1547  C     0.28924   0.92064   0.76765   0.00000  Uiso   1.00
C1548  C     0.24659   0.83367   0.83548   0.00000  Uiso   1.00
C1549  C     0.26137   0.96016   0.75482   0.00000  Uiso   1.00
C1550  C     0.30964   0.75342   0.92209   0.00000  Uiso   1.00
C1551  C     0.32142   0.70472   0.93113   0.00000  Uiso   1.00
C1552  C     0.04105   0.92714   0.89532   0.00000  Uiso   1.00
C1553  C     0.07737   0.95760   0.90977   0.00000  Uiso   1.00
C1554  C     0.16663   0.83335   0.73967   0.00000  Uiso   1.00
C1555  C     0.16674   0.83333   0.92700   0.00000  Uiso   1.00
C1556  C     0.16668   0.83337   0.68851   0.00000  Uiso   1.00
C1557  C     0.16672   0.83334   0.97816   0.00000  Uiso   1.00
C1558  C     0.02000   0.79345   0.83791   0.00000  Uiso   1.00
C1559  C     0.31237   0.87522   0.83067   0.00000  Uiso   1.00
C1560  C     0.31244   0.79565   0.85051   0.00000  Uiso   1.00
Cl1561 Cl    0.21324   0.71827   0.92001   0.00000  Uiso   1.00
Cl1562 Cl    0.11344   0.94679   0.75256   0.00000  Uiso   1.00
Cl1563 Cl    0.11943   0.71816   0.74688   0.00000  Uiso   1.00
Cl1564 Cl    0.22143   0.94744   0.91246   0.00000  Uiso   1.00
H1565  H     0.03794   0.74435   0.75566   0.00000  Uiso   1.00
H1566  H     0.22942   0.95237   0.76552   0.00000  Uiso   1.00
H1567  H     0.28543   0.76287   0.94838   0.00000  Uiso   1.00
H1568  H     0.00385   0.77458   0.93256   0.00000  Uiso   1.00
H1569  H     0.29557   0.68199   0.91976   0.00000  Uiso   1.00
H1570  H     0.01520   0.69649   0.90893   0.00000  Uiso   1.00
H1571  H     0.32949   0.69937   0.97159   0.00000  Uiso   1.00
H1572  H     0.04308   0.89738   0.92083   0.00000  Uiso   1.00
H1573  H     0.01191   0.94506   0.90221   0.00000  Uiso   1.00
H1574  H     0.07747   0.98795   0.88578   0.00000  Uiso   1.00
H1575  H     0.07532   0.96816   0.94958   0.00000  Uiso   1.00
H1576  H     0.32137   0.73707   0.78146   0.00000  Uiso   1.00
H1577  H     0.10669   0.93936   0.90561   0.00000  Uiso   1.00
H1578  H     0.00659   0.66685   0.82064   0.00000  Uiso   1.00
H1579  H     0.01977   0.99877   0.75512   0.00000  Uiso   1.00
H1580  H     0.05939   0.67297   0.80353   0.00000  Uiso   1.00
H1581  H     0.27554   0.89039   0.74871   0.00000  Uiso   1.00
H1582  H     0.32016   0.92717   0.75243   0.00000  Uiso   1.00
H1583  H     0.27225   0.99069   0.77522   0.00000  Uiso   1.00
H1584  H     0.26129   0.96679   0.71376   0.00000  Uiso   1.00
N1585  N     0.16667   0.95240   0.83333   0.00000  Uiso   1.00
N1586  N     0.16667   0.71427   0.83333   0.00000  Uiso   1.00
O1587  O     0.10559   0.87154   0.83333   0.00000  Uiso   1.00
O1588  O     0.29243   0.91523   0.82041   0.00000  Uiso   1.00
O1589  O     0.29384   0.75879   0.87191   0.00000  Uiso   1.00
O1590  O     0.04224   0.91555   0.84377   0.00000  Uiso   1.00
O1591  O     0.22774   0.79513   0.83334   0.00000  Uiso   1.00
O1592  O     0.22774   0.87154   0.83334   0.00000  Uiso   1.00
O1593  O     0.10559   0.79513   0.83333   0.00000  Uiso   1.00
O1594  O     0.16667   0.87155   0.76178   0.00000  Uiso   1.00
O1595  O     0.16666   0.79512   0.90489   0.00000  Uiso   1.00
O1596  O     0.16666   0.87155   0.90489   0.00000  Uiso   1.00
O1597  O     0.16667   0.79512   0.76178   0.00000  Uiso   1.00
O1598  O     0.03810   0.75191   0.83303   0.00000  Uiso   1.00
Zn1599 Zn    0.16667   0.88437   0.83333   0.00000  Uiso   1.00
Zn1600 Zn    0.16667   0.78229   0.83333   0.00000  Uiso   1.00
C1601  C     0.41997   0.83331   0.83345   0.00000  Uiso   1.00
C1602  C     0.35485   0.87522   0.83670   0.00000  Uiso   1.00
C1603  C     0.62413   0.83490   0.83900   0.00000  Uiso   1.00
C1604  C     0.37568   0.83383   0.83530   0.00000  Uiso   1.00
C1605  C     0.52138   0.69041   0.86980   0.00000  Uiso   1.00
C1606  C     0.47762   0.97589   0.79766   0.00000  Uiso   1.00
C1607  C     0.47875   0.69027   0.79665   0.00000  Uiso   1.00
C1608  C     0.52272   0.97612   0.86862   0.00000  Uiso   1.00
C1609  C     0.35498   0.73128   0.78862   0.00000  Uiso   1.00
C1610  C     0.36056   0.68094   0.79224   0.00000  Uiso   1.00
C1611  C     0.62258   0.92064   0.76765   0.00000  Uiso   1.00
C1612  C     0.57993   0.83367   0.83548   0.00000  Uiso   1.00
C1613  C     0.59470   0.96016   0.75482   0.00000  Uiso   1.00
C1614  C     0.64297   0.75342   0.92209   0.00000  Uiso   1.00
C1615  C     0.65475   0.70472   0.93113   0.00000  Uiso   1.00
C1616  C     0.37438   0.92714   0.89532   0.00000  Uiso   1.00
C1617  C     0.41071   0.95760   0.90977   0.00000  Uiso   1.00
C1618  C     0.49997   0.83335   0.73967   0.00000  Uiso   1.00
C1619  C     0.50008   0.83333   0.92700   0.00000  Uiso   1.00
C1620  C     0.50002   0.83337   0.68851   0.00000  Uiso   1.00
C1621  C     0.50005   0.83334   0.97816   0.00000  Uiso   1.00
C1622  C     0.35333   0.79345   0.83791   0.00000  Uiso   1.00
C1623  C     0.64570   0.87522   0.83067   0.00000  Uiso   1.00
C1624  C     0.64578   0.79565   0.85051   0.00000  Uiso   1.00
Cl1625 Cl    0.54657   0.71827   0.92001   0.00000  Uiso   1.00
Cl1626 Cl    0.44678   0.94679   0.75256   0.00000  Uiso   1.00
Cl1627 Cl    0.45277   0.71816   0.74688   0.00000  Uiso   1.00
Cl1628 Cl    0.55477   0.94744   0.91246   0.00000  Uiso   1.00
H1629  H     0.37127   0.74435   0.75566   0.00000  Uiso   1.00
H1630  H     0.56276   0.95237   0.76552   0.00000  Uiso   1.00
H1631  H     0.61877   0.76287   0.94838   0.00000  Uiso   1.00
H1632  H     0.33718   0.77458   0.93256   0.00000  Uiso   1.00
H1633  H     0.62891   0.68199   0.91976   0.00000  Uiso   1.00
H1634  H     0.34853   0.69649   0.90893   0.00000  Uiso   1.00
H1635  H     0.66282   0.69937   0.97159   0.00000  Uiso   1.00
H1636  H     0.37641   0.89738   0.92083   0.00000  Uiso   1.00
H1637  H     0.34524   0.94506   0.90221   0.00000  Uiso   1.00
H1638  H     0.41080   0.98795   0.88578   0.00000  Uiso   1.00
H1639  H     0.40865   0.96816   0.94958   0.00000  Uiso   1.00
H1640  H     0.65471   0.73707   0.78146   0.00000  Uiso   1.00
H1641  H     0.44003   0.93936   0.90561   0.00000  Uiso   1.00
H1642  H     0.33992   0.66685   0.82064   0.00000  Uiso   1.00
H1643  H     0.35310   0.99877   0.75512   0.00000  Uiso   1.00
H1644  H     0.39272   0.67297   0.80353   0.00000  Uiso   1.00
H1645  H     0.60887   0.89039   0.74871   0.00000  Uiso   1.00
H1646  H     0.65349   0.92717   0.75243   0.00000  Uiso   1.00
H1647  H     0.60558   0.99069   0.77522   0.00000  Uiso   1.00
H1648  H     0.59463   0.96679   0.71376   0.00000  Uiso   1.00
N1649  N     0.50000   0.95240   0.83333   0.00000  Uiso   1.00
N1650  N     0.50000   0.71427   0.83333   0.00000  Uiso   1.00
O1651  O     0.43892   0.87154   0.83333   0.00000  Uiso   1.00
O1652  O     0.62576   0.91523   0.82041   0.00000  Uiso   1.00
O1653  O     0.62717   0.75879   0.87191   0.00000  Uiso   1.00
O1654  O     0.37557   0.91555   0.84377   0.00000  Uiso   1.00
O1655  O     0.56108   0.79513   0.83334   0.00000  Uiso   1.00
O1656  O     0.56108   0.87154   0.83334   0.00000  Uiso   1.00
O1657  O     0.43892   0.79513   0.83333   0.00000  Uiso   1.00
O1658  O     0.50000   0.87155   0.76178   0.00000  Uiso   1.00
O1659  O     0.50000   0.79512   0.90489   0.00000  Uiso   1.00
O1660  O     0.50000   0.87155   0.90489   0.00000  Uiso   1.00
O1661  O     0.50000   0.79512   0.76178   0.00000  Uiso   1.00
O1662  O     0.37143   0.75191   0.83303   0.00000  Uiso   1.00
Zn1663 Zn    0.50000   0.88437   0.83333   0.00000  Uiso   1.00
Zn1664 Zn    0.50000   0.78229   0.83333   0.00000  Uiso   1.00
C1665  C     0.75330   0.83331   0.83345   0.00000  Uiso   1.00
C1666  C     0.68818   0.87522   0.83670   0.00000  Uiso   1.00
C1667  C     0.95747   0.83490   0.83900   0.00000  Uiso   1.00
C1668  C     0.70902   0.83383   0.83530   0.00000  Uiso   1.00
C1669  C     0.85471   0.69041   0.86980   0.00000  Uiso   1.00
C1670  C     0.81095   0.97589   0.79766   0.00000  Uiso   1.00
C1671  C     0.81208   0.69027   0.79665   0.00000  Uiso   1.00
C1672  C     0.85606   0.97612   0.86862   0.00000  Uiso   1.00
C1673  C     0.68831   0.73128   0.78862   0.00000  Uiso   1.00
C1674  C     0.69390   0.68094   0.79224   0.00000  Uiso   1.00
C1675  C     0.95591   0.92064   0.76765   0.00000  Uiso   1.00
C1676  C     0.91326   0.83367   0.83548   0.00000  Uiso   1.00
C1677  C     0.92803   0.96016   0.75482   0.00000  Uiso   1.00
C1678  C     0.97631   0.75342   0.92209   0.00000  Uiso   1.00
C1679  C     0.98808   0.70472   0.93113   0.00000  Uiso   1.00
C1680  C     0.70772   0.92714   0.89532   0.00000  Uiso   1.00
C1681  C     0.74404   0.95760   0.90977   0.00000  Uiso   1.00
C1682  C     0.83330   0.83335   0.73967   0.00000  Uiso   1.00
C1683  C     0.83341   0.83333   0.92700   0.00000  Uiso   1.00
C1684  C     0.83335   0.83337   0.68851   0.00000  Uiso   1.00
C1685  C     0.83339   0.83334   0.97816   0.00000  Uiso   1.00
C1686  C     0.68667   0.79345   0.83791   0.00000  Uiso   1.00
C1687  C     0.97904   0.87522   0.83067   0.00000  Uiso   1.00
C1688  C     0.97911   0.79565   0.85051   0.00000  Uiso   1.00
Cl1689 Cl    0.87991   0.71827   0.92001   0.00000  Uiso   1.00
Cl1690 Cl    0.78011   0.94679   0.75256   0.00000  Uiso   1.00
Cl1691 Cl    0.78610   0.71816   0.74688   0.00000  Uiso   1.00
Cl1692 Cl    0.88810   0.94744   0.91246   0.00000  Uiso   1.00
H1693  H     0.70461   0.74435   0.75566   0.00000  Uiso   1.00
H1694  H     0.89609   0.95237   0.76552   0.00000  Uiso   1.00
H1695  H     0.95210   0.76287   0.94838   0.00000  Uiso   1.00
H1696  H     0.67051   0.77458   0.93256   0.00000  Uiso   1.00
H1697  H     0.96224   0.68199   0.91976   0.00000  Uiso   1.00
H1698  H     0.68187   0.69649   0.90893   0.00000  Uiso   1.00
H1699  H     0.99616   0.69937   0.97159   0.00000  Uiso   1.00
H1700  H     0.70974   0.89738   0.92083   0.00000  Uiso   1.00
H1701  H     0.67857   0.94506   0.90221   0.00000  Uiso   1.00
H1702  H     0.74413   0.98795   0.88578   0.00000  Uiso   1.00
H1703  H     0.74198   0.96816   0.94958   0.00000  Uiso   1.00
H1704  H     0.98804   0.73707   0.78146   0.00000  Uiso   1.00
H1705  H     0.77336   0.93936   0.90561   0.00000  Uiso   1.00
H1706  H     0.67326   0.66685   0.82064   0.00000  Uiso   1.00
H1707  H     0.68644   0.99877   0.75512   0.00000  Uiso   1.00
H1708  H     0.72605   0.67297   0.80353   0.00000  Uiso   1.00
H1709  H     0.94220   0.89039   0.74871   0.00000  Uiso   1.00
H1710  H     0.98683   0.92717   0.75243   0.00000  Uiso   1.00
H1711  H     0.93891   0.99069   0.77522   0.00000  Uiso   1.00
H1712  H     0.92796   0.96679   0.71376   0.00000  Uiso   1.00
N1713  N     0.83333   0.95240   0.83333   0.00000  Uiso   1.00
N1714  N     0.83333   0.71427   0.83333   0.00000  Uiso   1.00
O1715  O     0.77226   0.87154   0.83333   0.00000  Uiso   1.00
O1716  O     0.95910   0.91523   0.82041   0.00000  Uiso   1.00
O1717  O     0.96050   0.75879   0.87191   0.00000  Uiso   1.00
O1718  O     0.70891   0.91555   0.84377   0.00000  Uiso   1.00
O1719  O     0.89441   0.79513   0.83334   0.00000  Uiso   1.00
O1720  O     0.89441   0.87154   0.83334   0.00000  Uiso   1.00
O1721  O     0.77226   0.79513   0.83333   0.00000  Uiso   1.00
O1722  O     0.83334   0.87155   0.76178   0.00000  Uiso   1.00
O1723  O     0.83333   0.79512   0.90489   0.00000  Uiso   1.00
O1724  O     0.83333   0.87155   0.90489   0.00000  Uiso   1.00
O1725  O     0.83334   0.79512   0.76178   0.00000  Uiso   1.00
O1726  O     0.70477   0.75191   0.83303   0.00000  Uiso   1.00
Zn1727 Zn    0.83333   0.88437   0.83333   0.00000  Uiso   1.00
Zn1728 Zn    0.83333   0.78229   0.83333   0.00000  Uiso   1.00
loop_
_geom_bond_atom_site_label_1
_geom_bond_atom_site_label_2
_geom_bond_distance
_geom_bond_site_symmetry_2
_ccdc_geom_bond_type
C1     O57     1.298   .     A
C1     C4      1.441   .     S
C1     O51     1.292   .     A
C2     C4      1.413   .     A
C2     O54     1.384   .     S
C2     C151    1.383   1_455 S
C3     C23     1.410   .     A
C3     C24     1.398   .     A
C3     C12     1.436   .     S
C4     C22     1.405   .     A
C5     Cl25    1.749   .     S
C5     N50     1.374   .     A
C5     C392    1.422   1_545 S
C6     Cl26    1.761   .     S
C6     N49     1.370   .     A
C6     C199    1.424   .     S
C7     Cl27    1.756   .     S
C7     N50     1.374   .     A
C7     C390    1.424   1_545 S
C8     Cl28    1.760   .     S
C8     N49     1.368   .     A
C8     C197    1.422   .     S
C9     C10     1.516   .     S
C9     H29     1.110   .     S
C9     O62     1.419   .     S
C9     H168    1.116   1_455 S
C10    H42     1.110   .     S
C10    H44     1.103   .     S
C10    H427    1.109   1_545 S
C11    H45     1.116   .     S
C11    C13     1.522   .     S
C11    H46     1.112   .     S
C11    O52     1.414   .     S
C12    O56     1.289   .     A
C12    O55     1.299   .     A
C13    H48     1.111   .     S
C13    H30     1.109   .     S
C13    H47     1.110   .     S
C14    H31     1.109   .     S
C14    O53     1.423   .     S
C14    C15     1.521   .     S
C14    H96     1.118   .     S
C15    H35     1.111   .     S
C15    H33     1.109   .     S
C15    H98     1.108   .     S
C16    H37     1.111   .     S
C16    H36     1.118   .     S
C16    O54     1.417   .     S
C16    C17     1.523   .     S
C17    H38     1.108   .     S
C17    H41     1.109   .     S
C17    H39     1.111   .     S
C18    O61     1.283   .     A
C18    O58     1.283   .     A
C18    C20     1.362   .     S
C19    O60     1.283   .     A
C19    C21     1.362   .     S
C19    O59     1.283   .     A
C20    C1173   1.163   1_554 S
C21    C596    1.163   .     S
C22    O62     1.383   .     S
C22    C152    1.384   1_455 S
C23    O52     1.384   .     S
C23    C66     1.383   .     S
C24    O53     1.384   .     S
C24    C86     1.384   .     S
H32    C142    1.118   1_455 S
H34    C143    1.108   1_455 S
H40    C73     1.116   .     S
H43    C202    1.109   .     S
N49    Zn63    2.029   .     S
N50    Zn64    2.029   .     S
O51    Zn63    2.018   .     S
O55    Zn64    2.018   .     S
O56    Zn63    2.023   .     S
O57    Zn64    2.023   .     S
O58    Zn63    1.943   .     S
O59    Zn64    1.943   .     S
O60    Zn63    1.943   .     S
O61    Zn64    1.943   .     S
C65    O121    1.298   .     A
C65    C68     1.441   .     S
C65    O115    1.292   .     A
C66    C68     1.413   .     A
C66    O118    1.384   .     S
C67    C87     1.410   .     A
C67    C88     1.398   .     A
C67    C76     1.436   .     S
C68    C86     1.405   .     A
C69    Cl89    1.749   .     S
C69    N114    1.374   .     A
C69    C456    1.422   1_545 S
C70    Cl90    1.761   .     S
C70    N113    1.370   .     A
C70    C263    1.424   .     S
C71    Cl91    1.756   .     S
C71    N114    1.374   .     A
C71    C454    1.424   1_545 S
C72    Cl92    1.760   .     S
C72    N113    1.368   .     A
C72    C261    1.422   .     S
C73    C74     1.516   .     S
C73    H93     1.110   .     S
C73    O126    1.419   .     S
C74    H106    1.110   .     S
C74    H108    1.103   .     S
C74    H491    1.109   1_545 S
C75    H109    1.116   .     S
C75    C77     1.522   .     S
C75    H110    1.112   .     S
C75    O116    1.414   .     S
C76    O120    1.289   .     A
C76    O119    1.299   .     A
C77    H112    1.111   .     S
C77    H94     1.109   .     S
C77    H111    1.110   .     S
C78    H95     1.109   .     S
C78    O117    1.423   .     S
C78    C79     1.521   .     S
C78    H160    1.118   .     S
C79    H99     1.111   .     S
C79    H97     1.109   .     S
C79    H162    1.108   .     S
C80    H101    1.111   .     S
C80    H100    1.118   .     S
C80    O118    1.417   .     S
C80    C81     1.523   .     S
C81    H102    1.108   .     S
C81    H105    1.109   .     S
C81    H103    1.111   .     S
C82    O125    1.283   .     A
C82    O122    1.283   .     A
C82    C84     1.362   .     S
C83    O124    1.283   .     A
C83    C85     1.362   .     S
C83    O123    1.283   .     A
C84    C1237   1.163   1_554 S
C85    C660    1.163   .     S
C86    O126    1.383   .     S
C87    O116    1.384   .     S
C87    C130    1.383   .     S
C88    O117    1.384   .     S
C88    C150    1.384   .     S
H104   C137    1.116   .     S
H107   C266    1.109   .     S
N113   Zn127   2.029   .     S
N114   Zn128   2.029   .     S
O115   Zn127   2.018   .     S
O119   Zn128   2.018   .     S
O120   Zn127   2.023   .     S
O121   Zn128   2.023   .     S
O122   Zn127   1.943   .     S
O123   Zn128   1.943   .     S
O124   Zn127   1.943   .     S
O125   Zn128   1.943   .     S
C129   O185    1.298   .     A
C129   C132    1.441   .     S
C129   O179    1.292   .     A
C130   C132    1.413   .     A
C130   O182    1.384   .     S
C131   C151    1.410   .     A
C131   C152    1.398   .     A
C131   C140    1.436   .     S
C132   C150    1.405   .     A
C133   Cl153   1.749   .     S
C133   N178    1.374   .     A
C133   C520    1.422   1_545 S
C134   Cl154   1.761   .     S
C134   N177    1.370   .     A
C134   C327    1.424   .     S
C135   Cl155   1.756   .     S
C135   N178    1.374   .     A
C135   C518    1.424   1_545 S
C136   Cl156   1.760   .     S
C136   N177    1.368   .     A
C136   C325    1.422   .     S
C137   C138    1.516   .     S
C137   H157    1.110   .     S
C137   O190    1.419   .     S
C138   H170    1.110   .     S
C138   H172    1.103   .     S
C138   H555    1.109   1_545 S
C139   H173    1.116   .     S
C139   C141    1.522   .     S
C139   H174    1.112   .     S
C139   O180    1.414   .     S
C140   O184    1.289   .     A
C140   O183    1.299   .     A
C141   H176    1.111   .     S
C141   H158    1.109   .     S
C141   H175    1.110   .     S
C142   H159    1.109   .     S
C142   O181    1.423   .     S
C142   C143    1.521   .     S
C142   H32     1.118   1_655 S
C143   H163    1.111   .     S
C143   H161    1.109   .     S
C143   H34     1.108   1_655 S
C144   H165    1.111   .     S
C144   H164    1.118   .     S
C144   O182    1.417   .     S
C144   C145    1.523   .     S
C145   H166    1.108   .     S
C145   H169    1.109   .     S
C145   H167    1.111   .     S
C146   O189    1.283   .     A
C146   O186    1.283   .     A
C146   C148    1.362   .     S
C147   O188    1.283   .     A
C147   C149    1.362   .     S
C147   O187    1.283   .     A
C148   C1301   1.163   1_554 S
C149   C724    1.163   .     S
C150   O190    1.383   .     S
C151   O180    1.384   .     S
C151   C2      1.383   1_655 S
C152   O181    1.384   .     S
C152   C22     1.384   1_655 S
H168   C9      1.116   1_655 S
H171   C330    1.109   .     S
N177   Zn191   2.029   .     S
N178   Zn192   2.029   .     S
O179   Zn191   2.018   .     S
O183   Zn192   2.018   .     S
O184   Zn191   2.023   .     S
O185   Zn192   2.023   .     S
O186   Zn191   1.943   .     S
O187   Zn192   1.943   .     S
O188   Zn191   1.943   .     S
O189   Zn192   1.943   .     S
C193   O249    1.298   .     A
C193   C196    1.441   .     S
C193   O243    1.292   .     A
C194   C196    1.413   .     A
C194   O246    1.384   .     S
C194   C343    1.383   1_455 S
C195   C215    1.410   .     A
C195   C216    1.398   .     A
C195   C204    1.436   .     S
C196   C214    1.405   .     A
C197   Cl217   1.749   .     S
C197   N242    1.374   .     A
C198   Cl218   1.761   .     S
C198   N241    1.370   .     A
C198   C391    1.424   .     S
C199   Cl219   1.756   .     S
C199   N242    1.374   .     A
C200   Cl220   1.760   .     S
C200   N241    1.368   .     A
C200   C389    1.422   .     S
C201   C202    1.516   .     S
C201   H221    1.110   .     S
C201   O254    1.419   .     S
C201   H360    1.116   1_455 S
C202   H234    1.110   .     S
C202   H236    1.103   .     S
C203   H237    1.116   .     S
C203   C205    1.522   .     S
C203   H238    1.112   .     S
C203   O244    1.414   .     S
C204   O248    1.289   .     A
C204   O247    1.299   .     A
C205   H240    1.111   .     S
C205   H222    1.109   .     S
C205   H239    1.110   .     S
C206   H223    1.109   .     S
C206   O245    1.423   .     S
C206   C207    1.521   .     S
C206   H288    1.118   .     S
C207   H227    1.111   .     S
C207   H225    1.109   .     S
C207   H290    1.108   .     S
C208   H229    1.111   .     S
C208   H228    1.118   .     S
C208   O246    1.417   .     S
C208   C209    1.523   .     S
C209   H230    1.108   .     S
C209   H233    1.109   .     S
C209   H231    1.111   .     S
C210   O253    1.283   .     A
C210   O250    1.283   .     A
C210   C212    1.362   .     S
C211   O252    1.283   .     A
C211   C213    1.362   .     S
C211   O251    1.283   .     A
C212   C1365   1.163   1_554 S
C213   C788    1.163   .     S
C214   O254    1.383   .     S
C214   C344    1.384   1_455 S
C215   O244    1.384   .     S
C215   C258    1.383   .     S
C216   O245    1.384   .     S
C216   C278    1.384   .     S
H224   C334    1.118   1_455 S
H226   C335    1.108   1_455 S
H232   C265    1.116   .     S
H235   C394    1.109   .     S
N241   Zn255   2.029   .     S
N242   Zn256   2.029   .     S
O243   Zn255   2.018   .     S
O247   Zn256   2.018   .     S
O248   Zn255   2.023   .     S
O249   Zn256   2.023   .     S
O250   Zn255   1.943   .     S
O251   Zn256   1.943   .     S
O252   Zn255   1.943   .     S
O253   Zn256   1.943   .     S
C257   O313    1.298   .     A
C257   C260    1.441   .     S
C257   O307    1.292   .     A
C258   C260    1.413   .     A
C258   O310    1.384   .     S
C259   C279    1.410   .     A
C259   C280    1.398   .     A
C259   C268    1.436   .     S
C260   C278    1.405   .     A
C261   Cl281   1.749   .     S
C261   N306    1.374   .     A
C262   Cl282   1.761   .     S
C262   N305    1.370   .     A
C262   C455    1.424   .     S
C263   Cl283   1.756   .     S
C263   N306    1.374   .     A
C264   Cl284   1.760   .     S
C264   N305    1.368   .     A
C264   C453    1.422   .     S
C265   C266    1.516   .     S
C265   H285    1.110   .     S
C265   O318    1.419   .     S
C266   H298    1.110   .     S
C266   H300    1.103   .     S
C267   H301    1.116   .     S
C267   C269    1.522   .     S
C267   H302    1.112   .     S
C267   O308    1.414   .     S
C268   O312    1.289   .     A
C268   O311    1.299   .     A
C269   H304    1.111   .     S
C269   H286    1.109   .     S
C269   H303    1.110   .     S
C270   H287    1.109   .     S
C270   O309    1.423   .     S
C270   C271    1.521   .     S
C270   H352    1.118   .     S
C271   H291    1.111   .     S
C271   H289    1.109   .     S
C271   H354    1.108   .     S
C272   H293    1.111   .     S
C272   H292    1.118   .     S
C272   O310    1.417   .     S
C272   C273    1.523   .     S
C273   H294    1.108   .     S
C273   H297    1.109   .     S
C273   H295    1.111   .     S
C274   O317    1.283   .     A
C274   O314    1.283   .     A
C274   C276    1.362   .     S
C275   O316    1.283   .     A
C275   C277    1.362   .     S
C275   O315    1.283   .     A
C276   C1429   1.163   1_554 S
C277   C852    1.163   .     S
C278   O318    1.383   .     S
C279   O308    1.384   .     S
C279   C322    1.383   .     S
C280   O309    1.384   .     S
C280   C342    1.384   .     S
H296   C329    1.116   .     S
H299   C458    1.109   .     S
N305   Zn319   2.029   .     S
N306   Zn320   2.029   .     S
O307   Zn319   2.018   .     S
O311   Zn320   2.018   .     S
O312   Zn319   2.023   .     S
O313   Zn320   2.023   .     S
O314   Zn319   1.943   .     S
O315   Zn320   1.943   .     S
O316   Zn319   1.943   .     S
O317   Zn320   1.943   .     S
C321   O377    1.298   .     A
C321   C324    1.441   .     S
C321   O371    1.292   .     A
C322   C324    1.413   .     A
C322   O374    1.384   .     S
C323   C343    1.410   .     A
C323   C344    1.398   .     A
C323   C332    1.436   .     S
C324   C342    1.405   .     A
C325   Cl345   1.749   .     S
C325   N370    1.374   .     A
C326   Cl346   1.761   .     S
C326   N369    1.370   .     A
C326   C519    1.424   .     S
C327   Cl347   1.756   .     S
C327   N370    1.374   .     A
C328   Cl348   1.760   .     S
C328   N369    1.368   .     A
C328   C517    1.422   .     S
C329   C330    1.516   .     S
C329   H349    1.110   .     S
C329   O382    1.419   .     S
C330   H362    1.110   .     S
C330   H364    1.103   .     S
C331   H365    1.116   .     S
C331   C333    1.522   .     S
C331   H366    1.112   .     S
C331   O372    1.414   .     S
C332   O376    1.289   .     A
C332   O375    1.299   .     A
C333   H368    1.111   .     S
C333   H350    1.109   .     S
C333   H367    1.110   .     S
C334   H351    1.109   .     S
C334   O373    1.423   .     S
C334   C335    1.521   .     S
C334   H224    1.118   1_655 S
C335   H355    1.111   .     S
C335   H353    1.109   .     S
C335   H226    1.108   1_655 S
C336   H357    1.111   .     S
C336   H356    1.118   .     S
C336   O374    1.417   .     S
C336   C337    1.523   .     S
C337   H358    1.108   .     S
C337   H361    1.109   .     S
C337   H359    1.111   .     S
C338   O381    1.283   .     A
C338   O378    1.283   .     A
C338   C340    1.362   .     S
C339   O380    1.283   .     A
C339   C341    1.362   .     S
C339   O379    1.283   .     A
C340   C1493   1.163   1_554 S
C341   C916    1.163   .     S
C342   O382    1.383   .     S
C343   O372    1.384   .     S
C343   C194    1.383   1_655 S
C344   O373    1.384   .     S
C344   C214    1.384   1_655 S
H360   C201    1.116   1_655 S
H363   C522    1.109   .     S
N369   Zn383   2.029   .     S
N370   Zn384   2.029   .     S
O371   Zn383   2.018   .     S
O375   Zn384   2.018   .     S
O376   Zn383   2.023   .     S
O377   Zn384   2.023   .     S
O378   Zn383   1.943   .     S
O379   Zn384   1.943   .     S
O380   Zn383   1.943   .     S
O381   Zn384   1.943   .     S
C385   O441    1.298   .     A
C385   C388    1.441   .     S
C385   O435    1.292   .     A
C386   C388    1.413   .     A
C386   O438    1.384   .     S
C386   C535    1.383   1_455 S
C387   C407    1.410   .     A
C387   C408    1.398   .     A
C387   C396    1.436   .     S
C388   C406    1.405   .     A
C389   Cl409   1.749   .     S
C389   N434    1.374   .     A
C390   Cl410   1.761   .     S
C390   N433    1.370   .     A
C390   C7      1.424   1_565 S
C391   Cl411   1.756   .     S
C391   N434    1.374   .     A
C392   Cl412   1.760   .     S
C392   N433    1.368   .     A
C392   C5      1.422   1_565 S
C393   C394    1.516   .     S
C393   H413    1.110   .     S
C393   O446    1.419   .     S
C393   H552    1.116   1_455 S
C394   H426    1.110   .     S
C394   H428    1.103   .     S
C395   H429    1.116   .     S
C395   C397    1.522   .     S
C395   H430    1.112   .     S
C395   O436    1.414   .     S
C396   O440    1.289   .     A
C396   O439    1.299   .     A
C397   H432    1.111   .     S
C397   H414    1.109   .     S
C397   H431    1.110   .     S
C398   H415    1.109   .     S
C398   O437    1.423   .     S
C398   C399    1.521   .     S
C398   H480    1.118   .     S
C399   H419    1.111   .     S
C399   H417    1.109   .     S
C399   H482    1.108   .     S
C400   H421    1.111   .     S
C400   H420    1.118   .     S
C400   O438    1.417   .     S
C400   C401    1.523   .     S
C401   H422    1.108   .     S
C401   H425    1.109   .     S
C401   H423    1.111   .     S
C402   O445    1.283   .     A
C402   O442    1.283   .     A
C402   C404    1.362   .     S
C403   O444    1.283   .     A
C403   C405    1.362   .     S
C403   O443    1.283   .     A
C404   C1557   1.163   1_554 S
C405   C980    1.163   .     S
C406   O446    1.383   .     S
C406   C536    1.384   1_455 S
C407   O436    1.384   .     S
C407   C450    1.383   .     S
C408   O437    1.384   .     S
C408   C470    1.384   .     S
H416   C526    1.118   1_455 S
H418   C527    1.108   1_455 S
H424   C457    1.116   .     S
H427   C10     1.109   1_565 S
N433   Zn447   2.029   .     S
N434   Zn448   2.029   .     S
O435   Zn447   2.018   .     S
O439   Zn448   2.018   .     S
O440   Zn447   2.023   .     S
O441   Zn448   2.023   .     S
O442   Zn447   1.943   .     S
O443   Zn448   1.943   .     S
O444   Zn447   1.943   .     S
O445   Zn448   1.943   .     S
C449   O505    1.298   .     A
C449   C452    1.441   .     S
C449   O499    1.292   .     A
C450   C452    1.413   .     A
C450   O502    1.384   .     S
C451   C471    1.410   .     A
C451   C472    1.398   .     A
C451   C460    1.436   .     S
C452   C470    1.405   .     A
C453   Cl473   1.749   .     S
C453   N498    1.374   .     A
C454   Cl474   1.761   .     S
C454   N497    1.370   .     A
C454   C71     1.424   1_565 S
C455   Cl475   1.756   .     S
C455   N498    1.374   .     A
C456   Cl476   1.760   .     S
C456   N497    1.368   .     A
C456   C69     1.422   1_565 S
C457   C458    1.516   .     S
C457   H477    1.110   .     S
C457   O510    1.419   .     S
C458   H490    1.110   .     S
C458   H492    1.103   .     S
C459   H493    1.116   .     S
C459   C461    1.522   .     S
C459   H494    1.112   .     S
C459   O500    1.414   .     S
C460   O504    1.289   .     A
C460   O503    1.299   .     A
C461   H496    1.111   .     S
C461   H478    1.109   .     S
C461   H495    1.110   .     S
C462   H479    1.109   .     S
C462   O501    1.423   .     S
C462   C463    1.521   .     S
C462   H544    1.118   .     S
C463   H483    1.111   .     S
C463   H481    1.109   .     S
C463   H546    1.108   .     S
C464   H485    1.111   .     S
C464   H484    1.118   .     S
C464   O502    1.417   .     S
C464   C465    1.523   .     S
C465   H486    1.108   .     S
C465   H489    1.109   .     S
C465   H487    1.111   .     S
C466   O509    1.283   .     A
C466   O506    1.283   .     A
C466   C468    1.362   .     S
C467   O508    1.283   .     A
C467   C469    1.362   .     S
C467   O507    1.283   .     A
C468   C1621   1.163   1_554 S
C469   C1044   1.163   .     S
C470   O510    1.383   .     S
C471   O500    1.384   .     S
C471   C514    1.383   .     S
C472   O501    1.384   .     S
C472   C534    1.384   .     S
H488   C521    1.116   .     S
H491   C74     1.109   1_565 S
N497   Zn511   2.029   .     S
N498   Zn512   2.029   .     S
O499   Zn511   2.018   .     S
O503   Zn512   2.018   .     S
O504   Zn511   2.023   .     S
O505   Zn512   2.023   .     S
O506   Zn511   1.943   .     S
O507   Zn512   1.943   .     S
O508   Zn511   1.943   .     S
O509   Zn512   1.943   .     S
C513   O569    1.298   .     A
C513   C516    1.441   .     S
C513   O563    1.292   .     A
C514   C516    1.413   .     A
C514   O566    1.384   .     S
C515   C535    1.410   .     A
C515   C536    1.398   .     A
C515   C524    1.436   .     S
C516   C534    1.405   .     A
C517   Cl537   1.749   .     S
C517   N562    1.374   .     A
C518   Cl538   1.761   .     S
C518   N561    1.370   .     A
C518   C135    1.424   1_565 S
C519   Cl539   1.756   .     S
C519   N562    1.374   .     A
C520   Cl540   1.760   .     S
C520   N561    1.368   .     A
C520   C133    1.422   1_565 S
C521   C522    1.516   .     S
C521   H541    1.110   .     S
C521   O574    1.419   .     S
C522   H554    1.110   .     S
C522   H556    1.103   .     S
C523   H557    1.116   .     S
C523   C525    1.522   .     S
C523   H558    1.112   .     S
C523   O564    1.414   .     S
C524   O568    1.289   .     A
C524   O567    1.299   .     A
C525   H560    1.111   .     S
C525   H542    1.109   .     S
C525   H559    1.110   .     S
C526   H543    1.109   .     S
C526   O565    1.423   .     S
C526   C527    1.521   .     S
C526   H416    1.118   1_655 S
C527   H547    1.111   .     S
C527   H545    1.109   .     S
C527   H418    1.108   1_655 S
C528   H549    1.111   .     S
C528   H548    1.118   .     S
C528   O566    1.417   .     S
C528   C529    1.523   .     S
C529   H550    1.108   .     S
C529   H553    1.109   .     S
C529   H551    1.111   .     S
C530   O573    1.283   .     A
C530   O570    1.283   .     A
C530   C532    1.362   .     S
C531   O572    1.283   .     A
C531   C533    1.362   .     S
C531   O571    1.283   .     A
C532   C1685   1.163   1_554 S
C533   C1108   1.163   .     S
C534   O574    1.383   .     S
C535   O564    1.384   .     S
C535   C386    1.383   1_655 S
C536   O565    1.384   .     S
C536   C406    1.384   1_655 S
H552   C393    1.116   1_655 S
H555   C138    1.109   1_565 S
N561   Zn575   2.029   .     S
N562   Zn576   2.029   .     S
O563   Zn575   2.018   .     S
O567   Zn576   2.018   .     S
O568   Zn575   2.023   .     S
O569   Zn576   2.023   .     S
O570   Zn575   1.943   .     S
O571   Zn576   1.943   .     S
O572   Zn575   1.943   .     S
O573   Zn576   1.943   .     S
C577   O633    1.298   .     A
C577   C580    1.441   .     S
C577   O627    1.292   .     A
C578   C580    1.413   .     A
C578   O630    1.384   .     S
C578   C727    1.383   1_455 S
C579   C599    1.410   .     A
C579   C600    1.398   .     A
C579   C588    1.436   .     S
C580   C598    1.405   .     A
C581   Cl601   1.749   .     S
C581   N626    1.374   .     A
C581   C968    1.422   1_545 S
C582   Cl602   1.761   .     S
C582   N625    1.370   .     A
C582   C775    1.424   .     S
C583   Cl603   1.756   .     S
C583   N626    1.374   .     A
C583   C966    1.424   1_545 S
C584   Cl604   1.760   .     S
C584   N625    1.368   .     A
C584   C773    1.422   .     S
C585   C586    1.516   .     S
C585   H605    1.110   .     S
C585   O638    1.419   .     S
C585   H744    1.116   1_455 S
C586   H618    1.110   .     S
C586   H620    1.103   .     S
C586   H1003   1.109   1_545 S
C587   H621    1.116   .     S
C587   C589    1.522   .     S
C587   H622    1.112   .     S
C587   O628    1.414   .     S
C588   O632    1.289   .     A
C588   O631    1.299   .     A
C589   H624    1.111   .     S
C589   H606    1.109   .     S
C589   H623    1.110   .     S
C590   H607    1.109   .     S
C590   O629    1.423   .     S
C590   C591    1.521   .     S
C590   H672    1.118   .     S
C591   H611    1.111   .     S
C591   H609    1.109   .     S
C591   H674    1.108   .     S
C592   H613    1.111   .     S
C592   H612    1.118   .     S
C592   O630    1.417   .     S
C592   C593    1.523   .     S
C593   H614    1.108   .     S
C593   H617    1.109   .     S
C593   H615    1.111   .     S
C594   O637    1.283   .     A
C594   O634    1.283   .     A
C594   C596    1.362   .     S
C595   O636    1.283   .     A
C595   C597    1.362   .     S
C595   O635    1.283   .     A
C597   C1172   1.163   .     S
C598   O638    1.383   .     S
C598   C728    1.384   1_455 S
C599   O628    1.384   .     S
C599   C642    1.383   .     S
C600   O629    1.384   .     S
C600   C662    1.384   .     S
H608   C718    1.118   1_455 S
H610   C719    1.108   1_455 S
H616   C649    1.116   .     S
H619   C778    1.109   .     S
N625   Zn639   2.029   .     S
N626   Zn640   2.029   .     S
O627   Zn639   2.018   .     S
O631   Zn640   2.018   .     S
O632   Zn639   2.023   .     S
O633   Zn640   2.023   .     S
O634   Zn639   1.943   .     S
O635   Zn640   1.943   .     S
O636   Zn639   1.943   .     S
O637   Zn640   1.943   .     S
C641   O697    1.298   .     A
C641   C644    1.441   .     S
C641   O691    1.292   .     A
C642   C644    1.413   .     A
C642   O694    1.384   .     S
C643   C663    1.410   .     A
C643   C664    1.398   .     A
C643   C652    1.436   .     S
C644   C662    1.405   .     A
C645   Cl665   1.749   .     S
C645   N690    1.374   .     A
C645   C1032   1.422   1_545 S
C646   Cl666   1.761   .     S
C646   N689    1.370   .     A
C646   C839    1.424   .     S
C647   Cl667   1.756   .     S
C647   N690    1.374   .     A
C647   C1030   1.424   1_545 S
C648   Cl668   1.760   .     S
C648   N689    1.368   .     A
C648   C837    1.422   .     S
C649   C650    1.516   .     S
C649   H669    1.110   .     S
C649   O702    1.419   .     S
C650   H682    1.110   .     S
C650   H684    1.103   .     S
C650   H1067   1.109   1_545 S
C651   H685    1.116   .     S
C651   C653    1.522   .     S
C651   H686    1.112   .     S
C651   O692    1.414   .     S
C652   O696    1.289   .     A
C652   O695    1.299   .     A
C653   H688    1.111   .     S
C653   H670    1.109   .     S
C653   H687    1.110   .     S
C654   H671    1.109   .     S
C654   O693    1.423   .     S
C654   C655    1.521   .     S
C654   H736    1.118   .     S
C655   H675    1.111   .     S
C655   H673    1.109   .     S
C655   H738    1.108   .     S
C656   H677    1.111   .     S
C656   H676    1.118   .     S
C656   O694    1.417   .     S
C656   C657    1.523   .     S
C657   H678    1.108   .     S
C657   H681    1.109   .     S
C657   H679    1.111   .     S
C658   O701    1.283   .     A
C658   O698    1.283   .     A
C658   C660    1.362   .     S
C659   O700    1.283   .     A
C659   C661    1.362   .     S
C659   O699    1.283   .     A
C661   C1236   1.163   .     S
C662   O702    1.383   .     S
C663   O692    1.384   .     S
C663   C706    1.383   .     S
C664   O693    1.384   .     S
C664   C726    1.384   .     S
H680   C713    1.116   .     S
H683   C842    1.109   .     S
N689   Zn703   2.029   .     S
N690   Zn704   2.029   .     S
O691   Zn703   2.018   .     S
O695   Zn704   2.018   .     S
O696   Zn703   2.023   .     S
O697   Zn704   2.023   .     S
O698   Zn703   1.943   .     S
O699   Zn704   1.943   .     S
O700   Zn703   1.943   .     S
O701   Zn704   1.943   .     S
C705   O761    1.298   .     A
C705   C708    1.441   .     S
C705   O755    1.292   .     A
C706   C708    1.413   .     A
C706   O758    1.384   .     S
C707   C727    1.410   .     A
C707   C728    1.398   .     A
C707   C716    1.436   .     S
C708   C726    1.405   .     A
C709   Cl729   1.749   .     S
C709   N754    1.374   .     A
C709   C1096   1.422   1_545 S
C710   Cl730   1.761   .     S
C710   N753    1.370   .     A
C710   C903    1.424   .     S
C711   Cl731   1.756   .     S
C711   N754    1.374   .     A
C711   C1094   1.424   1_545 S
C712   Cl732   1.760   .     S
C712   N753    1.368   .     A
C712   C901    1.422   .     S
C713   C714    1.516   .     S
C713   H733    1.110   .     S
C713   O766    1.419   .     S
C714   H746    1.110   .     S
C714   H748    1.103   .     S
C714   H1131   1.109   1_545 S
C715   H749    1.116   .     S
C715   C717    1.522   .     S
C715   H750    1.112   .     S
C715   O756    1.414   .     S
C716   O760    1.289   .     A
C716   O759    1.299   .     A
C717   H752    1.111   .     S
C717   H734    1.109   .     S
C717   H751    1.110   .     S
C718   H735    1.109   .     S
C718   O757    1.423   .     S
C718   C719    1.521   .     S
C718   H608    1.118   1_655 S
C719   H739    1.111   .     S
C719   H737    1.109   .     S
C719   H610    1.108   1_655 S
C720   H741    1.111   .     S
C720   H740    1.118   .     S
C720   O758    1.417   .     S
C720   C721    1.523   .     S
C721   H742    1.108   .     S
C721   H745    1.109   .     S
C721   H743    1.111   .     S
C722   O765    1.283   .     A
C722   O762    1.283   .     A
C722   C724    1.362   .     S
C723   O764    1.283   .     A
C723   C725    1.362   .     S
C723   O763    1.283   .     A
C725   C1300   1.163   .     S
C726   O766    1.383   .     S
C727   O756    1.384   .     S
C727   C578    1.383   1_655 S
C728   O757    1.384   .     S
C728   C598    1.384   1_655 S
H744   C585    1.116   1_655 S
H747   C906    1.109   .     S
N753   Zn767   2.029   .     S
N754   Zn768   2.029   .     S
O755   Zn767   2.018   .     S
O759   Zn768   2.018   .     S
O760   Zn767   2.023   .     S
O761   Zn768   2.023   .     S
O762   Zn767   1.943   .     S
O763   Zn768   1.943   .     S
O764   Zn767   1.943   .     S
O765   Zn768   1.943   .     S
C769   O825    1.298   .     A
C769   C772    1.441   .     S
C769   O819    1.292   .     A
C770   C772    1.413   .     A
C770   O822    1.384   .     S
C770   C919    1.383   1_455 S
C771   C791    1.410   .     A
C771   C792    1.398   .     A
C771   C780    1.436   .     S
C772   C790    1.405   .     A
C773   Cl793   1.749   .     S
C773   N818    1.374   .     A
C774   Cl794   1.761   .     S
C774   N817    1.370   .     A
C774   C967    1.424   .     S
C775   Cl795   1.756   .     S
C775   N818    1.374   .     A
C776   Cl796   1.760   .     S
C776   N817    1.368   .     A
C776   C965    1.422   .     S
C777   C778    1.516   .     S
C777   H797    1.110   .     S
C777   O830    1.419   .     S
C777   H936    1.116   1_455 S
C778   H810    1.110   .     S
C778   H812    1.103   .     S
C779   H813    1.116   .     S
C779   C781    1.522   .     S
C779   H814    1.112   .     S
C779   O820    1.414   .     S
C780   O824    1.289   .     A
C780   O823    1.299   .     A
C781   H816    1.111   .     S
C781   H798    1.109   .     S
C781   H815    1.110   .     S
C782   H799    1.109   .     S
C782   O821    1.423   .     S
C782   C783    1.521   .     S
C782   H864    1.118   .     S
C783   H803    1.111   .     S
C783   H801    1.109   .     S
C783   H866    1.108   .     S
C784   H805    1.111   .     S
C784   H804    1.118   .     S
C784   O822    1.417   .     S
C784   C785    1.523   .     S
C785   H806    1.108   .     S
C785   H809    1.109   .     S
C785   H807    1.111   .     S
C786   O829    1.283   .     A
C786   O826    1.283   .     A
C786   C788    1.362   .     S
C787   O828    1.283   .     A
C787   C789    1.362   .     S
C787   O827    1.283   .     A
C789   C1364   1.163   .     S
C790   O830    1.383   .     S
C790   C920    1.384   1_455 S
C791   O820    1.384   .     S
C791   C834    1.383   .     S
C792   O821    1.384   .     S
C792   C854    1.384   .     S
H800   C910    1.118   1_455 S
H802   C911    1.108   1_455 S
H808   C841    1.116   .     S
H811   C970    1.109   .     S
N817   Zn831   2.029   .     S
N818   Zn832   2.029   .     S
O819   Zn831   2.018   .     S
O823   Zn832   2.018   .     S
O824   Zn831   2.023   .     S
O825   Zn832   2.023   .     S
O826   Zn831   1.943   .     S
O827   Zn832   1.943   .     S
O828   Zn831   1.943   .     S
O829   Zn832   1.943   .     S
C833   O889    1.298   .     A
C833   C836    1.441   .     S
C833   O883    1.292   .     A
C834   C836    1.413   .     A
C834   O886    1.384   .     S
C835   C855    1.410   .     A
C835   C856    1.398   .     A
C835   C844    1.436   .     S
C836   C854    1.405   .     A
C837   Cl857   1.749   .     S
C837   N882    1.374   .     A
C838   Cl858   1.761   .     S
C838   N881    1.370   .     A
C838   C1031   1.424   .     S
C839   Cl859   1.756   .     S
C839   N882    1.374   .     A
C840   Cl860   1.760   .     S
C840   N881    1.368   .     A
C840   C1029   1.422   .     S
C841   C842    1.516   .     S
C841   H861    1.110   .     S
C841   O894    1.419   .     S
C842   H874    1.110   .     S
C842   H876    1.103   .     S
C843   H877    1.116   .     S
C843   C845    1.522   .     S
C843   H878    1.112   .     S
C843   O884    1.414   .     S
C844   O888    1.289   .     A
C844   O887    1.299   .     A
C845   H880    1.111   .     S
C845   H862    1.109   .     S
C845   H879    1.110   .     S
C846   H863    1.109   .     S
C846   O885    1.423   .     S
C846   C847    1.521   .     S
C846   H928    1.118   .     S
C847   H867    1.111   .     S
C847   H865    1.109   .     S
C847   H930    1.108   .     S
C848   H869    1.111   .     S
C848   H868    1.118   .     S
C848   O886    1.417   .     S
C848   C849    1.523   .     S
C849   H870    1.108   .     S
C849   H873    1.109   .     S
C849   H871    1.111   .     S
C850   O893    1.283   .     A
C850   O890    1.283   .     A
C850   C852    1.362   .     S
C851   O892    1.283   .     A
C851   C853    1.362   .     S
C851   O891    1.283   .     A
C853   C1428   1.163   .     S
C854   O894    1.383   .     S
C855   O884    1.384   .     S
C855   C898    1.383   .     S
C856   O885    1.384   .     S
C856   C918    1.384   .     S
H872   C905    1.116   .     S
H875   C1034   1.109   .     S
N881   Zn895   2.029   .     S
N882   Zn896   2.029   .     S
O883   Zn895   2.018   .     S
O887   Zn896   2.018   .     S
O888   Zn895   2.023   .     S
O889   Zn896   2.023   .     S
O890   Zn895   1.943   .     S
O891   Zn896   1.943   .     S
O892   Zn895   1.943   .     S
O893   Zn896   1.943   .     S
C897   O953    1.298   .     A
C897   C900    1.441   .     S
C897   O947    1.292   .     A
C898   C900    1.413   .     A
C898   O950    1.384   .     S
C899   C919    1.410   .     A
C899   C920    1.398   .     A
C899   C908    1.436   .     S
C900   C918    1.405   .     A
C901   Cl921   1.749   .     S
C901   N946    1.374   .     A
C902   Cl922   1.761   .     S
C902   N945    1.370   .     A
C902   C1095   1.424   .     S
C903   Cl923   1.756   .     S
C903   N946    1.374   .     A
C904   Cl924   1.760   .     S
C904   N945    1.368   .     A
C904   C1093   1.422   .     S
C905   C906    1.516   .     S
C905   H925    1.110   .     S
C905   O958    1.419   .     S
C906   H938    1.110   .     S
C906   H940    1.103   .     S
C907   H941    1.116   .     S
C907   C909    1.522   .     S
C907   H942    1.112   .     S
C907   O948    1.414   .     S
C908   O952    1.289   .     A
C908   O951    1.299   .     A
C909   H944    1.111   .     S
C909   H926    1.109   .     S
C909   H943    1.110   .     S
C910   H927    1.109   .     S
C910   O949    1.423   .     S
C910   C911    1.521   .     S
C910   H800    1.118   1_655 S
C911   H931    1.111   .     S
C911   H929    1.109   .     S
C911   H802    1.108   1_655 S
C912   H933    1.111   .     S
C912   H932    1.118   .     S
C912   O950    1.417   .     S
C912   C913    1.523   .     S
C913   H934    1.108   .     S
C913   H937    1.109   .     S
C913   H935    1.111   .     S
C914   O957    1.283   .     A
C914   O954    1.283   .     A
C914   C916    1.362   .     S
C915   O956    1.283   .     A
C915   C917    1.362   .     S
C915   O955    1.283   .     A
C917   C1492   1.163   .     S
C918   O958    1.383   .     S
C919   O948    1.384   .     S
C919   C770    1.383   1_655 S
C920   O949    1.384   .     S
C920   C790    1.384   1_655 S
H936   C777    1.116   1_655 S
H939   C1098   1.109   .     S
N945   Zn959   2.029   .     S
N946   Zn960   2.029   .     S
O947   Zn959   2.018   .     S
O951   Zn960   2.018   .     S
O952   Zn959   2.023   .     S
O953   Zn960   2.023   .     S
O954   Zn959   1.943   .     S
O955   Zn960   1.943   .     S
O956   Zn959   1.943   .     S
O957   Zn960   1.943   .     S
C961   O1017   1.298   .     A
C961   C964    1.441   .     S
C961   O1011   1.292   .     A
C962   C964    1.413   .     A
C962   O1014   1.384   .     S
C962   C1111   1.383   1_455 S
C963   C983    1.410   .     A
C963   C984    1.398   .     A
C963   C972    1.436   .     S
C964   C982    1.405   .     A
C965   Cl985   1.749   .     S
C965   N1010   1.374   .     A
C966   Cl986   1.761   .     S
C966   N1009   1.370   .     A
C966   C583    1.424   1_565 S
C967   Cl987   1.756   .     S
C967   N1010   1.374   .     A
C968   Cl988   1.760   .     S
C968   N1009   1.368   .     A
C968   C581    1.422   1_565 S
C969   C970    1.516   .     S
C969   H989    1.110   .     S
C969   O1022   1.419   .     S
C969   H1128   1.116   1_455 S
C970   H1002   1.110   .     S
C970   H1004   1.103   .     S
C971   H1005   1.116   .     S
C971   C973    1.522   .     S
C971   H1006   1.112   .     S
C971   O1012   1.414   .     S
C972   O1016   1.289   .     A
C972   O1015   1.299   .     A
C973   H1008   1.111   .     S
C973   H990    1.109   .     S
C973   H1007   1.110   .     S
C974   H991    1.109   .     S
C974   O1013   1.423   .     S
C974   C975    1.521   .     S
C974   H1056   1.118   .     S
C975   H995    1.111   .     S
C975   H993    1.109   .     S
C975   H1058   1.108   .     S
C976   H997    1.111   .     S
C976   H996    1.118   .     S
C976   O1014   1.417   .     S
C976   C977    1.523   .     S
C977   H998    1.108   .     S
C977   H1001   1.109   .     S
C977   H999    1.111   .     S
C978   O1021   1.283   .     A
C978   O1018   1.283   .     A
C978   C980    1.362   .     S
C979   O1020   1.283   .     A
C979   C981    1.362   .     S
C979   O1019   1.283   .     A
C981   C1556   1.163   .     S
C982   O1022   1.383   .     S
C982   C1112   1.384   1_455 S
C983   O1012   1.384   .     S
C983   C1026   1.383   .     S
C984   O1013   1.384   .     S
C984   C1046   1.384   .     S
H992   C1102   1.118   1_455 S
H994   C1103   1.108   1_455 S
H1000  C1033   1.116   .     S
H1003  C586    1.109   1_565 S
N1009  Zn1023  2.029   .     S
N1010  Zn1024  2.029   .     S
O1011  Zn1023  2.018   .     S
O1015  Zn1024  2.018   .     S
O1016  Zn1023  2.023   .     S
O1017  Zn1024  2.023   .     S
O1018  Zn1023  1.943   .     S
O1019  Zn1024  1.943   .     S
O1020  Zn1023  1.943   .     S
O1021  Zn1024  1.943   .     S
C1025  O1081   1.298   .     A
C1025  C1028   1.441   .     S
C1025  O1075   1.292   .     A
C1026  C1028   1.413   .     A
C1026  O1078   1.384   .     S
C1027  C1047   1.410   .     A
C1027  C1048   1.398   .     A
C1027  C1036   1.436   .     S
C1028  C1046   1.405   .     A
C1029  Cl1049  1.749   .     S
C1029  N1074   1.374   .     A
C1030  Cl1050  1.761   .     S
C1030  N1073   1.370   .     A
C1030  C647    1.424   1_565 S
C1031  Cl1051  1.756   .     S
C1031  N1074   1.374   .     A
C1032  Cl1052  1.760   .     S
C1032  N1073   1.368   .     A
C1032  C645    1.422   1_565 S
C1033  C1034   1.516   .     S
C1033  H1053   1.110   .     S
C1033  O1086   1.419   .     S
C1034  H1066   1.110   .     S
C1034  H1068   1.103   .     S
C1035  H1069   1.116   .     S
C1035  C1037   1.522   .     S
C1035  H1070   1.112   .     S
C1035  O1076   1.414   .     S
C1036  O1080   1.289   .     A
C1036  O1079   1.299   .     A
C1037  H1072   1.111   .     S
C1037  H1054   1.109   .     S
C1037  H1071   1.110   .     S
C1038  H1055   1.109   .     S
C1038  O1077   1.423   .     S
C1038  C1039   1.521   .     S
C1038  H1120   1.118   .     S
C1039  H1059   1.111   .     S
C1039  H1057   1.109   .     S
C1039  H1122   1.108   .     S
C1040  H1061   1.111   .     S
C1040  H1060   1.118   .     S
C1040  O1078   1.417   .     S
C1040  C1041   1.523   .     S
C1041  H1062   1.108   .     S
C1041  H1065   1.109   .     S
C1041  H1063   1.111   .     S
C1042  O1085   1.283   .     A
C1042  O1082   1.283   .     A
C1042  C1044   1.362   .     S
C1043  O1084   1.283   .     A
C1043  C1045   1.362   .     S
C1043  O1083   1.283   .     A
C1045  C1620   1.163   .     S
C1046  O1086   1.383   .     S
C1047  O1076   1.384   .     S
C1047  C1090   1.383   .     S
C1048  O1077   1.384   .     S
C1048  C1110   1.384   .     S
H1064  C1097   1.116   .     S
H1067  C650    1.109   1_565 S
N1073  Zn1087  2.029   .     S
N1074  Zn1088  2.029   .     S
O1075  Zn1087  2.018   .     S
O1079  Zn1088  2.018   .     S
O1080  Zn1087  2.023   .     S
O1081  Zn1088  2.023   .     S
O1082  Zn1087  1.943   .     S
O1083  Zn1088  1.943   .     S
O1084  Zn1087  1.943   .     S
O1085  Zn1088  1.943   .     S
C1089  O1145   1.298   .     A
C1089  C1092   1.441   .     S
C1089  O1139   1.292   .     A
C1090  C1092   1.413   .     A
C1090  O1142   1.384   .     S
C1091  C1111   1.410   .     A
C1091  C1112   1.398   .     A
C1091  C1100   1.436   .     S
C1092  C1110   1.405   .     A
C1093  Cl1113  1.749   .     S
C1093  N1138   1.374   .     A
C1094  Cl1114  1.761   .     S
C1094  N1137   1.370   .     A
C1094  C711    1.424   1_565 S
C1095  Cl1115  1.756   .     S
C1095  N1138   1.374   .     A
C1096  Cl1116  1.760   .     S
C1096  N1137   1.368   .     A
C1096  C709    1.422   1_565 S
C1097  C1098   1.516   .     S
C1097  H1117   1.110   .     S
C1097  O1150   1.419   .     S
C1098  H1130   1.110   .     S
C1098  H1132   1.103   .     S
C1099  H1133   1.116   .     S
C1099  C1101   1.522   .     S
C1099  H1134   1.112   .     S
C1099  O1140   1.414   .     S
C1100  O1144   1.289   .     A
C1100  O1143   1.299   .     A
C1101  H1136   1.111   .     S
C1101  H1118   1.109   .     S
C1101  H1135   1.110   .     S
C1102  H1119   1.109   .     S
C1102  O1141   1.423   .     S
C1102  C1103   1.521   .     S
C1102  H992    1.118   1_655 S
C1103  H1123   1.111   .     S
C1103  H1121   1.109   .     S
C1103  H994    1.108   1_655 S
C1104  H1125   1.111   .     S
C1104  H1124   1.118   .     S
C1104  O1142   1.417   .     S
C1104  C1105   1.523   .     S
C1105  H1126   1.108   .     S
C1105  H1129   1.109   .     S
C1105  H1127   1.111   .     S
C1106  O1149   1.283   .     A
C1106  O1146   1.283   .     A
C1106  C1108   1.362   .     S
C1107  O1148   1.283   .     A
C1107  C1109   1.362   .     S
C1107  O1147   1.283   .     A
C1109  C1684   1.163   .     S
C1110  O1150   1.383   .     S
C1111  O1140   1.384   .     S
C1111  C962    1.383   1_655 S
C1112  O1141   1.384   .     S
C1112  C982    1.384   1_655 S
H1128  C969    1.116   1_655 S
H1131  C714    1.109   1_565 S
N1137  Zn1151  2.029   .     S
N1138  Zn1152  2.029   .     S
O1139  Zn1151  2.018   .     S
O1143  Zn1152  2.018   .     S
O1144  Zn1151  2.023   .     S
O1145  Zn1152  2.023   .     S
O1146  Zn1151  1.943   .     S
O1147  Zn1152  1.943   .     S
O1148  Zn1151  1.943   .     S
O1149  Zn1152  1.943   .     S
C1153  O1209   1.298   .     A
C1153  C1156   1.441   .     S
C1153  O1203   1.292   .     A
C1154  C1156   1.413   .     A
C1154  O1206   1.384   .     S
C1154  C1303   1.383   1_455 S
C1155  C1175   1.410   .     A
C1155  C1176   1.398   .     A
C1155  C1164   1.436   .     S
C1156  C1174   1.405   .     A
C1157  Cl1177  1.749   .     S
C1157  N1202   1.374   .     A
C1157  C1544   1.422   1_545 S
C1158  Cl1178  1.761   .     S
C1158  N1201   1.370   .     A
C1158  C1351   1.424   .     S
C1159  Cl1179  1.756   .     S
C1159  N1202   1.374   .     A
C1159  C1542   1.424   1_545 S
C1160  Cl1180  1.760   .     S
C1160  N1201   1.368   .     A
C1160  C1349   1.422   .     S
C1161  C1162   1.516   .     S
C1161  H1181   1.110   .     S
C1161  O1214   1.419   .     S
C1161  H1320   1.116   1_455 S
C1162  H1194   1.110   .     S
C1162  H1196   1.103   .     S
C1162  H1579   1.109   1_545 S
C1163  H1197   1.116   .     S
C1163  C1165   1.522   .     S
C1163  H1198   1.112   .     S
C1163  O1204   1.414   .     S
C1164  O1208   1.289   .     A
C1164  O1207   1.299   .     A
C1165  H1200   1.111   .     S
C1165  H1182   1.109   .     S
C1165  H1199   1.110   .     S
C1166  H1183   1.109   .     S
C1166  O1205   1.423   .     S
C1166  C1167   1.521   .     S
C1166  H1248   1.118   .     S
C1167  H1187   1.111   .     S
C1167  H1185   1.109   .     S
C1167  H1250   1.108   .     S
C1168  H1189   1.111   .     S
C1168  H1188   1.118   .     S
C1168  O1206   1.417   .     S
C1168  C1169   1.523   .     S
C1169  H1190   1.108   .     S
C1169  H1193   1.109   .     S
C1169  H1191   1.111   .     S
C1170  O1213   1.283   .     A
C1170  O1210   1.283   .     A
C1170  C1172   1.362   .     S
C1171  O1212   1.283   .     A
C1171  C1173   1.362   .     S
C1171  O1211   1.283   .     A
C1173  C20     1.163   1_556 S
C1174  O1214   1.383   .     S
C1174  C1304   1.384   1_455 S
C1175  O1204   1.384   .     S
C1175  C1218   1.383   .     S
C1176  O1205   1.384   .     S
C1176  C1238   1.384   .     S
H1184  C1294   1.118   1_455 S
H1186  C1295   1.108   1_455 S
H1192  C1225   1.116   .     S
H1195  C1354   1.109   .     S
N1201  Zn1215  2.029   .     S
N1202  Zn1216  2.029   .     S
O1203  Zn1215  2.018   .     S
O1207  Zn1216  2.018   .     S
O1208  Zn1215  2.023   .     S
O1209  Zn1216  2.023   .     S
O1210  Zn1215  1.943   .     S
O1211  Zn1216  1.943   .     S
O1212  Zn1215  1.943   .     S
O1213  Zn1216  1.943   .     S
C1217  O1273   1.298   .     A
C1217  C1220   1.441   .     S
C1217  O1267   1.292   .     A
C1218  C1220   1.413   .     A
C1218  O1270   1.384   .     S
C1219  C1239   1.410   .     A
C1219  C1240   1.398   .     A
C1219  C1228   1.436   .     S
C1220  C1238   1.405   .     A
C1221  Cl1241  1.749   .     S
C1221  N1266   1.374   .     A
C1221  C1608   1.422   1_545 S
C1222  Cl1242  1.761   .     S
C1222  N1265   1.370   .     A
C1222  C1415   1.424   .     S
C1223  Cl1243  1.756   .     S
C1223  N1266   1.374   .     A
C1223  C1606   1.424   1_545 S
C1224  Cl1244  1.760   .     S
C1224  N1265   1.368   .     A
C1224  C1413   1.422   .     S
C1225  C1226   1.516   .     S
C1225  H1245   1.110   .     S
C1225  O1278   1.419   .     S
C1226  H1258   1.110   .     S
C1226  H1260   1.103   .     S
C1226  H1643   1.109   1_545 S
C1227  H1261   1.116   .     S
C1227  C1229   1.522   .     S
C1227  H1262   1.112   .     S
C1227  O1268   1.414   .     S
C1228  O1272   1.289   .     A
C1228  O1271   1.299   .     A
C1229  H1264   1.111   .     S
C1229  H1246   1.109   .     S
C1229  H1263   1.110   .     S
C1230  H1247   1.109   .     S
C1230  O1269   1.423   .     S
C1230  C1231   1.521   .     S
C1230  H1312   1.118   .     S
C1231  H1251   1.111   .     S
C1231  H1249   1.109   .     S
C1231  H1314   1.108   .     S
C1232  H1253   1.111   .     S
C1232  H1252   1.118   .     S
C1232  O1270   1.417   .     S
C1232  C1233   1.523   .     S
C1233  H1254   1.108   .     S
C1233  H1257   1.109   .     S
C1233  H1255   1.111   .     S
C1234  O1277   1.283   .     A
C1234  O1274   1.283   .     A
C1234  C1236   1.362   .     S
C1235  O1276   1.283   .     A
C1235  C1237   1.362   .     S
C1235  O1275   1.283   .     A
C1237  C84     1.163   1_556 S
C1238  O1278   1.383   .     S
C1239  O1268   1.384   .     S
C1239  C1282   1.383   .     S
C1240  O1269   1.384   .     S
C1240  C1302   1.384   .     S
H1256  C1289   1.116   .     S
H1259  C1418   1.109   .     S
N1265  Zn1279  2.029   .     S
N1266  Zn1280  2.029   .     S
O1267  Zn1279  2.018   .     S
O1271  Zn1280  2.018   .     S
O1272  Zn1279  2.023   .     S
O1273  Zn1280  2.023   .     S
O1274  Zn1279  1.943   .     S
O1275  Zn1280  1.943   .     S
O1276  Zn1279  1.943   .     S
O1277  Zn1280  1.943   .     S
C1281  O1337   1.298   .     A
C1281  C1284   1.441   .     S
C1281  O1331   1.292   .     A
C1282  C1284   1.413   .     A
C1282  O1334   1.384   .     S
C1283  C1303   1.410   .     A
C1283  C1304   1.398   .     A
C1283  C1292   1.436   .     S
C1284  C1302   1.405   .     A
C1285  Cl1305  1.749   .     S
C1285  N1330   1.374   .     A
C1285  C1672   1.422   1_545 S
C1286  Cl1306  1.761   .     S
C1286  N1329   1.370   .     A
C1286  C1479   1.424   .     S
C1287  Cl1307  1.756   .     S
C1287  N1330   1.374   .     A
C1287  C1670   1.424   1_545 S
C1288  Cl1308  1.760   .     S
C1288  N1329   1.368   .     A
C1288  C1477   1.422   .     S
C1289  C1290   1.516   .     S
C1289  H1309   1.110   .     S
C1289  O1342   1.419   .     S
C1290  H1322   1.110   .     S
C1290  H1324   1.103   .     S
C1290  H1707   1.109   1_545 S
C1291  H1325   1.116   .     S
C1291  C1293   1.522   .     S
C1291  H1326   1.112   .     S
C1291  O1332   1.414   .     S
C1292  O1336   1.289   .     A
C1292  O1335   1.299   .     A
C1293  H1328   1.111   .     S
C1293  H1310   1.109   .     S
C1293  H1327   1.110   .     S
C1294  H1311   1.109   .     S
C1294  O1333   1.423   .     S
C1294  C1295   1.521   .     S
C1294  H1184   1.118   1_655 S
C1295  H1315   1.111   .     S
C1295  H1313   1.109   .     S
C1295  H1186   1.108   1_655 S
C1296  H1317   1.111   .     S
C1296  H1316   1.118   .     S
C1296  O1334   1.417   .     S
C1296  C1297   1.523   .     S
C1297  H1318   1.108   .     S
C1297  H1321   1.109   .     S
C1297  H1319   1.111   .     S
C1298  O1341   1.283   .     A
C1298  O1338   1.283   .     A
C1298  C1300   1.362   .     S
C1299  O1340   1.283   .     A
C1299  C1301   1.362   .     S
C1299  O1339   1.283   .     A
C1301  C148    1.163   1_556 S
C1302  O1342   1.383   .     S
C1303  O1332   1.384   .     S
C1303  C1154   1.383   1_655 S
C1304  O1333   1.384   .     S
C1304  C1174   1.384   1_655 S
H1320  C1161   1.116   1_655 S
H1323  C1482   1.109   .     S
N1329  Zn1343  2.029   .     S
N1330  Zn1344  2.029   .     S
O1331  Zn1343  2.018   .     S
O1335  Zn1344  2.018   .     S
O1336  Zn1343  2.023   .     S
O1337  Zn1344  2.023   .     S
O1338  Zn1343  1.943   .     S
O1339  Zn1344  1.943   .     S
O1340  Zn1343  1.943   .     S
O1341  Zn1344  1.943   .     S
C1345  O1401   1.298   .     A
C1345  C1348   1.441   .     S
C1345  O1395   1.292   .     A
C1346  C1348   1.413   .     A
C1346  O1398   1.384   .     S
C1346  C1495   1.383   1_455 S
C1347  C1367   1.410   .     A
C1347  C1368   1.398   .     A
C1347  C1356   1.436   .     S
C1348  C1366   1.405   .     A
C1349  Cl1369  1.749   .     S
C1349  N1394   1.374   .     A
C1350  Cl1370  1.761   .     S
C1350  N1393   1.370   .     A
C1350  C1543   1.424   .     S
C1351  Cl1371  1.756   .     S
C1351  N1394   1.374   .     A
C1352  Cl1372  1.760   .     S
C1352  N1393   1.368   .     A
C1352  C1541   1.422   .     S
C1353  C1354   1.516   .     S
C1353  H1373   1.110   .     S
C1353  O1406   1.419   .     S
C1353  H1512   1.116   1_455 S
C1354  H1386   1.110   .     S
C1354  H1388   1.103   .     S
C1355  H1389   1.116   .     S
C1355  C1357   1.522   .     S
C1355  H1390   1.112   .     S
C1355  O1396   1.414   .     S
C1356  O1400   1.289   .     A
C1356  O1399   1.299   .     A
C1357  H1392   1.111   .     S
C1357  H1374   1.109   .     S
C1357  H1391   1.110   .     S
C1358  H1375   1.109   .     S
C1358  O1397   1.423   .     S
C1358  C1359   1.521   .     S
C1358  H1440   1.118   .     S
C1359  H1379   1.111   .     S
C1359  H1377   1.109   .     S
C1359  H1442   1.108   .     S
C1360  H1381   1.111   .     S
C1360  H1380   1.118   .     S
C1360  O1398   1.417   .     S
C1360  C1361   1.523   .     S
C1361  H1382   1.108   .     S
C1361  H1385   1.109   .     S
C1361  H1383   1.111   .     S
C1362  O1405   1.283   .     A
C1362  O1402   1.283   .     A
C1362  C1364   1.362   .     S
C1363  O1404   1.283   .     A
C1363  C1365   1.362   .     S
C1363  O1403   1.283   .     A
C1365  C212    1.163   1_556 S
C1366  O1406   1.383   .     S
C1366  C1496   1.384   1_455 S
C1367  O1396   1.384   .     S
C1367  C1410   1.383   .     S
C1368  O1397   1.384   .     S
C1368  C1430   1.384   .     S
H1376  C1486   1.118   1_455 S
H1378  C1487   1.108   1_455 S
H1384  C1417   1.116   .     S
H1387  C1546   1.109   .     S
N1393  Zn1407  2.029   .     S
N1394  Zn1408  2.029   .     S
O1395  Zn1407  2.018   .     S
O1399  Zn1408  2.018   .     S
O1400  Zn1407  2.023   .     S
O1401  Zn1408  2.023   .     S
O1402  Zn1407  1.943   .     S
O1403  Zn1408  1.943   .     S
O1404  Zn1407  1.943   .     S
O1405  Zn1408  1.943   .     S
C1409  O1465   1.298   .     A
C1409  C1412   1.441   .     S
C1409  O1459   1.292   .     A
C1410  C1412   1.413   .     A
C1410  O1462   1.384   .     S
C1411  C1431   1.410   .     A
C1411  C1432   1.398   .     A
C1411  C1420   1.436   .     S
C1412  C1430   1.405   .     A
C1413  Cl1433  1.749   .     S
C1413  N1458   1.374   .     A
C1414  Cl1434  1.761   .     S
C1414  N1457   1.370   .     A
C1414  C1607   1.424   .     S
C1415  Cl1435  1.756   .     S
C1415  N1458   1.374   .     A
C1416  Cl1436  1.760   .     S
C1416  N1457   1.368   .     A
C1416  C1605   1.422   .     S
C1417  C1418   1.516   .     S
C1417  H1437   1.110   .     S
C1417  O1470   1.419   .     S
C1418  H1450   1.110   .     S
C1418  H1452   1.103   .     S
C1419  H1453   1.116   .     S
C1419  C1421   1.522   .     S
C1419  H1454   1.112   .     S
C1419  O1460   1.414   .     S
C1420  O1464   1.289   .     A
C1420  O1463   1.299   .     A
C1421  H1456   1.111   .     S
C1421  H1438   1.109   .     S
C1421  H1455   1.110   .     S
C1422  H1439   1.109   .     S
C1422  O1461   1.423   .     S
C1422  C1423   1.521   .     S
C1422  H1504   1.118   .     S
C1423  H1443   1.111   .     S
C1423  H1441   1.109   .     S
C1423  H1506   1.108   .     S
C1424  H1445   1.111   .     S
C1424  H1444   1.118   .     S
C1424  O1462   1.417   .     S
C1424  C1425   1.523   .     S
C1425  H1446   1.108   .     S
C1425  H1449   1.109   .     S
C1425  H1447   1.111   .     S
C1426  O1469   1.283   .     A
C1426  O1466   1.283   .     A
C1426  C1428   1.362   .     S
C1427  O1468   1.283   .     A
C1427  C1429   1.362   .     S
C1427  O1467   1.283   .     A
C1429  C276    1.163   1_556 S
C1430  O1470   1.383   .     S
C1431  O1460   1.384   .     S
C1431  C1474   1.383   .     S
C1432  O1461   1.384   .     S
C1432  C1494   1.384   .     S
H1448  C1481   1.116   .     S
H1451  C1610   1.109   .     S
N1457  Zn1471  2.029   .     S
N1458  Zn1472  2.029   .     S
O1459  Zn1471  2.018   .     S
O1463  Zn1472  2.018   .     S
O1464  Zn1471  2.023   .     S
O1465  Zn1472  2.023   .     S
O1466  Zn1471  1.943   .     S
O1467  Zn1472  1.943   .     S
O1468  Zn1471  1.943   .     S
O1469  Zn1472  1.943   .     S
C1473  O1529   1.298   .     A
C1473  C1476   1.441   .     S
C1473  O1523   1.292   .     A
C1474  C1476   1.413   .     A
C1474  O1526   1.384   .     S
C1475  C1495   1.410   .     A
C1475  C1496   1.398   .     A
C1475  C1484   1.436   .     S
C1476  C1494   1.405   .     A
C1477  Cl1497  1.749   .     S
C1477  N1522   1.374   .     A
C1478  Cl1498  1.761   .     S
C1478  N1521   1.370   .     A
C1478  C1671   1.424   .     S
C1479  Cl1499  1.756   .     S
C1479  N1522   1.374   .     A
C1480  Cl1500  1.760   .     S
C1480  N1521   1.368   .     A
C1480  C1669   1.422   .     S
C1481  C1482   1.516   .     S
C1481  H1501   1.110   .     S
C1481  O1534   1.419   .     S
C1482  H1514   1.110   .     S
C1482  H1516   1.103   .     S
C1483  H1517   1.116   .     S
C1483  C1485   1.522   .     S
C1483  H1518   1.112   .     S
C1483  O1524   1.414   .     S
C1484  O1528   1.289   .     A
C1484  O1527   1.299   .     A
C1485  H1520   1.111   .     S
C1485  H1502   1.109   .     S
C1485  H1519   1.110   .     S
C1486  H1503   1.109   .     S
C1486  O1525   1.423   .     S
C1486  C1487   1.521   .     S
C1486  H1376   1.118   1_655 S
C1487  H1507   1.111   .     S
C1487  H1505   1.109   .     S
C1487  H1378   1.108   1_655 S
C1488  H1509   1.111   .     S
C1488  H1508   1.118   .     S
C1488  O1526   1.417   .     S
C1488  C1489   1.523   .     S
C1489  H1510   1.108   .     S
C1489  H1513   1.109   .     S
C1489  H1511   1.111   .     S
C1490  O1533   1.283   .     A
C1490  O1530   1.283   .     A
C1490  C1492   1.362   .     S
C1491  O1532   1.283   .     A
C1491  C1493   1.362   .     S
C1491  O1531   1.283   .     A
C1493  C340    1.163   1_556 S
C1494  O1534   1.383   .     S
C1495  O1524   1.384   .     S
C1495  C1346   1.383   1_655 S
C1496  O1525   1.384   .     S
C1496  C1366   1.384   1_655 S
H1512  C1353   1.116   1_655 S
H1515  C1674   1.109   .     S
N1521  Zn1535  2.029   .     S
N1522  Zn1536  2.029   .     S
O1523  Zn1535  2.018   .     S
O1527  Zn1536  2.018   .     S
O1528  Zn1535  2.023   .     S
O1529  Zn1536  2.023   .     S
O1530  Zn1535  1.943   .     S
O1531  Zn1536  1.943   .     S
O1532  Zn1535  1.943   .     S
O1533  Zn1536  1.943   .     S
C1537  O1593   1.298   .     A
C1537  C1540   1.441   .     S
C1537  O1587   1.292   .     A
C1538  C1540   1.413   .     A
C1538  O1590   1.384   .     S
C1538  C1687   1.383   1_455 S
C1539  C1559   1.410   .     A
C1539  C1560   1.398   .     A
C1539  C1548   1.436   .     S
C1540  C1558   1.405   .     A
C1541  Cl1561  1.749   .     S
C1541  N1586   1.374   .     A
C1542  Cl1562  1.761   .     S
C1542  N1585   1.370   .     A
C1542  C1159   1.424   1_565 S
C1543  Cl1563  1.756   .     S
C1543  N1586   1.374   .     A
C1544  Cl1564  1.760   .     S
C1544  N1585   1.368   .     A
C1544  C1157   1.422   1_565 S
C1545  C1546   1.516   .     S
C1545  H1565   1.110   .     S
C1545  O1598   1.419   .     S
C1545  H1704   1.116   1_455 S
C1546  H1578   1.110   .     S
C1546  H1580   1.103   .     S
C1547  H1581   1.116   .     S
C1547  C1549   1.522   .     S
C1547  H1582   1.112   .     S
C1547  O1588   1.414   .     S
C1548  O1592   1.289   .     A
C1548  O1591   1.299   .     A
C1549  H1584   1.111   .     S
C1549  H1566   1.109   .     S
C1549  H1583   1.110   .     S
C1550  H1567   1.109   .     S
C1550  O1589   1.423   .     S
C1550  C1551   1.521   .     S
C1550  H1632   1.118   .     S
C1551  H1571   1.111   .     S
C1551  H1569   1.109   .     S
C1551  H1634   1.108   .     S
C1552  H1573   1.111   .     S
C1552  H1572   1.118   .     S
C1552  O1590   1.417   .     S
C1552  C1553   1.523   .     S
C1553  H1574   1.108   .     S
C1553  H1577   1.109   .     S
C1553  H1575   1.111   .     S
C1554  O1597   1.283   .     A
C1554  O1594   1.283   .     A
C1554  C1556   1.362   .     S
C1555  O1596   1.283   .     A
C1555  C1557   1.362   .     S
C1555  O1595   1.283   .     A
C1557  C404    1.163   1_556 S
C1558  O1598   1.383   .     S
C1558  C1688   1.384   1_455 S
C1559  O1588   1.384   .     S
C1559  C1602   1.383   .     S
C1560  O1589   1.384   .     S
C1560  C1622   1.384   .     S
H1568  C1678   1.118   1_455 S
H1570  C1679   1.108   1_455 S
H1576  C1609   1.116   .     S
H1579  C1162   1.109   1_565 S
N1585  Zn1599  2.029   .     S
N1586  Zn1600  2.029   .     S
O1587  Zn1599  2.018   .     S
O1591  Zn1600  2.018   .     S
O1592  Zn1599  2.023   .     S
O1593  Zn1600  2.023   .     S
O1594  Zn1599  1.943   .     S
O1595  Zn1600  1.943   .     S
O1596  Zn1599  1.943   .     S
O1597  Zn1600  1.943   .     S
C1601  O1657   1.298   .     A
C1601  C1604   1.441   .     S
C1601  O1651   1.292   .     A
C1602  C1604   1.413   .     A
C1602  O1654   1.384   .     S
C1603  C1623   1.410   .     A
C1603  C1624   1.398   .     A
C1603  C1612   1.436   .     S
C1604  C1622   1.405   .     A
C1605  Cl1625  1.749   .     S
C1605  N1650   1.374   .     A
C1606  Cl1626  1.761   .     S
C1606  N1649   1.370   .     A
C1606  C1223   1.424   1_565 S
C1607  Cl1627  1.756   .     S
C1607  N1650   1.374   .     A
C1608  Cl1628  1.760   .     S
C1608  N1649   1.368   .     A
C1608  C1221   1.422   1_565 S
C1609  C1610   1.516   .     S
C1609  H1629   1.110   .     S
C1609  O1662   1.419   .     S
C1610  H1642   1.110   .     S
C1610  H1644   1.103   .     S
C1611  H1645   1.116   .     S
C1611  C1613   1.522   .     S
C1611  H1646   1.112   .     S
C1611  O1652   1.414   .     S
C1612  O1656   1.289   .     A
C1612  O1655   1.299   .     A
C1613  H1648   1.111   .     S
C1613  H1630   1.109   .     S
C1613  H1647   1.110   .     S
C1614  H1631   1.109   .     S
C1614  O1653   1.423   .     S
C1614  C1615   1.521   .     S
C1614  H1696   1.118   .     S
C1615  H1635   1.111   .     S
C1615  H1633   1.109   .     S
C1615  H1698   1.108   .     S
C1616  H1637   1.111   .     S
C1616  H1636   1.118   .     S
C1616  O1654   1.417   .     S
C1616  C1617   1.523   .     S
C1617  H1638   1.108   .     S
C1617  H1641   1.109   .     S
C1617  H1639   1.111   .     S
C1618  O1661   1.283   .     A
C1618  O1658   1.283   .     A
C1618  C1620   1.362   .     S
C1619  O1660   1.283   .     A
C1619  C1621   1.362   .     S
C1619  O1659   1.283   .     A
C1621  C468    1.163   1_556 S
C1622  O1662   1.383   .     S
C1623  O1652   1.384   .     S
C1623  C1666   1.383   .     S
C1624  O1653   1.384   .     S
C1624  C1686   1.384   .     S
H1640  C1673   1.116   .     S
H1643  C1226   1.109   1_565 S
N1649  Zn1663  2.029   .     S
N1650  Zn1664  2.029   .     S
O1651  Zn1663  2.018   .     S
O1655  Zn1664  2.018   .     S
O1656  Zn1663  2.023   .     S
O1657  Zn1664  2.023   .     S
O1658  Zn1663  1.943   .     S
O1659  Zn1664  1.943   .     S
O1660  Zn1663  1.943   .     S
O1661  Zn1664  1.943   .     S
C1665  O1721   1.298   .     A
C1665  C1668   1.441   .     S
C1665  O1715   1.292   .     A
C1666  C1668   1.413   .     A
C1666  O1718   1.384   .     S
C1667  C1687   1.410   .     A
C1667  C1688   1.398   .     A
C1667  C1676   1.436   .     S
C1668  C1686   1.405   .     A
C1669  Cl1689  1.749   .     S
C1669  N1714   1.374   .     A
C1670  Cl1690  1.761   .     S
C1670  N1713   1.370   .     A
C1670  C1287   1.424   1_565 S
C1671  Cl1691  1.756   .     S
C1671  N1714   1.374   .     A
C1672  Cl1692  1.760   .     S
C1672  N1713   1.368   .     A
C1672  C1285   1.422   1_565 S
C1673  C1674   1.516   .     S
C1673  H1693   1.110   .     S
C1673  O1726   1.419   .     S
C1674  H1706   1.110   .     S
C1674  H1708   1.103   .     S
C1675  H1709   1.116   .     S
C1675  C1677   1.522   .     S
C1675  H1710   1.112   .     S
C1675  O1716   1.414   .     S
C1676  O1720   1.289   .     A
C1676  O1719   1.299   .     A
C1677  H1712   1.111   .     S
C1677  H1694   1.109   .     S
C1677  H1711   1.110   .     S
C1678  H1695   1.109   .     S
C1678  O1717   1.423   .     S
C1678  C1679   1.521   .     S
C1678  H1568   1.118   1_655 S
C1679  H1699   1.111   .     S
C1679  H1697   1.109   .     S
C1679  H1570   1.108   1_655 S
C1680  H1701   1.111   .     S
C1680  H1700   1.118   .     S
C1680  O1718   1.417   .     S
C1680  C1681   1.523   .     S
C1681  H1702   1.108   .     S
C1681  H1705   1.109   .     S
C1681  H1703   1.111   .     S
C1682  O1725   1.283   .     A
C1682  O1722   1.283   .     A
C1682  C1684   1.362   .     S
C1683  O1724   1.283   .     A
C1683  C1685   1.362   .     S
C1683  O1723   1.283   .     A
C1685  C532    1.163   1_556 S
C1686  O1726   1.383   .     S
C1687  O1716   1.384   .     S
C1687  C1538   1.383   1_655 S
C1688  O1717   1.384   .     S
C1688  C1558   1.384   1_655 S
H1704  C1545   1.116   1_655 S
H1707  C1290   1.109   1_565 S
N1713  Zn1727  2.029   .     S
N1714  Zn1728  2.029   .     S
O1715  Zn1727  2.018   .     S
O1719  Zn1728  2.018   .     S
O1720  Zn1727  2.023   .     S
O1721  Zn1728  2.023   .     S
O1722  Zn1727  1.943   .     S
O1723  Zn1728  1.943   .     S
O1724  Zn1727  1.943   .     S
O1725  Zn1728  1.943   .     S
