data_str_m3_o2_o5_pcu_sym.120
_audit_creation_date              2020-01-03
_audit_creation_method            'Materials Studio'
_symmetry_space_group_name_H-M    'P1'
_symmetry_Int_Tables_number       1
_symmetry_cell_setting            triclinic
loop_
_symmetry_equiv_pos_as_xyz
  x,y,z
_cell_length_a                    29.9104
_cell_length_b                    28.3699
_cell_length_c                    26.7157
_cell_angle_alpha                 90.6708
_cell_angle_beta                  90.0313
_cell_angle_gamma                 89.9922
loop_
_atom_site_label
_atom_site_type_symbol
_atom_site_fract_x
_atom_site_fract_y
_atom_site_fract_z
_atom_site_U_iso_or_equiv
_atom_site_adp_type
_atom_site_occupancy
C1     C     0.16412   0.25002   0.16675   0.00000  Uiso   1.00
C2     C     0.33600   0.24999   0.16608   0.00000  Uiso   1.00
C3     C     0.22507   0.10130   0.13298   0.00000  Uiso   1.00
C4     C     0.28974   0.39720   0.16719   0.00000  Uiso   1.00
C5     C     0.27578   0.10364   0.20069   0.00000  Uiso   1.00
C6     C     0.21093   0.39839   0.16867   0.00000  Uiso   1.00
C7     C     0.22580   0.05169   0.13193   0.00000  Uiso   1.00
C8     C     0.29170   0.44683   0.16693   0.00000  Uiso   1.00
C9     C     0.27632   0.05369   0.20350   0.00000  Uiso   1.00
C10    C     0.21066   0.44804   0.17108   0.00000  Uiso   1.00
C11    C     0.25004   0.24982   0.07285   0.00000  Uiso   1.00
C12    C     0.25007   0.25017   0.26048   0.00000  Uiso   1.00
C13    C     0.25167   0.02691   0.16779   0.00000  Uiso   1.00
C14    C     0.25148   0.47347   0.16889   0.00000  Uiso   1.00
C15    C     0.25006   0.24974   0.02179   0.00000  Uiso   1.00
C16    C     0.25007   0.25023   0.31155   0.00000  Uiso   1.00
C17    C     0.04720   0.26473   0.21039   0.00000  Uiso   1.00
C18    C     0.45333   0.27778   0.13083   0.00000  Uiso   1.00
C19    C     0.45326   0.22548   0.20227   0.00000  Uiso   1.00
C20    C     0.04678   0.23826   0.12357   0.00000  Uiso   1.00
C21    C     0.09340   0.26387   0.21117   0.00000  Uiso   1.00
C22    C     0.40718   0.27657   0.12882   0.00000  Uiso   1.00
C23    C     0.40677   0.22415   0.20161   0.00000  Uiso   1.00
C24    C     0.09295   0.23732   0.12279   0.00000  Uiso   1.00
C25    C     0.11640   0.25016   0.16697   0.00000  Uiso   1.00
C26    C     0.38392   0.24995   0.16497   0.00000  Uiso   1.00
C27    C     0.02420   0.25196   0.16696   0.00000  Uiso   1.00
C28    C     0.47609   0.25215   0.16702   0.00000  Uiso   1.00
H29    H     0.20443   0.12005   0.10654   0.00000  Uiso   1.00
H30    H     0.32060   0.37744   0.16743   0.00000  Uiso   1.00
H31    H     0.29562   0.12491   0.22598   0.00000  Uiso   1.00
H32    H     0.17951   0.37960   0.16909   0.00000  Uiso   1.00
H33    H     0.02911   0.27533   0.24383   0.00000  Uiso   1.00
H34    H     0.47160   0.29820   0.10355   0.00000  Uiso   1.00
H35    H     0.47171   0.20556   0.22984   0.00000  Uiso   1.00
H36    H     0.02836   0.22812   0.09017   0.00000  Uiso   1.00
N37    N     0.25000   0.12623   0.16667   0.00000  Uiso   1.00
N38    N     0.25000   0.37377   0.16667   0.00000  Uiso   1.00
O39    O     0.18453   0.28974   0.16667   0.00000  Uiso   1.00
O40    O     0.31547   0.21026   0.16666   0.00000  Uiso   1.00
O41    O     0.31547   0.28974   0.16666   0.00000  Uiso   1.00
O42    O     0.18453   0.21026   0.16667   0.00000  Uiso   1.00
O43    O     0.25000   0.28973   0.09511   0.00000  Uiso   1.00
O44    O     0.25000   0.21027   0.23822   0.00000  Uiso   1.00
O45    O     0.25000   0.28973   0.23822   0.00000  Uiso   1.00
O46    O     0.25000   0.21027   0.09511   0.00000  Uiso   1.00
Zn47   Zn    0.25000   0.30307   0.16667   0.00000  Uiso   1.00
Zn48   Zn    0.25000   0.19693   0.16667   0.00000  Uiso   1.00
O49    O     0.11418   0.27629   0.25569   0.00000  Uiso   1.00
H50    H     0.14666   0.27025   0.25364   0.00000  Uiso   1.00
O51    O     0.38658   0.30104   0.09076   0.00000  Uiso   1.00
H52    H     0.35588   0.28897   0.08568   0.00000  Uiso   1.00
O53    O     0.38299   0.19888   0.23666   0.00000  Uiso   1.00
H54    H     0.40422   0.18306   0.25952   0.00000  Uiso   1.00
O55    O     0.11325   0.22419   0.07822   0.00000  Uiso   1.00
H56    H     0.14600   0.22807   0.08054   0.00000  Uiso   1.00
O57    O     0.19737   0.02822   0.09917   0.00000  Uiso   1.00
C58    C     0.22155   0.01073   0.05752   0.00000  Uiso   1.00
H59    H     0.25548   0.49831   0.06762   0.00000  Uiso   1.00
H60    H     0.22462   0.03899   0.02928   0.00000  Uiso   1.00
C61    C     0.19626   0.46890   0.03455   0.00000  Uiso   1.00
H62    H     0.18723   0.44376   0.06447   0.00000  Uiso   1.00
H63    H     0.16490   0.48157   0.01702   0.00000  Uiso   1.00
C64    C     0.22434   0.44271   0.32875   0.00000  Uiso   1.00
H65    H     0.23361   0.46652   0.29784   0.00000  Uiso   1.00
H66    H     0.20483   0.41277   0.31291   0.00000  Uiso   1.00
H67    H     0.25526   0.42855   0.01273   0.00000  Uiso   1.00
O68    O     0.33336   0.46803   0.16986   0.00000  Uiso   1.00
C69    C     0.34759   0.48263   0.12202   0.00000  Uiso   1.00
H70    H     0.37548   0.00796   0.12783   0.00000  Uiso   1.00
H71    H     0.32133   0.00235   0.10194   0.00000  Uiso   1.00
C72    C     0.36501   0.44111   0.09015   0.00000  Uiso   1.00
H73    H     0.39173   0.42244   0.11098   0.00000  Uiso   1.00
H74    H     0.33749   0.41585   0.08213   0.00000  Uiso   1.00
C75    C     0.38359   0.45790   0.04031   0.00000  Uiso   1.00
H76    H     0.35658   0.47433   0.01800   0.00000  Uiso   1.00
H77    H     0.39712   0.42736   0.01881   0.00000  Uiso   1.00
H78    H     0.41089   0.48386   0.04651   0.00000  Uiso   1.00
O79    O     0.30239   0.03020   0.23850   0.00000  Uiso   1.00
C80    C     0.29903   0.05003   0.28729   0.00000  Uiso   1.00
H81    H     0.29331   0.02067   0.31354   0.00000  Uiso   1.00
H82    H     0.27017   0.07453   0.29247   0.00000  Uiso   1.00
C83    C     0.34312   0.07383   0.30227   0.00000  Uiso   1.00
H84    H     0.37013   0.04697   0.30321   0.00000  Uiso   1.00
H85    H     0.35278   0.10061   0.27436   0.00000  Uiso   1.00
C86    C     0.33941   0.09764   0.02030   0.00000  Uiso   1.00
H87    H     0.31375   0.12595   0.01956   0.00000  Uiso   1.00
H88    H     0.37206   0.11358   0.03072   0.00000  Uiso   1.00
H89    H     0.33011   0.07150   0.04908   0.00000  Uiso   1.00
O90    O     0.16995   0.47108   0.17215   0.00000  Uiso   1.00
C91    C     0.15987   0.48420   0.22196   0.00000  Uiso   1.00
H92    H     0.15416   0.45219   0.24486   0.00000  Uiso   1.00
H93    H     0.18724   0.00573   0.23891   0.00000  Uiso   1.00
C94    C     0.11739   0.01407   0.22212   0.00000  Uiso   1.00
H95    H     0.12290   0.04596   0.19910   0.00000  Uiso   1.00
H96    H     0.08949   0.49342   0.20526   0.00000  Uiso   1.00
C97    C     0.10443   0.02937   0.27510   0.00000  Uiso   1.00
H98    H     0.09703   0.49804   0.29821   0.00000  Uiso   1.00
H99    H     0.07406   0.05183   0.27370   0.00000  Uiso   1.00
H100   H     0.13192   0.05001   0.29277   0.00000  Uiso   1.00
C101   C     0.66412   0.25002   0.16675   0.00000  Uiso   1.00
C102   C     0.83600   0.24999   0.16608   0.00000  Uiso   1.00
C103   C     0.72507   0.10130   0.13298   0.00000  Uiso   1.00
C104   C     0.78974   0.39720   0.16719   0.00000  Uiso   1.00
C105   C     0.77578   0.10364   0.20069   0.00000  Uiso   1.00
C106   C     0.71093   0.39839   0.16867   0.00000  Uiso   1.00
C107   C     0.72580   0.05169   0.13193   0.00000  Uiso   1.00
C108   C     0.79170   0.44683   0.16693   0.00000  Uiso   1.00
C109   C     0.77632   0.05369   0.20350   0.00000  Uiso   1.00
C110   C     0.71066   0.44804   0.17108   0.00000  Uiso   1.00
C111   C     0.75004   0.24982   0.07285   0.00000  Uiso   1.00
C112   C     0.75007   0.25017   0.26048   0.00000  Uiso   1.00
C113   C     0.75167   0.02691   0.16779   0.00000  Uiso   1.00
C114   C     0.75148   0.47347   0.16889   0.00000  Uiso   1.00
C115   C     0.75006   0.24974   0.02179   0.00000  Uiso   1.00
C116   C     0.75007   0.25023   0.31155   0.00000  Uiso   1.00
C117   C     0.54720   0.26473   0.21039   0.00000  Uiso   1.00
C118   C     0.95333   0.27778   0.13083   0.00000  Uiso   1.00
C119   C     0.95326   0.22548   0.20227   0.00000  Uiso   1.00
C120   C     0.54678   0.23826   0.12357   0.00000  Uiso   1.00
C121   C     0.59340   0.26387   0.21117   0.00000  Uiso   1.00
C122   C     0.90718   0.27657   0.12882   0.00000  Uiso   1.00
C123   C     0.90677   0.22415   0.20161   0.00000  Uiso   1.00
C124   C     0.59295   0.23732   0.12279   0.00000  Uiso   1.00
C125   C     0.61640   0.25016   0.16697   0.00000  Uiso   1.00
C126   C     0.88392   0.24995   0.16497   0.00000  Uiso   1.00
C127   C     0.52420   0.25196   0.16696   0.00000  Uiso   1.00
C128   C     0.97609   0.25215   0.16702   0.00000  Uiso   1.00
H129   H     0.70443   0.12005   0.10654   0.00000  Uiso   1.00
H130   H     0.82060   0.37744   0.16743   0.00000  Uiso   1.00
H131   H     0.79562   0.12491   0.22598   0.00000  Uiso   1.00
H132   H     0.67951   0.37960   0.16909   0.00000  Uiso   1.00
H133   H     0.52911   0.27533   0.24383   0.00000  Uiso   1.00
H134   H     0.97160   0.29820   0.10355   0.00000  Uiso   1.00
H135   H     0.97171   0.20556   0.22984   0.00000  Uiso   1.00
H136   H     0.52836   0.22812   0.09017   0.00000  Uiso   1.00
N137   N     0.75000   0.12623   0.16667   0.00000  Uiso   1.00
N138   N     0.75000   0.37377   0.16667   0.00000  Uiso   1.00
O139   O     0.68453   0.28974   0.16667   0.00000  Uiso   1.00
O140   O     0.81547   0.21026   0.16666   0.00000  Uiso   1.00
O141   O     0.81547   0.28974   0.16666   0.00000  Uiso   1.00
O142   O     0.68453   0.21026   0.16667   0.00000  Uiso   1.00
O143   O     0.75000   0.28973   0.09511   0.00000  Uiso   1.00
O144   O     0.75000   0.21027   0.23822   0.00000  Uiso   1.00
O145   O     0.75000   0.28973   0.23822   0.00000  Uiso   1.00
O146   O     0.75000   0.21027   0.09511   0.00000  Uiso   1.00
Zn147  Zn    0.75000   0.30307   0.16667   0.00000  Uiso   1.00
Zn148  Zn    0.75000   0.19693   0.16667   0.00000  Uiso   1.00
O149   O     0.61418   0.27629   0.25569   0.00000  Uiso   1.00
H150   H     0.64666   0.27025   0.25364   0.00000  Uiso   1.00
O151   O     0.88658   0.30104   0.09076   0.00000  Uiso   1.00
H152   H     0.85588   0.28897   0.08568   0.00000  Uiso   1.00
O153   O     0.88299   0.19888   0.23666   0.00000  Uiso   1.00
H154   H     0.90422   0.18306   0.25952   0.00000  Uiso   1.00
O155   O     0.61325   0.22419   0.07822   0.00000  Uiso   1.00
H156   H     0.64600   0.22807   0.08054   0.00000  Uiso   1.00
O157   O     0.69737   0.02822   0.09917   0.00000  Uiso   1.00
C158   C     0.72155   0.01073   0.05752   0.00000  Uiso   1.00
H159   H     0.75548   0.49831   0.06762   0.00000  Uiso   1.00
H160   H     0.72462   0.03899   0.02928   0.00000  Uiso   1.00
C161   C     0.69626   0.46890   0.03455   0.00000  Uiso   1.00
H162   H     0.68723   0.44376   0.06447   0.00000  Uiso   1.00
H163   H     0.66490   0.48157   0.01702   0.00000  Uiso   1.00
C164   C     0.72434   0.44271   0.32875   0.00000  Uiso   1.00
H165   H     0.73361   0.46652   0.29784   0.00000  Uiso   1.00
H166   H     0.70483   0.41277   0.31291   0.00000  Uiso   1.00
H167   H     0.75526   0.42855   0.01273   0.00000  Uiso   1.00
O168   O     0.83336   0.46803   0.16986   0.00000  Uiso   1.00
C169   C     0.84759   0.48263   0.12202   0.00000  Uiso   1.00
H170   H     0.87548   0.00796   0.12783   0.00000  Uiso   1.00
H171   H     0.82133   0.00235   0.10194   0.00000  Uiso   1.00
C172   C     0.86501   0.44111   0.09015   0.00000  Uiso   1.00
H173   H     0.89173   0.42244   0.11098   0.00000  Uiso   1.00
H174   H     0.83749   0.41585   0.08213   0.00000  Uiso   1.00
C175   C     0.88359   0.45790   0.04031   0.00000  Uiso   1.00
H176   H     0.85658   0.47433   0.01800   0.00000  Uiso   1.00
H177   H     0.89712   0.42736   0.01881   0.00000  Uiso   1.00
H178   H     0.91089   0.48386   0.04651   0.00000  Uiso   1.00
O179   O     0.80239   0.03020   0.23850   0.00000  Uiso   1.00
C180   C     0.79903   0.05003   0.28729   0.00000  Uiso   1.00
H181   H     0.79331   0.02067   0.31354   0.00000  Uiso   1.00
H182   H     0.77017   0.07453   0.29247   0.00000  Uiso   1.00
C183   C     0.84312   0.07383   0.30227   0.00000  Uiso   1.00
H184   H     0.87013   0.04697   0.30321   0.00000  Uiso   1.00
H185   H     0.85278   0.10061   0.27436   0.00000  Uiso   1.00
C186   C     0.83941   0.09764   0.02030   0.00000  Uiso   1.00
H187   H     0.81375   0.12595   0.01956   0.00000  Uiso   1.00
H188   H     0.87206   0.11358   0.03072   0.00000  Uiso   1.00
H189   H     0.83011   0.07150   0.04908   0.00000  Uiso   1.00
O190   O     0.66995   0.47108   0.17215   0.00000  Uiso   1.00
C191   C     0.65987   0.48420   0.22196   0.00000  Uiso   1.00
H192   H     0.65416   0.45219   0.24486   0.00000  Uiso   1.00
H193   H     0.68724   0.00573   0.23891   0.00000  Uiso   1.00
C194   C     0.61739   0.01407   0.22212   0.00000  Uiso   1.00
H195   H     0.62290   0.04596   0.19910   0.00000  Uiso   1.00
H196   H     0.58949   0.49342   0.20526   0.00000  Uiso   1.00
C197   C     0.60443   0.02937   0.27510   0.00000  Uiso   1.00
H198   H     0.59703   0.49804   0.29821   0.00000  Uiso   1.00
H199   H     0.57406   0.05183   0.27370   0.00000  Uiso   1.00
H200   H     0.63192   0.05001   0.29277   0.00000  Uiso   1.00
C201   C     0.16412   0.75002   0.16675   0.00000  Uiso   1.00
C202   C     0.33600   0.74999   0.16608   0.00000  Uiso   1.00
C203   C     0.22507   0.60130   0.13298   0.00000  Uiso   1.00
C204   C     0.28974   0.89720   0.16719   0.00000  Uiso   1.00
C205   C     0.27578   0.60364   0.20069   0.00000  Uiso   1.00
C206   C     0.21093   0.89839   0.16867   0.00000  Uiso   1.00
C207   C     0.22580   0.55169   0.13193   0.00000  Uiso   1.00
C208   C     0.29170   0.94683   0.16693   0.00000  Uiso   1.00
C209   C     0.27632   0.55369   0.20350   0.00000  Uiso   1.00
C210   C     0.21066   0.94804   0.17108   0.00000  Uiso   1.00
C211   C     0.25004   0.74982   0.07285   0.00000  Uiso   1.00
C212   C     0.25007   0.75017   0.26048   0.00000  Uiso   1.00
C213   C     0.25167   0.52691   0.16779   0.00000  Uiso   1.00
C214   C     0.25148   0.97347   0.16889   0.00000  Uiso   1.00
C215   C     0.25006   0.74974   0.02179   0.00000  Uiso   1.00
C216   C     0.25007   0.75023   0.31155   0.00000  Uiso   1.00
C217   C     0.04720   0.76473   0.21039   0.00000  Uiso   1.00
C218   C     0.45333   0.77778   0.13083   0.00000  Uiso   1.00
C219   C     0.45326   0.72548   0.20227   0.00000  Uiso   1.00
C220   C     0.04678   0.73826   0.12357   0.00000  Uiso   1.00
C221   C     0.09340   0.76387   0.21117   0.00000  Uiso   1.00
C222   C     0.40718   0.77657   0.12882   0.00000  Uiso   1.00
C223   C     0.40677   0.72415   0.20161   0.00000  Uiso   1.00
C224   C     0.09295   0.73732   0.12279   0.00000  Uiso   1.00
C225   C     0.11640   0.75016   0.16697   0.00000  Uiso   1.00
C226   C     0.38392   0.74995   0.16497   0.00000  Uiso   1.00
C227   C     0.02420   0.75196   0.16696   0.00000  Uiso   1.00
C228   C     0.47609   0.75215   0.16702   0.00000  Uiso   1.00
H229   H     0.20443   0.62005   0.10654   0.00000  Uiso   1.00
H230   H     0.32060   0.87744   0.16743   0.00000  Uiso   1.00
H231   H     0.29562   0.62491   0.22598   0.00000  Uiso   1.00
H232   H     0.17951   0.87960   0.16909   0.00000  Uiso   1.00
H233   H     0.02911   0.77533   0.24383   0.00000  Uiso   1.00
H234   H     0.47160   0.79820   0.10355   0.00000  Uiso   1.00
H235   H     0.47171   0.70556   0.22984   0.00000  Uiso   1.00
H236   H     0.02836   0.72812   0.09017   0.00000  Uiso   1.00
N237   N     0.25000   0.62623   0.16667   0.00000  Uiso   1.00
N238   N     0.25000   0.87377   0.16667   0.00000  Uiso   1.00
O239   O     0.18453   0.78974   0.16667   0.00000  Uiso   1.00
O240   O     0.31547   0.71026   0.16666   0.00000  Uiso   1.00
O241   O     0.31547   0.78974   0.16666   0.00000  Uiso   1.00
O242   O     0.18453   0.71026   0.16667   0.00000  Uiso   1.00
O243   O     0.25000   0.78973   0.09511   0.00000  Uiso   1.00
O244   O     0.25000   0.71027   0.23822   0.00000  Uiso   1.00
O245   O     0.25000   0.78973   0.23822   0.00000  Uiso   1.00
O246   O     0.25000   0.71027   0.09511   0.00000  Uiso   1.00
Zn247  Zn    0.25000   0.80307   0.16667   0.00000  Uiso   1.00
Zn248  Zn    0.25000   0.69693   0.16667   0.00000  Uiso   1.00
O249   O     0.11418   0.77629   0.25569   0.00000  Uiso   1.00
H250   H     0.14666   0.77025   0.25364   0.00000  Uiso   1.00
O251   O     0.38658   0.80104   0.09076   0.00000  Uiso   1.00
H252   H     0.35588   0.78897   0.08568   0.00000  Uiso   1.00
O253   O     0.38299   0.69888   0.23666   0.00000  Uiso   1.00
H254   H     0.40422   0.68306   0.25952   0.00000  Uiso   1.00
O255   O     0.11325   0.72419   0.07822   0.00000  Uiso   1.00
H256   H     0.14600   0.72807   0.08054   0.00000  Uiso   1.00
O257   O     0.19737   0.52822   0.09917   0.00000  Uiso   1.00
C258   C     0.22155   0.51073   0.05752   0.00000  Uiso   1.00
H259   H     0.25548   0.99831   0.06762   0.00000  Uiso   1.00
H260   H     0.22462   0.53899   0.02928   0.00000  Uiso   1.00
C261   C     0.19626   0.96890   0.03455   0.00000  Uiso   1.00
H262   H     0.18723   0.94376   0.06447   0.00000  Uiso   1.00
H263   H     0.16490   0.98157   0.01702   0.00000  Uiso   1.00
C264   C     0.22434   0.94271   0.32875   0.00000  Uiso   1.00
H265   H     0.23361   0.96652   0.29784   0.00000  Uiso   1.00
H266   H     0.20483   0.91277   0.31291   0.00000  Uiso   1.00
H267   H     0.25526   0.92855   0.01273   0.00000  Uiso   1.00
O268   O     0.33336   0.96803   0.16986   0.00000  Uiso   1.00
C269   C     0.34759   0.98263   0.12202   0.00000  Uiso   1.00
H270   H     0.37548   0.50796   0.12783   0.00000  Uiso   1.00
H271   H     0.32133   0.50235   0.10194   0.00000  Uiso   1.00
C272   C     0.36501   0.94111   0.09015   0.00000  Uiso   1.00
H273   H     0.39173   0.92244   0.11098   0.00000  Uiso   1.00
H274   H     0.33749   0.91585   0.08213   0.00000  Uiso   1.00
C275   C     0.38359   0.95790   0.04031   0.00000  Uiso   1.00
H276   H     0.35658   0.97433   0.01800   0.00000  Uiso   1.00
H277   H     0.39712   0.92736   0.01881   0.00000  Uiso   1.00
H278   H     0.41089   0.98386   0.04651   0.00000  Uiso   1.00
O279   O     0.30239   0.53020   0.23850   0.00000  Uiso   1.00
C280   C     0.29903   0.55003   0.28729   0.00000  Uiso   1.00
H281   H     0.29331   0.52067   0.31354   0.00000  Uiso   1.00
H282   H     0.27017   0.57453   0.29247   0.00000  Uiso   1.00
C283   C     0.34312   0.57383   0.30227   0.00000  Uiso   1.00
H284   H     0.37013   0.54697   0.30321   0.00000  Uiso   1.00
H285   H     0.35278   0.60061   0.27436   0.00000  Uiso   1.00
C286   C     0.33941   0.59764   0.02030   0.00000  Uiso   1.00
H287   H     0.31375   0.62595   0.01956   0.00000  Uiso   1.00
H288   H     0.37206   0.61358   0.03072   0.00000  Uiso   1.00
H289   H     0.33011   0.57150   0.04908   0.00000  Uiso   1.00
O290   O     0.16995   0.97108   0.17215   0.00000  Uiso   1.00
C291   C     0.15987   0.98420   0.22196   0.00000  Uiso   1.00
H292   H     0.15416   0.95219   0.24486   0.00000  Uiso   1.00
H293   H     0.18724   0.50573   0.23891   0.00000  Uiso   1.00
C294   C     0.11739   0.51407   0.22212   0.00000  Uiso   1.00
H295   H     0.12290   0.54596   0.19910   0.00000  Uiso   1.00
H296   H     0.08949   0.99342   0.20526   0.00000  Uiso   1.00
C297   C     0.10443   0.52937   0.27510   0.00000  Uiso   1.00
H298   H     0.09703   0.99804   0.29821   0.00000  Uiso   1.00
H299   H     0.07406   0.55183   0.27370   0.00000  Uiso   1.00
H300   H     0.13192   0.55001   0.29277   0.00000  Uiso   1.00
C301   C     0.66412   0.75002   0.16675   0.00000  Uiso   1.00
C302   C     0.83600   0.74999   0.16608   0.00000  Uiso   1.00
C303   C     0.72507   0.60130   0.13298   0.00000  Uiso   1.00
C304   C     0.78974   0.89720   0.16719   0.00000  Uiso   1.00
C305   C     0.77578   0.60364   0.20069   0.00000  Uiso   1.00
C306   C     0.71093   0.89839   0.16867   0.00000  Uiso   1.00
C307   C     0.72580   0.55169   0.13193   0.00000  Uiso   1.00
C308   C     0.79170   0.94683   0.16693   0.00000  Uiso   1.00
C309   C     0.77632   0.55369   0.20350   0.00000  Uiso   1.00
C310   C     0.71066   0.94804   0.17108   0.00000  Uiso   1.00
C311   C     0.75004   0.74982   0.07285   0.00000  Uiso   1.00
C312   C     0.75007   0.75017   0.26048   0.00000  Uiso   1.00
C313   C     0.75167   0.52691   0.16779   0.00000  Uiso   1.00
C314   C     0.75148   0.97347   0.16889   0.00000  Uiso   1.00
C315   C     0.75006   0.74974   0.02179   0.00000  Uiso   1.00
C316   C     0.75007   0.75023   0.31155   0.00000  Uiso   1.00
C317   C     0.54720   0.76473   0.21039   0.00000  Uiso   1.00
C318   C     0.95333   0.77778   0.13083   0.00000  Uiso   1.00
C319   C     0.95326   0.72548   0.20227   0.00000  Uiso   1.00
C320   C     0.54678   0.73826   0.12357   0.00000  Uiso   1.00
C321   C     0.59340   0.76387   0.21117   0.00000  Uiso   1.00
C322   C     0.90718   0.77657   0.12882   0.00000  Uiso   1.00
C323   C     0.90677   0.72415   0.20161   0.00000  Uiso   1.00
C324   C     0.59295   0.73732   0.12279   0.00000  Uiso   1.00
C325   C     0.61640   0.75016   0.16697   0.00000  Uiso   1.00
C326   C     0.88392   0.74995   0.16497   0.00000  Uiso   1.00
C327   C     0.52420   0.75196   0.16696   0.00000  Uiso   1.00
C328   C     0.97609   0.75215   0.16702   0.00000  Uiso   1.00
H329   H     0.70443   0.62005   0.10654   0.00000  Uiso   1.00
H330   H     0.82060   0.87744   0.16743   0.00000  Uiso   1.00
H331   H     0.79562   0.62491   0.22598   0.00000  Uiso   1.00
H332   H     0.67951   0.87960   0.16909   0.00000  Uiso   1.00
H333   H     0.52911   0.77533   0.24383   0.00000  Uiso   1.00
H334   H     0.97160   0.79820   0.10355   0.00000  Uiso   1.00
H335   H     0.97171   0.70556   0.22984   0.00000  Uiso   1.00
H336   H     0.52836   0.72812   0.09017   0.00000  Uiso   1.00
N337   N     0.75000   0.62623   0.16667   0.00000  Uiso   1.00
N338   N     0.75000   0.87377   0.16667   0.00000  Uiso   1.00
O339   O     0.68453   0.78974   0.16667   0.00000  Uiso   1.00
O340   O     0.81547   0.71026   0.16666   0.00000  Uiso   1.00
O341   O     0.81547   0.78974   0.16666   0.00000  Uiso   1.00
O342   O     0.68453   0.71026   0.16667   0.00000  Uiso   1.00
O343   O     0.75000   0.78973   0.09511   0.00000  Uiso   1.00
O344   O     0.75000   0.71027   0.23822   0.00000  Uiso   1.00
O345   O     0.75000   0.78973   0.23822   0.00000  Uiso   1.00
O346   O     0.75000   0.71027   0.09511   0.00000  Uiso   1.00
Zn347  Zn    0.75000   0.80307   0.16667   0.00000  Uiso   1.00
Zn348  Zn    0.75000   0.69693   0.16667   0.00000  Uiso   1.00
O349   O     0.61418   0.77629   0.25569   0.00000  Uiso   1.00
H350   H     0.64666   0.77025   0.25364   0.00000  Uiso   1.00
O351   O     0.88658   0.80104   0.09076   0.00000  Uiso   1.00
H352   H     0.85588   0.78897   0.08568   0.00000  Uiso   1.00
O353   O     0.88299   0.69888   0.23666   0.00000  Uiso   1.00
H354   H     0.90422   0.68306   0.25952   0.00000  Uiso   1.00
O355   O     0.61325   0.72419   0.07822   0.00000  Uiso   1.00
H356   H     0.64600   0.72807   0.08054   0.00000  Uiso   1.00
O357   O     0.69737   0.52822   0.09917   0.00000  Uiso   1.00
C358   C     0.72155   0.51073   0.05752   0.00000  Uiso   1.00
H359   H     0.75548   0.99831   0.06762   0.00000  Uiso   1.00
H360   H     0.72462   0.53899   0.02928   0.00000  Uiso   1.00
C361   C     0.69626   0.96890   0.03455   0.00000  Uiso   1.00
H362   H     0.68723   0.94376   0.06447   0.00000  Uiso   1.00
H363   H     0.66490   0.98157   0.01702   0.00000  Uiso   1.00
C364   C     0.72434   0.94271   0.32875   0.00000  Uiso   1.00
H365   H     0.73361   0.96652   0.29784   0.00000  Uiso   1.00
H366   H     0.70483   0.91277   0.31291   0.00000  Uiso   1.00
H367   H     0.75526   0.92855   0.01273   0.00000  Uiso   1.00
O368   O     0.83336   0.96803   0.16986   0.00000  Uiso   1.00
C369   C     0.84759   0.98263   0.12202   0.00000  Uiso   1.00
H370   H     0.87548   0.50796   0.12783   0.00000  Uiso   1.00
H371   H     0.82133   0.50235   0.10194   0.00000  Uiso   1.00
C372   C     0.86501   0.94111   0.09015   0.00000  Uiso   1.00
H373   H     0.89173   0.92244   0.11098   0.00000  Uiso   1.00
H374   H     0.83749   0.91585   0.08213   0.00000  Uiso   1.00
C375   C     0.88359   0.95790   0.04031   0.00000  Uiso   1.00
H376   H     0.85658   0.97433   0.01800   0.00000  Uiso   1.00
H377   H     0.89712   0.92736   0.01881   0.00000  Uiso   1.00
H378   H     0.91089   0.98386   0.04651   0.00000  Uiso   1.00
O379   O     0.80239   0.53020   0.23850   0.00000  Uiso   1.00
C380   C     0.79903   0.55003   0.28729   0.00000  Uiso   1.00
H381   H     0.79331   0.52067   0.31354   0.00000  Uiso   1.00
H382   H     0.77017   0.57453   0.29247   0.00000  Uiso   1.00
C383   C     0.84312   0.57383   0.30227   0.00000  Uiso   1.00
H384   H     0.87013   0.54697   0.30321   0.00000  Uiso   1.00
H385   H     0.85278   0.60061   0.27436   0.00000  Uiso   1.00
C386   C     0.83941   0.59764   0.02030   0.00000  Uiso   1.00
H387   H     0.81375   0.62595   0.01956   0.00000  Uiso   1.00
H388   H     0.87206   0.61358   0.03072   0.00000  Uiso   1.00
H389   H     0.83011   0.57150   0.04908   0.00000  Uiso   1.00
O390   O     0.66995   0.97108   0.17215   0.00000  Uiso   1.00
C391   C     0.65987   0.98420   0.22196   0.00000  Uiso   1.00
H392   H     0.65416   0.95219   0.24486   0.00000  Uiso   1.00
H393   H     0.68724   0.50573   0.23891   0.00000  Uiso   1.00
C394   C     0.61739   0.51407   0.22212   0.00000  Uiso   1.00
H395   H     0.62290   0.54596   0.19910   0.00000  Uiso   1.00
H396   H     0.58949   0.99342   0.20526   0.00000  Uiso   1.00
C397   C     0.60443   0.52937   0.27510   0.00000  Uiso   1.00
H398   H     0.59703   0.99804   0.29821   0.00000  Uiso   1.00
H399   H     0.57406   0.55183   0.27370   0.00000  Uiso   1.00
H400   H     0.63192   0.55001   0.29277   0.00000  Uiso   1.00
C401   C     0.16412   0.25002   0.50008   0.00000  Uiso   1.00
C402   C     0.33600   0.24999   0.49942   0.00000  Uiso   1.00
C403   C     0.22507   0.10130   0.46631   0.00000  Uiso   1.00
C404   C     0.28974   0.39720   0.50052   0.00000  Uiso   1.00
C405   C     0.27578   0.10364   0.53402   0.00000  Uiso   1.00
C406   C     0.21093   0.39839   0.50200   0.00000  Uiso   1.00
C407   C     0.22580   0.05169   0.46527   0.00000  Uiso   1.00
C408   C     0.29170   0.44683   0.50027   0.00000  Uiso   1.00
C409   C     0.27632   0.05369   0.53683   0.00000  Uiso   1.00
C410   C     0.21066   0.44804   0.50441   0.00000  Uiso   1.00
C411   C     0.25004   0.24982   0.40619   0.00000  Uiso   1.00
C412   C     0.25007   0.25017   0.59381   0.00000  Uiso   1.00
C413   C     0.25167   0.02691   0.50112   0.00000  Uiso   1.00
C414   C     0.25148   0.47347   0.50222   0.00000  Uiso   1.00
C415   C     0.25006   0.24974   0.35512   0.00000  Uiso   1.00
C416   C     0.25007   0.25023   0.64488   0.00000  Uiso   1.00
C417   C     0.04720   0.26473   0.54372   0.00000  Uiso   1.00
C418   C     0.45333   0.27778   0.46416   0.00000  Uiso   1.00
C419   C     0.45326   0.22548   0.53561   0.00000  Uiso   1.00
C420   C     0.04678   0.23826   0.45690   0.00000  Uiso   1.00
C421   C     0.09340   0.26387   0.54450   0.00000  Uiso   1.00
C422   C     0.40718   0.27657   0.46215   0.00000  Uiso   1.00
C423   C     0.40677   0.22415   0.53494   0.00000  Uiso   1.00
C424   C     0.09295   0.23732   0.45612   0.00000  Uiso   1.00
C425   C     0.11640   0.25016   0.50030   0.00000  Uiso   1.00
C426   C     0.38392   0.24995   0.49831   0.00000  Uiso   1.00
C427   C     0.02420   0.25196   0.50029   0.00000  Uiso   1.00
C428   C     0.47609   0.25215   0.50036   0.00000  Uiso   1.00
H429   H     0.20443   0.12005   0.43987   0.00000  Uiso   1.00
H430   H     0.32060   0.37744   0.50076   0.00000  Uiso   1.00
H431   H     0.29562   0.12491   0.55931   0.00000  Uiso   1.00
H432   H     0.17951   0.37960   0.50242   0.00000  Uiso   1.00
H433   H     0.02911   0.27533   0.57716   0.00000  Uiso   1.00
H434   H     0.47160   0.29820   0.43688   0.00000  Uiso   1.00
H435   H     0.47171   0.20556   0.56317   0.00000  Uiso   1.00
H436   H     0.02836   0.22812   0.42351   0.00000  Uiso   1.00
N437   N     0.25000   0.12623   0.50000   0.00000  Uiso   1.00
N438   N     0.25000   0.37377   0.50000   0.00000  Uiso   1.00
O439   O     0.18453   0.28974   0.50000   0.00000  Uiso   1.00
O440   O     0.31547   0.21026   0.50000   0.00000  Uiso   1.00
O441   O     0.31547   0.28974   0.50000   0.00000  Uiso   1.00
O442   O     0.18453   0.21026   0.50000   0.00000  Uiso   1.00
O443   O     0.25000   0.28973   0.42845   0.00000  Uiso   1.00
O444   O     0.25000   0.21027   0.57155   0.00000  Uiso   1.00
O445   O     0.25000   0.28973   0.57155   0.00000  Uiso   1.00
O446   O     0.25000   0.21027   0.42845   0.00000  Uiso   1.00
Zn447  Zn    0.25000   0.30307   0.50000   0.00000  Uiso   1.00
Zn448  Zn    0.25000   0.19693   0.50000   0.00000  Uiso   1.00
O449   O     0.11418   0.27629   0.58903   0.00000  Uiso   1.00
H450   H     0.14666   0.27025   0.58698   0.00000  Uiso   1.00
O451   O     0.38658   0.30104   0.42409   0.00000  Uiso   1.00
H452   H     0.35588   0.28897   0.41902   0.00000  Uiso   1.00
O453   O     0.38299   0.19888   0.56999   0.00000  Uiso   1.00
H454   H     0.40422   0.18306   0.59286   0.00000  Uiso   1.00
O455   O     0.11325   0.22419   0.41155   0.00000  Uiso   1.00
H456   H     0.14600   0.22807   0.41387   0.00000  Uiso   1.00
O457   O     0.19737   0.02822   0.43250   0.00000  Uiso   1.00
C458   C     0.22155   0.01073   0.39085   0.00000  Uiso   1.00
H459   H     0.25548   0.49831   0.40095   0.00000  Uiso   1.00
H460   H     0.22462   0.03899   0.36262   0.00000  Uiso   1.00
C461   C     0.19626   0.46890   0.36788   0.00000  Uiso   1.00
H462   H     0.18723   0.44376   0.39780   0.00000  Uiso   1.00
H463   H     0.16490   0.48157   0.35035   0.00000  Uiso   1.00
C464   C     0.22434   0.44271   0.66208   0.00000  Uiso   1.00
H465   H     0.23361   0.46652   0.63118   0.00000  Uiso   1.00
H466   H     0.20483   0.41277   0.64624   0.00000  Uiso   1.00
H467   H     0.25526   0.42855   0.34607   0.00000  Uiso   1.00
O468   O     0.33336   0.46803   0.50319   0.00000  Uiso   1.00
C469   C     0.34759   0.48263   0.45536   0.00000  Uiso   1.00
H470   H     0.37548   0.00796   0.46117   0.00000  Uiso   1.00
H471   H     0.32133   0.00235   0.43527   0.00000  Uiso   1.00
C472   C     0.36501   0.44111   0.42349   0.00000  Uiso   1.00
H473   H     0.39173   0.42244   0.44431   0.00000  Uiso   1.00
H474   H     0.33749   0.41585   0.41547   0.00000  Uiso   1.00
C475   C     0.38359   0.45790   0.37364   0.00000  Uiso   1.00
H476   H     0.35658   0.47433   0.35134   0.00000  Uiso   1.00
H477   H     0.39712   0.42736   0.35214   0.00000  Uiso   1.00
H478   H     0.41089   0.48386   0.37985   0.00000  Uiso   1.00
O479   O     0.30239   0.03020   0.57183   0.00000  Uiso   1.00
C480   C     0.29903   0.05003   0.62062   0.00000  Uiso   1.00
H481   H     0.29331   0.02067   0.64687   0.00000  Uiso   1.00
H482   H     0.27017   0.07453   0.62580   0.00000  Uiso   1.00
C483   C     0.34312   0.07383   0.63560   0.00000  Uiso   1.00
H484   H     0.37013   0.04697   0.63655   0.00000  Uiso   1.00
H485   H     0.35278   0.10061   0.60769   0.00000  Uiso   1.00
C486   C     0.33941   0.09764   0.35364   0.00000  Uiso   1.00
H487   H     0.31375   0.12595   0.35289   0.00000  Uiso   1.00
H488   H     0.37206   0.11358   0.36405   0.00000  Uiso   1.00
H489   H     0.33011   0.07150   0.38241   0.00000  Uiso   1.00
O490   O     0.16995   0.47108   0.50548   0.00000  Uiso   1.00
C491   C     0.15987   0.48420   0.55529   0.00000  Uiso   1.00
H492   H     0.15416   0.45219   0.57819   0.00000  Uiso   1.00
H493   H     0.18724   0.00573   0.57224   0.00000  Uiso   1.00
C494   C     0.11739   0.01407   0.55545   0.00000  Uiso   1.00
H495   H     0.12290   0.04596   0.53243   0.00000  Uiso   1.00
H496   H     0.08949   0.49342   0.53860   0.00000  Uiso   1.00
C497   C     0.10443   0.02937   0.60843   0.00000  Uiso   1.00
H498   H     0.09703   0.49804   0.63154   0.00000  Uiso   1.00
H499   H     0.07406   0.05183   0.60704   0.00000  Uiso   1.00
H500   H     0.13192   0.05001   0.62610   0.00000  Uiso   1.00
C501   C     0.66412   0.25002   0.50008   0.00000  Uiso   1.00
C502   C     0.83600   0.24999   0.49942   0.00000  Uiso   1.00
C503   C     0.72507   0.10130   0.46631   0.00000  Uiso   1.00
C504   C     0.78974   0.39720   0.50052   0.00000  Uiso   1.00
C505   C     0.77578   0.10364   0.53402   0.00000  Uiso   1.00
C506   C     0.71093   0.39839   0.50200   0.00000  Uiso   1.00
C507   C     0.72580   0.05169   0.46527   0.00000  Uiso   1.00
C508   C     0.79170   0.44683   0.50027   0.00000  Uiso   1.00
C509   C     0.77632   0.05369   0.53683   0.00000  Uiso   1.00
C510   C     0.71066   0.44804   0.50441   0.00000  Uiso   1.00
C511   C     0.75004   0.24982   0.40619   0.00000  Uiso   1.00
C512   C     0.75007   0.25017   0.59381   0.00000  Uiso   1.00
C513   C     0.75167   0.02691   0.50112   0.00000  Uiso   1.00
C514   C     0.75148   0.47347   0.50222   0.00000  Uiso   1.00
C515   C     0.75006   0.24974   0.35512   0.00000  Uiso   1.00
C516   C     0.75007   0.25023   0.64488   0.00000  Uiso   1.00
C517   C     0.54720   0.26473   0.54372   0.00000  Uiso   1.00
C518   C     0.95333   0.27778   0.46416   0.00000  Uiso   1.00
C519   C     0.95326   0.22548   0.53561   0.00000  Uiso   1.00
C520   C     0.54678   0.23826   0.45690   0.00000  Uiso   1.00
C521   C     0.59340   0.26387   0.54450   0.00000  Uiso   1.00
C522   C     0.90718   0.27657   0.46215   0.00000  Uiso   1.00
C523   C     0.90677   0.22415   0.53494   0.00000  Uiso   1.00
C524   C     0.59295   0.23732   0.45612   0.00000  Uiso   1.00
C525   C     0.61640   0.25016   0.50030   0.00000  Uiso   1.00
C526   C     0.88392   0.24995   0.49831   0.00000  Uiso   1.00
C527   C     0.52420   0.25196   0.50029   0.00000  Uiso   1.00
C528   C     0.97609   0.25215   0.50036   0.00000  Uiso   1.00
H529   H     0.70443   0.12005   0.43987   0.00000  Uiso   1.00
H530   H     0.82060   0.37744   0.50076   0.00000  Uiso   1.00
H531   H     0.79562   0.12491   0.55931   0.00000  Uiso   1.00
H532   H     0.67951   0.37960   0.50242   0.00000  Uiso   1.00
H533   H     0.52911   0.27533   0.57716   0.00000  Uiso   1.00
H534   H     0.97160   0.29820   0.43688   0.00000  Uiso   1.00
H535   H     0.97171   0.20556   0.56317   0.00000  Uiso   1.00
H536   H     0.52836   0.22812   0.42351   0.00000  Uiso   1.00
N537   N     0.75000   0.12623   0.50000   0.00000  Uiso   1.00
N538   N     0.75000   0.37377   0.50000   0.00000  Uiso   1.00
O539   O     0.68453   0.28974   0.50000   0.00000  Uiso   1.00
O540   O     0.81547   0.21026   0.50000   0.00000  Uiso   1.00
O541   O     0.81547   0.28974   0.50000   0.00000  Uiso   1.00
O542   O     0.68453   0.21026   0.50000   0.00000  Uiso   1.00
O543   O     0.75000   0.28973   0.42845   0.00000  Uiso   1.00
O544   O     0.75000   0.21027   0.57155   0.00000  Uiso   1.00
O545   O     0.75000   0.28973   0.57155   0.00000  Uiso   1.00
O546   O     0.75000   0.21027   0.42845   0.00000  Uiso   1.00
Zn547  Zn    0.75000   0.30307   0.50000   0.00000  Uiso   1.00
Zn548  Zn    0.75000   0.19693   0.50000   0.00000  Uiso   1.00
O549   O     0.61418   0.27629   0.58903   0.00000  Uiso   1.00
H550   H     0.64666   0.27025   0.58698   0.00000  Uiso   1.00
O551   O     0.88658   0.30104   0.42409   0.00000  Uiso   1.00
H552   H     0.85588   0.28897   0.41902   0.00000  Uiso   1.00
O553   O     0.88299   0.19888   0.56999   0.00000  Uiso   1.00
H554   H     0.90422   0.18306   0.59286   0.00000  Uiso   1.00
O555   O     0.61325   0.22419   0.41155   0.00000  Uiso   1.00
H556   H     0.64600   0.22807   0.41387   0.00000  Uiso   1.00
O557   O     0.69737   0.02822   0.43250   0.00000  Uiso   1.00
C558   C     0.72155   0.01073   0.39085   0.00000  Uiso   1.00
H559   H     0.75548   0.49831   0.40095   0.00000  Uiso   1.00
H560   H     0.72462   0.03899   0.36262   0.00000  Uiso   1.00
C561   C     0.69626   0.46890   0.36788   0.00000  Uiso   1.00
H562   H     0.68723   0.44376   0.39780   0.00000  Uiso   1.00
H563   H     0.66490   0.48157   0.35035   0.00000  Uiso   1.00
C564   C     0.72434   0.44271   0.66208   0.00000  Uiso   1.00
H565   H     0.73361   0.46652   0.63118   0.00000  Uiso   1.00
H566   H     0.70483   0.41277   0.64624   0.00000  Uiso   1.00
H567   H     0.75526   0.42855   0.34607   0.00000  Uiso   1.00
O568   O     0.83336   0.46803   0.50319   0.00000  Uiso   1.00
C569   C     0.84759   0.48263   0.45536   0.00000  Uiso   1.00
H570   H     0.87548   0.00796   0.46117   0.00000  Uiso   1.00
H571   H     0.82133   0.00235   0.43527   0.00000  Uiso   1.00
C572   C     0.86501   0.44111   0.42349   0.00000  Uiso   1.00
H573   H     0.89173   0.42244   0.44431   0.00000  Uiso   1.00
H574   H     0.83749   0.41585   0.41547   0.00000  Uiso   1.00
C575   C     0.88359   0.45790   0.37364   0.00000  Uiso   1.00
H576   H     0.85658   0.47433   0.35134   0.00000  Uiso   1.00
H577   H     0.89712   0.42736   0.35214   0.00000  Uiso   1.00
H578   H     0.91089   0.48386   0.37985   0.00000  Uiso   1.00
O579   O     0.80239   0.03020   0.57183   0.00000  Uiso   1.00
C580   C     0.79903   0.05003   0.62062   0.00000  Uiso   1.00
H581   H     0.79331   0.02067   0.64687   0.00000  Uiso   1.00
H582   H     0.77017   0.07453   0.62580   0.00000  Uiso   1.00
C583   C     0.84312   0.07383   0.63560   0.00000  Uiso   1.00
H584   H     0.87013   0.04697   0.63655   0.00000  Uiso   1.00
H585   H     0.85278   0.10061   0.60769   0.00000  Uiso   1.00
C586   C     0.83941   0.09764   0.35364   0.00000  Uiso   1.00
H587   H     0.81375   0.12595   0.35289   0.00000  Uiso   1.00
H588   H     0.87206   0.11358   0.36405   0.00000  Uiso   1.00
H589   H     0.83011   0.07150   0.38241   0.00000  Uiso   1.00
O590   O     0.66995   0.47108   0.50548   0.00000  Uiso   1.00
C591   C     0.65987   0.48420   0.55529   0.00000  Uiso   1.00
H592   H     0.65416   0.45219   0.57819   0.00000  Uiso   1.00
H593   H     0.68724   0.00573   0.57224   0.00000  Uiso   1.00
C594   C     0.61739   0.01407   0.55545   0.00000  Uiso   1.00
H595   H     0.62290   0.04596   0.53243   0.00000  Uiso   1.00
H596   H     0.58949   0.49342   0.53860   0.00000  Uiso   1.00
C597   C     0.60443   0.02937   0.60843   0.00000  Uiso   1.00
H598   H     0.59703   0.49804   0.63154   0.00000  Uiso   1.00
H599   H     0.57406   0.05183   0.60704   0.00000  Uiso   1.00
H600   H     0.63192   0.05001   0.62610   0.00000  Uiso   1.00
C601   C     0.16412   0.75002   0.50008   0.00000  Uiso   1.00
C602   C     0.33600   0.74999   0.49942   0.00000  Uiso   1.00
C603   C     0.22507   0.60130   0.46631   0.00000  Uiso   1.00
C604   C     0.28974   0.89720   0.50052   0.00000  Uiso   1.00
C605   C     0.27578   0.60364   0.53402   0.00000  Uiso   1.00
C606   C     0.21093   0.89839   0.50200   0.00000  Uiso   1.00
C607   C     0.22580   0.55169   0.46527   0.00000  Uiso   1.00
C608   C     0.29170   0.94683   0.50027   0.00000  Uiso   1.00
C609   C     0.27632   0.55369   0.53683   0.00000  Uiso   1.00
C610   C     0.21066   0.94804   0.50441   0.00000  Uiso   1.00
C611   C     0.25004   0.74982   0.40619   0.00000  Uiso   1.00
C612   C     0.25007   0.75017   0.59381   0.00000  Uiso   1.00
C613   C     0.25167   0.52691   0.50112   0.00000  Uiso   1.00
C614   C     0.25148   0.97347   0.50222   0.00000  Uiso   1.00
C615   C     0.25006   0.74974   0.35512   0.00000  Uiso   1.00
C616   C     0.25007   0.75023   0.64488   0.00000  Uiso   1.00
C617   C     0.04720   0.76473   0.54372   0.00000  Uiso   1.00
C618   C     0.45333   0.77778   0.46416   0.00000  Uiso   1.00
C619   C     0.45326   0.72548   0.53561   0.00000  Uiso   1.00
C620   C     0.04678   0.73826   0.45690   0.00000  Uiso   1.00
C621   C     0.09340   0.76387   0.54450   0.00000  Uiso   1.00
C622   C     0.40718   0.77657   0.46215   0.00000  Uiso   1.00
C623   C     0.40677   0.72415   0.53494   0.00000  Uiso   1.00
C624   C     0.09295   0.73732   0.45612   0.00000  Uiso   1.00
C625   C     0.11640   0.75016   0.50030   0.00000  Uiso   1.00
C626   C     0.38392   0.74995   0.49831   0.00000  Uiso   1.00
C627   C     0.02420   0.75196   0.50029   0.00000  Uiso   1.00
C628   C     0.47609   0.75215   0.50036   0.00000  Uiso   1.00
H629   H     0.20443   0.62005   0.43987   0.00000  Uiso   1.00
H630   H     0.32060   0.87744   0.50076   0.00000  Uiso   1.00
H631   H     0.29562   0.62491   0.55931   0.00000  Uiso   1.00
H632   H     0.17951   0.87960   0.50242   0.00000  Uiso   1.00
H633   H     0.02911   0.77533   0.57716   0.00000  Uiso   1.00
H634   H     0.47160   0.79820   0.43688   0.00000  Uiso   1.00
H635   H     0.47171   0.70556   0.56317   0.00000  Uiso   1.00
H636   H     0.02836   0.72812   0.42351   0.00000  Uiso   1.00
N637   N     0.25000   0.62623   0.50000   0.00000  Uiso   1.00
N638   N     0.25000   0.87377   0.50000   0.00000  Uiso   1.00
O639   O     0.18453   0.78974   0.50000   0.00000  Uiso   1.00
O640   O     0.31547   0.71026   0.50000   0.00000  Uiso   1.00
O641   O     0.31547   0.78974   0.50000   0.00000  Uiso   1.00
O642   O     0.18453   0.71026   0.50000   0.00000  Uiso   1.00
O643   O     0.25000   0.78973   0.42845   0.00000  Uiso   1.00
O644   O     0.25000   0.71027   0.57155   0.00000  Uiso   1.00
O645   O     0.25000   0.78973   0.57155   0.00000  Uiso   1.00
O646   O     0.25000   0.71027   0.42845   0.00000  Uiso   1.00
Zn647  Zn    0.25000   0.80307   0.50000   0.00000  Uiso   1.00
Zn648  Zn    0.25000   0.69693   0.50000   0.00000  Uiso   1.00
O649   O     0.11418   0.77629   0.58903   0.00000  Uiso   1.00
H650   H     0.14666   0.77025   0.58698   0.00000  Uiso   1.00
O651   O     0.38658   0.80104   0.42409   0.00000  Uiso   1.00
H652   H     0.35588   0.78897   0.41902   0.00000  Uiso   1.00
O653   O     0.38299   0.69888   0.56999   0.00000  Uiso   1.00
H654   H     0.40422   0.68306   0.59286   0.00000  Uiso   1.00
O655   O     0.11325   0.72419   0.41155   0.00000  Uiso   1.00
H656   H     0.14600   0.72807   0.41387   0.00000  Uiso   1.00
O657   O     0.19737   0.52822   0.43250   0.00000  Uiso   1.00
C658   C     0.22155   0.51073   0.39085   0.00000  Uiso   1.00
H659   H     0.25548   0.99831   0.40095   0.00000  Uiso   1.00
H660   H     0.22462   0.53899   0.36262   0.00000  Uiso   1.00
C661   C     0.19626   0.96890   0.36788   0.00000  Uiso   1.00
H662   H     0.18723   0.94376   0.39780   0.00000  Uiso   1.00
H663   H     0.16490   0.98157   0.35035   0.00000  Uiso   1.00
C664   C     0.22434   0.94271   0.66208   0.00000  Uiso   1.00
H665   H     0.23361   0.96652   0.63118   0.00000  Uiso   1.00
H666   H     0.20483   0.91277   0.64624   0.00000  Uiso   1.00
H667   H     0.25526   0.92855   0.34607   0.00000  Uiso   1.00
O668   O     0.33336   0.96803   0.50319   0.00000  Uiso   1.00
C669   C     0.34759   0.98263   0.45536   0.00000  Uiso   1.00
H670   H     0.37548   0.50796   0.46117   0.00000  Uiso   1.00
H671   H     0.32133   0.50235   0.43527   0.00000  Uiso   1.00
C672   C     0.36501   0.94111   0.42349   0.00000  Uiso   1.00
H673   H     0.39173   0.92244   0.44431   0.00000  Uiso   1.00
H674   H     0.33749   0.91585   0.41547   0.00000  Uiso   1.00
C675   C     0.38359   0.95790   0.37364   0.00000  Uiso   1.00
H676   H     0.35658   0.97433   0.35134   0.00000  Uiso   1.00
H677   H     0.39712   0.92736   0.35214   0.00000  Uiso   1.00
H678   H     0.41089   0.98386   0.37985   0.00000  Uiso   1.00
O679   O     0.30239   0.53020   0.57183   0.00000  Uiso   1.00
C680   C     0.29903   0.55003   0.62062   0.00000  Uiso   1.00
H681   H     0.29331   0.52067   0.64687   0.00000  Uiso   1.00
H682   H     0.27017   0.57453   0.62580   0.00000  Uiso   1.00
C683   C     0.34312   0.57383   0.63560   0.00000  Uiso   1.00
H684   H     0.37013   0.54697   0.63655   0.00000  Uiso   1.00
H685   H     0.35278   0.60061   0.60769   0.00000  Uiso   1.00
C686   C     0.33941   0.59764   0.35364   0.00000  Uiso   1.00
H687   H     0.31375   0.62595   0.35289   0.00000  Uiso   1.00
H688   H     0.37206   0.61358   0.36405   0.00000  Uiso   1.00
H689   H     0.33011   0.57150   0.38241   0.00000  Uiso   1.00
O690   O     0.16995   0.97108   0.50548   0.00000  Uiso   1.00
C691   C     0.15987   0.98420   0.55529   0.00000  Uiso   1.00
H692   H     0.15416   0.95219   0.57819   0.00000  Uiso   1.00
H693   H     0.18724   0.50573   0.57224   0.00000  Uiso   1.00
C694   C     0.11739   0.51407   0.55545   0.00000  Uiso   1.00
H695   H     0.12290   0.54596   0.53243   0.00000  Uiso   1.00
H696   H     0.08949   0.99342   0.53860   0.00000  Uiso   1.00
C697   C     0.10443   0.52937   0.60843   0.00000  Uiso   1.00
H698   H     0.09703   0.99804   0.63154   0.00000  Uiso   1.00
H699   H     0.07406   0.55183   0.60704   0.00000  Uiso   1.00
H700   H     0.13192   0.55001   0.62610   0.00000  Uiso   1.00
C701   C     0.66412   0.75002   0.50008   0.00000  Uiso   1.00
C702   C     0.83600   0.74999   0.49942   0.00000  Uiso   1.00
C703   C     0.72507   0.60130   0.46631   0.00000  Uiso   1.00
C704   C     0.78974   0.89720   0.50052   0.00000  Uiso   1.00
C705   C     0.77578   0.60364   0.53402   0.00000  Uiso   1.00
C706   C     0.71093   0.89839   0.50200   0.00000  Uiso   1.00
C707   C     0.72580   0.55169   0.46527   0.00000  Uiso   1.00
C708   C     0.79170   0.94683   0.50027   0.00000  Uiso   1.00
C709   C     0.77632   0.55369   0.53683   0.00000  Uiso   1.00
C710   C     0.71066   0.94804   0.50441   0.00000  Uiso   1.00
C711   C     0.75004   0.74982   0.40619   0.00000  Uiso   1.00
C712   C     0.75007   0.75017   0.59381   0.00000  Uiso   1.00
C713   C     0.75167   0.52691   0.50112   0.00000  Uiso   1.00
C714   C     0.75148   0.97347   0.50222   0.00000  Uiso   1.00
C715   C     0.75006   0.74974   0.35512   0.00000  Uiso   1.00
C716   C     0.75007   0.75023   0.64488   0.00000  Uiso   1.00
C717   C     0.54720   0.76473   0.54372   0.00000  Uiso   1.00
C718   C     0.95333   0.77778   0.46416   0.00000  Uiso   1.00
C719   C     0.95326   0.72548   0.53561   0.00000  Uiso   1.00
C720   C     0.54678   0.73826   0.45690   0.00000  Uiso   1.00
C721   C     0.59340   0.76387   0.54450   0.00000  Uiso   1.00
C722   C     0.90718   0.77657   0.46215   0.00000  Uiso   1.00
C723   C     0.90677   0.72415   0.53494   0.00000  Uiso   1.00
C724   C     0.59295   0.73732   0.45612   0.00000  Uiso   1.00
C725   C     0.61640   0.75016   0.50030   0.00000  Uiso   1.00
C726   C     0.88392   0.74995   0.49831   0.00000  Uiso   1.00
C727   C     0.52420   0.75196   0.50029   0.00000  Uiso   1.00
C728   C     0.97609   0.75215   0.50036   0.00000  Uiso   1.00
H729   H     0.70443   0.62005   0.43987   0.00000  Uiso   1.00
H730   H     0.82060   0.87744   0.50076   0.00000  Uiso   1.00
H731   H     0.79562   0.62491   0.55931   0.00000  Uiso   1.00
H732   H     0.67951   0.87960   0.50242   0.00000  Uiso   1.00
H733   H     0.52911   0.77533   0.57716   0.00000  Uiso   1.00
H734   H     0.97160   0.79820   0.43688   0.00000  Uiso   1.00
H735   H     0.97171   0.70556   0.56317   0.00000  Uiso   1.00
H736   H     0.52836   0.72812   0.42351   0.00000  Uiso   1.00
N737   N     0.75000   0.62623   0.50000   0.00000  Uiso   1.00
N738   N     0.75000   0.87377   0.50000   0.00000  Uiso   1.00
O739   O     0.68453   0.78974   0.50000   0.00000  Uiso   1.00
O740   O     0.81547   0.71026   0.50000   0.00000  Uiso   1.00
O741   O     0.81547   0.78974   0.50000   0.00000  Uiso   1.00
O742   O     0.68453   0.71026   0.50000   0.00000  Uiso   1.00
O743   O     0.75000   0.78973   0.42845   0.00000  Uiso   1.00
O744   O     0.75000   0.71027   0.57155   0.00000  Uiso   1.00
O745   O     0.75000   0.78973   0.57155   0.00000  Uiso   1.00
O746   O     0.75000   0.71027   0.42845   0.00000  Uiso   1.00
Zn747  Zn    0.75000   0.80307   0.50000   0.00000  Uiso   1.00
Zn748  Zn    0.75000   0.69693   0.50000   0.00000  Uiso   1.00
O749   O     0.61418   0.77629   0.58903   0.00000  Uiso   1.00
H750   H     0.64666   0.77025   0.58698   0.00000  Uiso   1.00
O751   O     0.88658   0.80104   0.42409   0.00000  Uiso   1.00
H752   H     0.85588   0.78897   0.41902   0.00000  Uiso   1.00
O753   O     0.88299   0.69888   0.56999   0.00000  Uiso   1.00
H754   H     0.90422   0.68306   0.59286   0.00000  Uiso   1.00
O755   O     0.61325   0.72419   0.41155   0.00000  Uiso   1.00
H756   H     0.64600   0.72807   0.41387   0.00000  Uiso   1.00
O757   O     0.69737   0.52822   0.43250   0.00000  Uiso   1.00
C758   C     0.72155   0.51073   0.39085   0.00000  Uiso   1.00
H759   H     0.75548   0.99831   0.40095   0.00000  Uiso   1.00
H760   H     0.72462   0.53899   0.36262   0.00000  Uiso   1.00
C761   C     0.69626   0.96890   0.36788   0.00000  Uiso   1.00
H762   H     0.68723   0.94376   0.39780   0.00000  Uiso   1.00
H763   H     0.66490   0.98157   0.35035   0.00000  Uiso   1.00
C764   C     0.72434   0.94271   0.66208   0.00000  Uiso   1.00
H765   H     0.73361   0.96652   0.63118   0.00000  Uiso   1.00
H766   H     0.70483   0.91277   0.64624   0.00000  Uiso   1.00
H767   H     0.75526   0.92855   0.34607   0.00000  Uiso   1.00
O768   O     0.83336   0.96803   0.50319   0.00000  Uiso   1.00
C769   C     0.84759   0.98263   0.45536   0.00000  Uiso   1.00
H770   H     0.87548   0.50796   0.46117   0.00000  Uiso   1.00
H771   H     0.82133   0.50235   0.43527   0.00000  Uiso   1.00
C772   C     0.86501   0.94111   0.42349   0.00000  Uiso   1.00
H773   H     0.89173   0.92244   0.44431   0.00000  Uiso   1.00
H774   H     0.83749   0.91585   0.41547   0.00000  Uiso   1.00
C775   C     0.88359   0.95790   0.37364   0.00000  Uiso   1.00
H776   H     0.85658   0.97433   0.35134   0.00000  Uiso   1.00
H777   H     0.89712   0.92736   0.35214   0.00000  Uiso   1.00
H778   H     0.91089   0.98386   0.37985   0.00000  Uiso   1.00
O779   O     0.80239   0.53020   0.57183   0.00000  Uiso   1.00
C780   C     0.79903   0.55003   0.62062   0.00000  Uiso   1.00
H781   H     0.79331   0.52067   0.64687   0.00000  Uiso   1.00
H782   H     0.77017   0.57453   0.62580   0.00000  Uiso   1.00
C783   C     0.84312   0.57383   0.63560   0.00000  Uiso   1.00
H784   H     0.87013   0.54697   0.63655   0.00000  Uiso   1.00
H785   H     0.85278   0.60061   0.60769   0.00000  Uiso   1.00
C786   C     0.83941   0.59764   0.35364   0.00000  Uiso   1.00
H787   H     0.81375   0.62595   0.35289   0.00000  Uiso   1.00
H788   H     0.87206   0.61358   0.36405   0.00000  Uiso   1.00
H789   H     0.83011   0.57150   0.38241   0.00000  Uiso   1.00
O790   O     0.66995   0.97108   0.50548   0.00000  Uiso   1.00
C791   C     0.65987   0.98420   0.55529   0.00000  Uiso   1.00
H792   H     0.65416   0.95219   0.57819   0.00000  Uiso   1.00
H793   H     0.68724   0.50573   0.57224   0.00000  Uiso   1.00
C794   C     0.61739   0.51407   0.55545   0.00000  Uiso   1.00
H795   H     0.62290   0.54596   0.53243   0.00000  Uiso   1.00
H796   H     0.58949   0.99342   0.53860   0.00000  Uiso   1.00
C797   C     0.60443   0.52937   0.60843   0.00000  Uiso   1.00
H798   H     0.59703   0.99804   0.63154   0.00000  Uiso   1.00
H799   H     0.57406   0.55183   0.60704   0.00000  Uiso   1.00
H800   H     0.63192   0.55001   0.62610   0.00000  Uiso   1.00
C801   C     0.16412   0.25002   0.83342   0.00000  Uiso   1.00
C802   C     0.33600   0.24999   0.83275   0.00000  Uiso   1.00
C803   C     0.22507   0.10130   0.79965   0.00000  Uiso   1.00
C804   C     0.28974   0.39720   0.83386   0.00000  Uiso   1.00
C805   C     0.27578   0.10364   0.86735   0.00000  Uiso   1.00
C806   C     0.21093   0.39839   0.83534   0.00000  Uiso   1.00
C807   C     0.22580   0.05169   0.79860   0.00000  Uiso   1.00
C808   C     0.29170   0.44683   0.83360   0.00000  Uiso   1.00
C809   C     0.27632   0.05369   0.87016   0.00000  Uiso   1.00
C810   C     0.21066   0.44804   0.83774   0.00000  Uiso   1.00
C811   C     0.25004   0.24982   0.73952   0.00000  Uiso   1.00
C812   C     0.25007   0.25017   0.92715   0.00000  Uiso   1.00
C813   C     0.25167   0.02691   0.83445   0.00000  Uiso   1.00
C814   C     0.25148   0.47347   0.83555   0.00000  Uiso   1.00
C815   C     0.25006   0.24974   0.68845   0.00000  Uiso   1.00
C816   C     0.25007   0.25023   0.97821   0.00000  Uiso   1.00
C817   C     0.04720   0.26473   0.87705   0.00000  Uiso   1.00
C818   C     0.45333   0.27778   0.79750   0.00000  Uiso   1.00
C819   C     0.45326   0.22548   0.86894   0.00000  Uiso   1.00
C820   C     0.04678   0.23826   0.79024   0.00000  Uiso   1.00
C821   C     0.09340   0.26387   0.87783   0.00000  Uiso   1.00
C822   C     0.40718   0.27657   0.79549   0.00000  Uiso   1.00
C823   C     0.40677   0.22415   0.86828   0.00000  Uiso   1.00
C824   C     0.09295   0.23732   0.78945   0.00000  Uiso   1.00
C825   C     0.11640   0.25016   0.83364   0.00000  Uiso   1.00
C826   C     0.38392   0.24995   0.83164   0.00000  Uiso   1.00
C827   C     0.02420   0.25196   0.83363   0.00000  Uiso   1.00
C828   C     0.47609   0.25215   0.83369   0.00000  Uiso   1.00
H829   H     0.20443   0.12005   0.77320   0.00000  Uiso   1.00
H830   H     0.32060   0.37744   0.83409   0.00000  Uiso   1.00
H831   H     0.29562   0.12491   0.89264   0.00000  Uiso   1.00
H832   H     0.17951   0.37960   0.83575   0.00000  Uiso   1.00
H833   H     0.02911   0.27533   0.91049   0.00000  Uiso   1.00
H834   H     0.47160   0.29820   0.77022   0.00000  Uiso   1.00
H835   H     0.47171   0.20556   0.89651   0.00000  Uiso   1.00
H836   H     0.02836   0.22812   0.75684   0.00000  Uiso   1.00
N837   N     0.25000   0.12623   0.83333   0.00000  Uiso   1.00
N838   N     0.25000   0.37377   0.83333   0.00000  Uiso   1.00
O839   O     0.18453   0.28974   0.83334   0.00000  Uiso   1.00
O840   O     0.31547   0.21026   0.83333   0.00000  Uiso   1.00
O841   O     0.31547   0.28974   0.83333   0.00000  Uiso   1.00
O842   O     0.18453   0.21026   0.83334   0.00000  Uiso   1.00
O843   O     0.25000   0.28973   0.76178   0.00000  Uiso   1.00
O844   O     0.25000   0.21027   0.90489   0.00000  Uiso   1.00
O845   O     0.25000   0.28973   0.90489   0.00000  Uiso   1.00
O846   O     0.25000   0.21027   0.76178   0.00000  Uiso   1.00
Zn847  Zn    0.25000   0.30307   0.83333   0.00000  Uiso   1.00
Zn848  Zn    0.25000   0.19693   0.83333   0.00000  Uiso   1.00
O849   O     0.11418   0.27629   0.92236   0.00000  Uiso   1.00
H850   H     0.14666   0.27025   0.92031   0.00000  Uiso   1.00
O851   O     0.38658   0.30104   0.75743   0.00000  Uiso   1.00
H852   H     0.35588   0.28897   0.75235   0.00000  Uiso   1.00
O853   O     0.38299   0.19888   0.90333   0.00000  Uiso   1.00
H854   H     0.40422   0.18306   0.92619   0.00000  Uiso   1.00
O855   O     0.11325   0.22419   0.74488   0.00000  Uiso   1.00
H856   H     0.14600   0.22807   0.74721   0.00000  Uiso   1.00
O857   O     0.19737   0.02822   0.76584   0.00000  Uiso   1.00
C858   C     0.22155   0.01073   0.72419   0.00000  Uiso   1.00
H859   H     0.25548   0.49831   0.73428   0.00000  Uiso   1.00
H860   H     0.22462   0.03899   0.69595   0.00000  Uiso   1.00
C861   C     0.19626   0.46890   0.70121   0.00000  Uiso   1.00
H862   H     0.18723   0.44376   0.73114   0.00000  Uiso   1.00
H863   H     0.16490   0.48157   0.68369   0.00000  Uiso   1.00
C864   C     0.22434   0.44271   0.99541   0.00000  Uiso   1.00
H865   H     0.23361   0.46652   0.96451   0.00000  Uiso   1.00
H866   H     0.20483   0.41277   0.97958   0.00000  Uiso   1.00
H867   H     0.25526   0.42855   0.67940   0.00000  Uiso   1.00
O868   O     0.33336   0.46803   0.83653   0.00000  Uiso   1.00
C869   C     0.34759   0.48263   0.78869   0.00000  Uiso   1.00
H870   H     0.37548   0.00796   0.79450   0.00000  Uiso   1.00
H871   H     0.32133   0.00235   0.76860   0.00000  Uiso   1.00
C872   C     0.36501   0.44111   0.75682   0.00000  Uiso   1.00
H873   H     0.39173   0.42244   0.77765   0.00000  Uiso   1.00
H874   H     0.33749   0.41585   0.74880   0.00000  Uiso   1.00
C875   C     0.38359   0.45790   0.70698   0.00000  Uiso   1.00
H876   H     0.35658   0.47433   0.68467   0.00000  Uiso   1.00
H877   H     0.39712   0.42736   0.68548   0.00000  Uiso   1.00
H878   H     0.41089   0.48386   0.71318   0.00000  Uiso   1.00
O879   O     0.30239   0.03020   0.90516   0.00000  Uiso   1.00
C880   C     0.29903   0.05003   0.95396   0.00000  Uiso   1.00
H881   H     0.29331   0.02067   0.98021   0.00000  Uiso   1.00
H882   H     0.27017   0.07453   0.95914   0.00000  Uiso   1.00
C883   C     0.34312   0.07383   0.96894   0.00000  Uiso   1.00
H884   H     0.37013   0.04697   0.96988   0.00000  Uiso   1.00
H885   H     0.35278   0.10061   0.94102   0.00000  Uiso   1.00
C886   C     0.33941   0.09764   0.68697   0.00000  Uiso   1.00
H887   H     0.31375   0.12595   0.68622   0.00000  Uiso   1.00
H888   H     0.37206   0.11358   0.69738   0.00000  Uiso   1.00
H889   H     0.33011   0.07150   0.71575   0.00000  Uiso   1.00
O890   O     0.16995   0.47108   0.83881   0.00000  Uiso   1.00
C891   C     0.15987   0.48420   0.88863   0.00000  Uiso   1.00
H892   H     0.15416   0.45219   0.91152   0.00000  Uiso   1.00
H893   H     0.18724   0.00573   0.90558   0.00000  Uiso   1.00
C894   C     0.11739   0.01407   0.88878   0.00000  Uiso   1.00
H895   H     0.12290   0.04596   0.86577   0.00000  Uiso   1.00
H896   H     0.08949   0.49342   0.87193   0.00000  Uiso   1.00
C897   C     0.10443   0.02937   0.94176   0.00000  Uiso   1.00
H898   H     0.09703   0.49804   0.96488   0.00000  Uiso   1.00
H899   H     0.07406   0.05183   0.94037   0.00000  Uiso   1.00
H900   H     0.13192   0.05001   0.95943   0.00000  Uiso   1.00
C901   C     0.66412   0.25002   0.83342   0.00000  Uiso   1.00
C902   C     0.83600   0.24999   0.83275   0.00000  Uiso   1.00
C903   C     0.72507   0.10130   0.79965   0.00000  Uiso   1.00
C904   C     0.78974   0.39720   0.83386   0.00000  Uiso   1.00
C905   C     0.77578   0.10364   0.86735   0.00000  Uiso   1.00
C906   C     0.71093   0.39839   0.83534   0.00000  Uiso   1.00
C907   C     0.72580   0.05169   0.79860   0.00000  Uiso   1.00
C908   C     0.79170   0.44683   0.83360   0.00000  Uiso   1.00
C909   C     0.77632   0.05369   0.87016   0.00000  Uiso   1.00
C910   C     0.71066   0.44804   0.83774   0.00000  Uiso   1.00
C911   C     0.75004   0.24982   0.73952   0.00000  Uiso   1.00
C912   C     0.75007   0.25017   0.92715   0.00000  Uiso   1.00
C913   C     0.75167   0.02691   0.83445   0.00000  Uiso   1.00
C914   C     0.75148   0.47347   0.83555   0.00000  Uiso   1.00
C915   C     0.75006   0.24974   0.68845   0.00000  Uiso   1.00
C916   C     0.75007   0.25023   0.97821   0.00000  Uiso   1.00
C917   C     0.54720   0.26473   0.87705   0.00000  Uiso   1.00
C918   C     0.95333   0.27778   0.79750   0.00000  Uiso   1.00
C919   C     0.95326   0.22548   0.86894   0.00000  Uiso   1.00
C920   C     0.54678   0.23826   0.79024   0.00000  Uiso   1.00
C921   C     0.59340   0.26387   0.87783   0.00000  Uiso   1.00
C922   C     0.90718   0.27657   0.79549   0.00000  Uiso   1.00
C923   C     0.90677   0.22415   0.86828   0.00000  Uiso   1.00
C924   C     0.59295   0.23732   0.78945   0.00000  Uiso   1.00
C925   C     0.61640   0.25016   0.83364   0.00000  Uiso   1.00
C926   C     0.88392   0.24995   0.83164   0.00000  Uiso   1.00
C927   C     0.52420   0.25196   0.83363   0.00000  Uiso   1.00
C928   C     0.97609   0.25215   0.83369   0.00000  Uiso   1.00
H929   H     0.70443   0.12005   0.77320   0.00000  Uiso   1.00
H930   H     0.82060   0.37744   0.83409   0.00000  Uiso   1.00
H931   H     0.79562   0.12491   0.89264   0.00000  Uiso   1.00
H932   H     0.67951   0.37960   0.83575   0.00000  Uiso   1.00
H933   H     0.52911   0.27533   0.91049   0.00000  Uiso   1.00
H934   H     0.97160   0.29820   0.77022   0.00000  Uiso   1.00
H935   H     0.97171   0.20556   0.89651   0.00000  Uiso   1.00
H936   H     0.52836   0.22812   0.75684   0.00000  Uiso   1.00
N937   N     0.75000   0.12623   0.83333   0.00000  Uiso   1.00
N938   N     0.75000   0.37377   0.83333   0.00000  Uiso   1.00
O939   O     0.68453   0.28974   0.83334   0.00000  Uiso   1.00
O940   O     0.81547   0.21026   0.83333   0.00000  Uiso   1.00
O941   O     0.81547   0.28974   0.83333   0.00000  Uiso   1.00
O942   O     0.68453   0.21026   0.83334   0.00000  Uiso   1.00
O943   O     0.75000   0.28973   0.76178   0.00000  Uiso   1.00
O944   O     0.75000   0.21027   0.90489   0.00000  Uiso   1.00
O945   O     0.75000   0.28973   0.90489   0.00000  Uiso   1.00
O946   O     0.75000   0.21027   0.76178   0.00000  Uiso   1.00
Zn947  Zn    0.75000   0.30307   0.83333   0.00000  Uiso   1.00
Zn948  Zn    0.75000   0.19693   0.83333   0.00000  Uiso   1.00
O949   O     0.61418   0.27629   0.92236   0.00000  Uiso   1.00
H950   H     0.64666   0.27025   0.92031   0.00000  Uiso   1.00
O951   O     0.88658   0.30104   0.75743   0.00000  Uiso   1.00
H952   H     0.85588   0.28897   0.75235   0.00000  Uiso   1.00
O953   O     0.88299   0.19888   0.90333   0.00000  Uiso   1.00
H954   H     0.90422   0.18306   0.92619   0.00000  Uiso   1.00
O955   O     0.61325   0.22419   0.74488   0.00000  Uiso   1.00
H956   H     0.64600   0.22807   0.74721   0.00000  Uiso   1.00
O957   O     0.69737   0.02822   0.76584   0.00000  Uiso   1.00
C958   C     0.72155   0.01073   0.72419   0.00000  Uiso   1.00
H959   H     0.75548   0.49831   0.73428   0.00000  Uiso   1.00
H960   H     0.72462   0.03899   0.69595   0.00000  Uiso   1.00
C961   C     0.69626   0.46890   0.70121   0.00000  Uiso   1.00
H962   H     0.68723   0.44376   0.73114   0.00000  Uiso   1.00
H963   H     0.66490   0.48157   0.68369   0.00000  Uiso   1.00
C964   C     0.72434   0.44271   0.99541   0.00000  Uiso   1.00
H965   H     0.73361   0.46652   0.96451   0.00000  Uiso   1.00
H966   H     0.70483   0.41277   0.97958   0.00000  Uiso   1.00
H967   H     0.75526   0.42855   0.67940   0.00000  Uiso   1.00
O968   O     0.83336   0.46803   0.83653   0.00000  Uiso   1.00
C969   C     0.84759   0.48263   0.78869   0.00000  Uiso   1.00
H970   H     0.87548   0.00796   0.79450   0.00000  Uiso   1.00
H971   H     0.82133   0.00235   0.76860   0.00000  Uiso   1.00
C972   C     0.86501   0.44111   0.75682   0.00000  Uiso   1.00
H973   H     0.89173   0.42244   0.77765   0.00000  Uiso   1.00
H974   H     0.83749   0.41585   0.74880   0.00000  Uiso   1.00
C975   C     0.88359   0.45790   0.70698   0.00000  Uiso   1.00
H976   H     0.85658   0.47433   0.68467   0.00000  Uiso   1.00
H977   H     0.89712   0.42736   0.68548   0.00000  Uiso   1.00
H978   H     0.91089   0.48386   0.71318   0.00000  Uiso   1.00
O979   O     0.80239   0.03020   0.90516   0.00000  Uiso   1.00
C980   C     0.79903   0.05003   0.95396   0.00000  Uiso   1.00
H981   H     0.79331   0.02067   0.98021   0.00000  Uiso   1.00
H982   H     0.77017   0.07453   0.95914   0.00000  Uiso   1.00
C983   C     0.84312   0.07383   0.96894   0.00000  Uiso   1.00
H984   H     0.87013   0.04697   0.96988   0.00000  Uiso   1.00
H985   H     0.85278   0.10061   0.94102   0.00000  Uiso   1.00
C986   C     0.83941   0.09764   0.68697   0.00000  Uiso   1.00
H987   H     0.81375   0.12595   0.68622   0.00000  Uiso   1.00
H988   H     0.87206   0.11358   0.69738   0.00000  Uiso   1.00
H989   H     0.83011   0.07150   0.71575   0.00000  Uiso   1.00
O990   O     0.66995   0.47108   0.83881   0.00000  Uiso   1.00
C991   C     0.65987   0.48420   0.88863   0.00000  Uiso   1.00
H992   H     0.65416   0.45219   0.91152   0.00000  Uiso   1.00
H993   H     0.68724   0.00573   0.90558   0.00000  Uiso   1.00
C994   C     0.61739   0.01407   0.88878   0.00000  Uiso   1.00
H995   H     0.62290   0.04596   0.86577   0.00000  Uiso   1.00
H996   H     0.58949   0.49342   0.87193   0.00000  Uiso   1.00
C997   C     0.60443   0.02937   0.94176   0.00000  Uiso   1.00
H998   H     0.59703   0.49804   0.96488   0.00000  Uiso   1.00
H999   H     0.57406   0.05183   0.94037   0.00000  Uiso   1.00
H1000  H     0.63192   0.05001   0.95943   0.00000  Uiso   1.00
C1001  C     0.16412   0.75002   0.83342   0.00000  Uiso   1.00
C1002  C     0.33600   0.74999   0.83275   0.00000  Uiso   1.00
C1003  C     0.22507   0.60130   0.79965   0.00000  Uiso   1.00
C1004  C     0.28974   0.89720   0.83386   0.00000  Uiso   1.00
C1005  C     0.27578   0.60364   0.86735   0.00000  Uiso   1.00
C1006  C     0.21093   0.89839   0.83534   0.00000  Uiso   1.00
C1007  C     0.22580   0.55169   0.79860   0.00000  Uiso   1.00
C1008  C     0.29170   0.94683   0.83360   0.00000  Uiso   1.00
C1009  C     0.27632   0.55369   0.87016   0.00000  Uiso   1.00
C1010  C     0.21066   0.94804   0.83774   0.00000  Uiso   1.00
C1011  C     0.25004   0.74982   0.73952   0.00000  Uiso   1.00
C1012  C     0.25007   0.75017   0.92715   0.00000  Uiso   1.00
C1013  C     0.25167   0.52691   0.83445   0.00000  Uiso   1.00
C1014  C     0.25148   0.97347   0.83555   0.00000  Uiso   1.00
C1015  C     0.25006   0.74974   0.68845   0.00000  Uiso   1.00
C1016  C     0.25007   0.75023   0.97821   0.00000  Uiso   1.00
C1017  C     0.04720   0.76473   0.87705   0.00000  Uiso   1.00
C1018  C     0.45333   0.77778   0.79750   0.00000  Uiso   1.00
C1019  C     0.45326   0.72548   0.86894   0.00000  Uiso   1.00
C1020  C     0.04678   0.73826   0.79024   0.00000  Uiso   1.00
C1021  C     0.09340   0.76387   0.87783   0.00000  Uiso   1.00
C1022  C     0.40718   0.77657   0.79549   0.00000  Uiso   1.00
C1023  C     0.40677   0.72415   0.86828   0.00000  Uiso   1.00
C1024  C     0.09295   0.73732   0.78945   0.00000  Uiso   1.00
C1025  C     0.11640   0.75016   0.83364   0.00000  Uiso   1.00
C1026  C     0.38392   0.74995   0.83164   0.00000  Uiso   1.00
C1027  C     0.02420   0.75196   0.83363   0.00000  Uiso   1.00
C1028  C     0.47609   0.75215   0.83369   0.00000  Uiso   1.00
H1029  H     0.20443   0.62005   0.77320   0.00000  Uiso   1.00
H1030  H     0.32060   0.87744   0.83409   0.00000  Uiso   1.00
H1031  H     0.29562   0.62491   0.89264   0.00000  Uiso   1.00
H1032  H     0.17951   0.87960   0.83575   0.00000  Uiso   1.00
H1033  H     0.02911   0.77533   0.91049   0.00000  Uiso   1.00
H1034  H     0.47160   0.79820   0.77022   0.00000  Uiso   1.00
H1035  H     0.47171   0.70556   0.89651   0.00000  Uiso   1.00
H1036  H     0.02836   0.72812   0.75684   0.00000  Uiso   1.00
N1037  N     0.25000   0.62623   0.83333   0.00000  Uiso   1.00
N1038  N     0.25000   0.87377   0.83333   0.00000  Uiso   1.00
O1039  O     0.18453   0.78974   0.83334   0.00000  Uiso   1.00
O1040  O     0.31547   0.71026   0.83333   0.00000  Uiso   1.00
O1041  O     0.31547   0.78974   0.83333   0.00000  Uiso   1.00
O1042  O     0.18453   0.71026   0.83334   0.00000  Uiso   1.00
O1043  O     0.25000   0.78973   0.76178   0.00000  Uiso   1.00
O1044  O     0.25000   0.71027   0.90489   0.00000  Uiso   1.00
O1045  O     0.25000   0.78973   0.90489   0.00000  Uiso   1.00
O1046  O     0.25000   0.71027   0.76178   0.00000  Uiso   1.00
Zn1047 Zn    0.25000   0.80307   0.83333   0.00000  Uiso   1.00
Zn1048 Zn    0.25000   0.69693   0.83333   0.00000  Uiso   1.00
O1049  O     0.11418   0.77629   0.92236   0.00000  Uiso   1.00
H1050  H     0.14666   0.77025   0.92031   0.00000  Uiso   1.00
O1051  O     0.38658   0.80104   0.75743   0.00000  Uiso   1.00
H1052  H     0.35588   0.78897   0.75235   0.00000  Uiso   1.00
O1053  O     0.38299   0.69888   0.90333   0.00000  Uiso   1.00
H1054  H     0.40422   0.68306   0.92619   0.00000  Uiso   1.00
O1055  O     0.11325   0.72419   0.74488   0.00000  Uiso   1.00
H1056  H     0.14600   0.72807   0.74721   0.00000  Uiso   1.00
O1057  O     0.19737   0.52822   0.76584   0.00000  Uiso   1.00
C1058  C     0.22155   0.51073   0.72419   0.00000  Uiso   1.00
H1059  H     0.25548   0.99831   0.73428   0.00000  Uiso   1.00
H1060  H     0.22462   0.53899   0.69595   0.00000  Uiso   1.00
C1061  C     0.19626   0.96890   0.70121   0.00000  Uiso   1.00
H1062  H     0.18723   0.94376   0.73114   0.00000  Uiso   1.00
H1063  H     0.16490   0.98157   0.68369   0.00000  Uiso   1.00
C1064  C     0.22434   0.94271   0.99541   0.00000  Uiso   1.00
H1065  H     0.23361   0.96652   0.96451   0.00000  Uiso   1.00
H1066  H     0.20483   0.91277   0.97958   0.00000  Uiso   1.00
H1067  H     0.25526   0.92855   0.67940   0.00000  Uiso   1.00
O1068  O     0.33336   0.96803   0.83653   0.00000  Uiso   1.00
C1069  C     0.34759   0.98263   0.78869   0.00000  Uiso   1.00
H1070  H     0.37548   0.50796   0.79450   0.00000  Uiso   1.00
H1071  H     0.32133   0.50235   0.76860   0.00000  Uiso   1.00
C1072  C     0.36501   0.94111   0.75682   0.00000  Uiso   1.00
H1073  H     0.39173   0.92244   0.77765   0.00000  Uiso   1.00
H1074  H     0.33749   0.91585   0.74880   0.00000  Uiso   1.00
C1075  C     0.38359   0.95790   0.70698   0.00000  Uiso   1.00
H1076  H     0.35658   0.97433   0.68467   0.00000  Uiso   1.00
H1077  H     0.39712   0.92736   0.68548   0.00000  Uiso   1.00
H1078  H     0.41089   0.98386   0.71318   0.00000  Uiso   1.00
O1079  O     0.30239   0.53020   0.90516   0.00000  Uiso   1.00
C1080  C     0.29903   0.55003   0.95396   0.00000  Uiso   1.00
H1081  H     0.29331   0.52067   0.98021   0.00000  Uiso   1.00
H1082  H     0.27017   0.57453   0.95914   0.00000  Uiso   1.00
C1083  C     0.34312   0.57383   0.96894   0.00000  Uiso   1.00
H1084  H     0.37013   0.54697   0.96988   0.00000  Uiso   1.00
H1085  H     0.35278   0.60061   0.94102   0.00000  Uiso   1.00
C1086  C     0.33941   0.59764   0.68697   0.00000  Uiso   1.00
H1087  H     0.31375   0.62595   0.68622   0.00000  Uiso   1.00
H1088  H     0.37206   0.61358   0.69738   0.00000  Uiso   1.00
H1089  H     0.33011   0.57150   0.71575   0.00000  Uiso   1.00
O1090  O     0.16995   0.97108   0.83881   0.00000  Uiso   1.00
C1091  C     0.15987   0.98420   0.88863   0.00000  Uiso   1.00
H1092  H     0.15416   0.95219   0.91152   0.00000  Uiso   1.00
H1093  H     0.18724   0.50573   0.90558   0.00000  Uiso   1.00
C1094  C     0.11739   0.51407   0.88878   0.00000  Uiso   1.00
H1095  H     0.12290   0.54596   0.86577   0.00000  Uiso   1.00
H1096  H     0.08949   0.99342   0.87193   0.00000  Uiso   1.00
C1097  C     0.10443   0.52937   0.94176   0.00000  Uiso   1.00
H1098  H     0.09703   0.99804   0.96488   0.00000  Uiso   1.00
H1099  H     0.07406   0.55183   0.94037   0.00000  Uiso   1.00
H1100  H     0.13192   0.55001   0.95943   0.00000  Uiso   1.00
C1101  C     0.66412   0.75002   0.83342   0.00000  Uiso   1.00
C1102  C     0.83600   0.74999   0.83275   0.00000  Uiso   1.00
C1103  C     0.72507   0.60130   0.79965   0.00000  Uiso   1.00
C1104  C     0.78974   0.89720   0.83386   0.00000  Uiso   1.00
C1105  C     0.77578   0.60364   0.86735   0.00000  Uiso   1.00
C1106  C     0.71093   0.89839   0.83534   0.00000  Uiso   1.00
C1107  C     0.72580   0.55169   0.79860   0.00000  Uiso   1.00
C1108  C     0.79170   0.94683   0.83360   0.00000  Uiso   1.00
C1109  C     0.77632   0.55369   0.87016   0.00000  Uiso   1.00
C1110  C     0.71066   0.94804   0.83774   0.00000  Uiso   1.00
C1111  C     0.75004   0.74982   0.73952   0.00000  Uiso   1.00
C1112  C     0.75007   0.75017   0.92715   0.00000  Uiso   1.00
C1113  C     0.75167   0.52691   0.83445   0.00000  Uiso   1.00
C1114  C     0.75148   0.97347   0.83555   0.00000  Uiso   1.00
C1115  C     0.75006   0.74974   0.68845   0.00000  Uiso   1.00
C1116  C     0.75007   0.75023   0.97821   0.00000  Uiso   1.00
C1117  C     0.54720   0.76473   0.87705   0.00000  Uiso   1.00
C1118  C     0.95333   0.77778   0.79750   0.00000  Uiso   1.00
C1119  C     0.95326   0.72548   0.86894   0.00000  Uiso   1.00
C1120  C     0.54678   0.73826   0.79024   0.00000  Uiso   1.00
C1121  C     0.59340   0.76387   0.87783   0.00000  Uiso   1.00
C1122  C     0.90718   0.77657   0.79549   0.00000  Uiso   1.00
C1123  C     0.90677   0.72415   0.86828   0.00000  Uiso   1.00
C1124  C     0.59295   0.73732   0.78945   0.00000  Uiso   1.00
C1125  C     0.61640   0.75016   0.83364   0.00000  Uiso   1.00
C1126  C     0.88392   0.74995   0.83164   0.00000  Uiso   1.00
C1127  C     0.52420   0.75196   0.83363   0.00000  Uiso   1.00
C1128  C     0.97609   0.75215   0.83369   0.00000  Uiso   1.00
H1129  H     0.70443   0.62005   0.77320   0.00000  Uiso   1.00
H1130  H     0.82060   0.87744   0.83409   0.00000  Uiso   1.00
H1131  H     0.79562   0.62491   0.89264   0.00000  Uiso   1.00
H1132  H     0.67951   0.87960   0.83575   0.00000  Uiso   1.00
H1133  H     0.52911   0.77533   0.91049   0.00000  Uiso   1.00
H1134  H     0.97160   0.79820   0.77022   0.00000  Uiso   1.00
H1135  H     0.97171   0.70556   0.89651   0.00000  Uiso   1.00
H1136  H     0.52836   0.72812   0.75684   0.00000  Uiso   1.00
N1137  N     0.75000   0.62623   0.83333   0.00000  Uiso   1.00
N1138  N     0.75000   0.87377   0.83333   0.00000  Uiso   1.00
O1139  O     0.68453   0.78974   0.83334   0.00000  Uiso   1.00
O1140  O     0.81547   0.71026   0.83333   0.00000  Uiso   1.00
O1141  O     0.81547   0.78974   0.83333   0.00000  Uiso   1.00
O1142  O     0.68453   0.71026   0.83334   0.00000  Uiso   1.00
O1143  O     0.75000   0.78973   0.76178   0.00000  Uiso   1.00
O1144  O     0.75000   0.71027   0.90489   0.00000  Uiso   1.00
O1145  O     0.75000   0.78973   0.90489   0.00000  Uiso   1.00
O1146  O     0.75000   0.71027   0.76178   0.00000  Uiso   1.00
Zn1147 Zn    0.75000   0.80307   0.83333   0.00000  Uiso   1.00
Zn1148 Zn    0.75000   0.69693   0.83333   0.00000  Uiso   1.00
O1149  O     0.61418   0.77629   0.92236   0.00000  Uiso   1.00
H1150  H     0.64666   0.77025   0.92031   0.00000  Uiso   1.00
O1151  O     0.88658   0.80104   0.75743   0.00000  Uiso   1.00
H1152  H     0.85588   0.78897   0.75235   0.00000  Uiso   1.00
O1153  O     0.88299   0.69888   0.90333   0.00000  Uiso   1.00
H1154  H     0.90422   0.68306   0.92619   0.00000  Uiso   1.00
O1155  O     0.61325   0.72419   0.74488   0.00000  Uiso   1.00
H1156  H     0.64600   0.72807   0.74721   0.00000  Uiso   1.00
O1157  O     0.69737   0.52822   0.76584   0.00000  Uiso   1.00
C1158  C     0.72155   0.51073   0.72419   0.00000  Uiso   1.00
H1159  H     0.75548   0.99831   0.73428   0.00000  Uiso   1.00
H1160  H     0.72462   0.53899   0.69595   0.00000  Uiso   1.00
C1161  C     0.69626   0.96890   0.70121   0.00000  Uiso   1.00
H1162  H     0.68723   0.94376   0.73114   0.00000  Uiso   1.00
H1163  H     0.66490   0.98157   0.68369   0.00000  Uiso   1.00
C1164  C     0.72434   0.94271   0.99541   0.00000  Uiso   1.00
H1165  H     0.73361   0.96652   0.96451   0.00000  Uiso   1.00
H1166  H     0.70483   0.91277   0.97958   0.00000  Uiso   1.00
H1167  H     0.75526   0.92855   0.67940   0.00000  Uiso   1.00
O1168  O     0.83336   0.96803   0.83653   0.00000  Uiso   1.00
C1169  C     0.84759   0.98263   0.78869   0.00000  Uiso   1.00
H1170  H     0.87548   0.50796   0.79450   0.00000  Uiso   1.00
H1171  H     0.82133   0.50235   0.76860   0.00000  Uiso   1.00
C1172  C     0.86501   0.94111   0.75682   0.00000  Uiso   1.00
H1173  H     0.89173   0.92244   0.77765   0.00000  Uiso   1.00
H1174  H     0.83749   0.91585   0.74880   0.00000  Uiso   1.00
C1175  C     0.88359   0.95790   0.70698   0.00000  Uiso   1.00
H1176  H     0.85658   0.97433   0.68467   0.00000  Uiso   1.00
H1177  H     0.89712   0.92736   0.68548   0.00000  Uiso   1.00
H1178  H     0.91089   0.98386   0.71318   0.00000  Uiso   1.00
O1179  O     0.80239   0.53020   0.90516   0.00000  Uiso   1.00
C1180  C     0.79903   0.55003   0.95396   0.00000  Uiso   1.00
H1181  H     0.79331   0.52067   0.98021   0.00000  Uiso   1.00
H1182  H     0.77017   0.57453   0.95914   0.00000  Uiso   1.00
C1183  C     0.84312   0.57383   0.96894   0.00000  Uiso   1.00
H1184  H     0.87013   0.54697   0.96988   0.00000  Uiso   1.00
H1185  H     0.85278   0.60061   0.94102   0.00000  Uiso   1.00
C1186  C     0.83941   0.59764   0.68697   0.00000  Uiso   1.00
H1187  H     0.81375   0.62595   0.68622   0.00000  Uiso   1.00
H1188  H     0.87206   0.61358   0.69738   0.00000  Uiso   1.00
H1189  H     0.83011   0.57150   0.71575   0.00000  Uiso   1.00
O1190  O     0.66995   0.97108   0.83881   0.00000  Uiso   1.00
C1191  C     0.65987   0.98420   0.88863   0.00000  Uiso   1.00
H1192  H     0.65416   0.95219   0.91152   0.00000  Uiso   1.00
H1193  H     0.68724   0.50573   0.90558   0.00000  Uiso   1.00
C1194  C     0.61739   0.51407   0.88878   0.00000  Uiso   1.00
H1195  H     0.62290   0.54596   0.86577   0.00000  Uiso   1.00
H1196  H     0.58949   0.99342   0.87193   0.00000  Uiso   1.00
C1197  C     0.60443   0.52937   0.94176   0.00000  Uiso   1.00
H1198  H     0.59703   0.99804   0.96488   0.00000  Uiso   1.00
H1199  H     0.57406   0.55183   0.94037   0.00000  Uiso   1.00
H1200  H     0.63192   0.55001   0.95943   0.00000  Uiso   1.00
loop_
_geom_bond_atom_site_label_1
_geom_bond_atom_site_label_2
_geom_bond_distance
_geom_bond_site_symmetry_2
_ccdc_geom_bond_type
C1     C25     1.427   .     S
C1     O39     1.282   .     A
C1     O42     1.282   .     A
C2     O41     1.284   .     A
C2     C26     1.433   .     S
C2     O40     1.284   .     A
C3     C7      1.408   .     A
C3     H29     1.082   .     S
C3     N37     1.360   .     A
C4     C8      1.409   .     A
C4     N38     1.362   .     A
C4     H30     1.080   .     S
C5     N37     1.358   .     A
C5     C9      1.420   .     A
C5     H31     1.078   .     S
C6     H32     1.081   .     S
C6     N38     1.362   .     A
C6     C10     1.409   .     A
C7     C13     1.423   .     A
C7     O57     1.385   .     S
C8     O68     1.385   .     S
C8     C14     1.421   .     A
C9     O79     1.393   .     S
C9     C13     1.419   .     A
C10    C14     1.420   .     A
C10    O90     1.382   .     S
C11    C15     1.364   .     S
C11    O43     1.273   .     A
C11    O46     1.276   .     A
C12    C16     1.364   .     S
C12    O45     1.276   .     A
C12    O44     1.272   .     A
C13    C214    1.517   1_545 S
C14    C213    1.517   .     S
C15    C816    1.164   1_554 S
C16    C415    1.164   .     S
C17    H33     1.084   .     S
C17    C27     1.393   .     A
C17    C21     1.382   .     A
C18    C28     1.394   .     A
C18    H34     1.084   .     S
C18    C22     1.382   .     A
C19    C23     1.391   .     A
C19    C28     1.394   .     A
C19    H35     1.084   .     S
C20    C24     1.381   .     A
C20    C27     1.393   .     A
C20    H36     1.084   .     S
C21    O49     1.384   .     S
C21    C25     1.417   .     A
C22    C26     1.416   .     A
C22    O51     1.382   .     S
C23    C26     1.406   .     A
C23    O53     1.383   .     S
C24    O55     1.384   .     S
C24    C25     1.417   .     A
C27    C128    1.439   1_455 S
C28    C127    1.439   .     S
N37    Zn48    2.006   .     S
N38    Zn47    2.006   .     S
O39    Zn47    1.994   .     S
O40    Zn48    1.994   .     S
O41    Zn47    1.994   .     S
O42    Zn48    1.994   .     S
O43    Zn47    1.944   .     S
O44    Zn48    1.944   .     S
O45    Zn47    1.953   .     S
O46    Zn48    1.953   .     S
O49    H50     0.988   .     S
O51    H52     0.989   .     S
O53    H54     0.992   .     S
O55    H56     0.988   .     S
O57    C58     1.413   .     S
C58    H60     1.111   .     S
C58    H259    1.108   1_545 S
C58    C261    1.530   1_545 S
H59    C258    1.108   .     S
C61    H62     1.111   .     S
C61    H63     1.110   .     S
C61    C258    1.530   .     S
C61    C864    1.527   1_554 S
C64    H66     1.110   .     S
C64    H65     1.108   .     S
C64    C461    1.527   .     S
C64    H467    1.111   .     S
H67    C864    1.111   1_554 S
O68    C69     1.414   .     S
C69    C72     1.536   .     S
C69    H270    1.111   .     S
C69    H271    1.107   .     S
H70    C269    1.111   1_545 S
H71    C269    1.107   1_545 S
C72    H73     1.112   .     S
C72    C75     1.525   .     S
C72    H74     1.110   .     S
C75    H76     1.110   .     S
C75    H77     1.110   .     S
C75    H78     1.111   .     S
O79    C80     1.417   .     S
C80    C83     1.532   .     S
C80    H81     1.109   .     S
C80    H82     1.116   .     S
C83    H84     1.111   .     S
C83    H85     1.109   .     S
C83    C486    1.526   .     S
C86    H88     1.110   .     S
C86    H87     1.111   .     S
C86    H89     1.110   .     S
C86    C883    1.526   1_554 S
O90    C91     1.410   .     S
C91    H92     1.114   .     S
C91    H293    1.114   .     S
C91    C294    1.527   .     S
H93    C291    1.114   1_545 S
C94    C97     1.526   .     S
C94    H95     1.112   .     S
C94    C291    1.527   1_545 S
C94    H296    1.112   1_545 S
H96    C294    1.112   .     S
C97    H99     1.110   .     S
C97    H100    1.111   .     S
C97    H298    1.111   1_545 S
H98    C297    1.111   .     S
C101   C125    1.427   .     S
C101   O139    1.282   .     A
C101   O142    1.282   .     A
C102   O141    1.284   .     A
C102   C126    1.433   .     S
C102   O140    1.284   .     A
C103   C107    1.408   .     A
C103   H129    1.082   .     S
C103   N137    1.360   .     A
C104   C108    1.409   .     A
C104   N138    1.362   .     A
C104   H130    1.080   .     S
C105   N137    1.358   .     A
C105   C109    1.420   .     A
C105   H131    1.078   .     S
C106   H132    1.081   .     S
C106   N138    1.362   .     A
C106   C110    1.409   .     A
C107   C113    1.423   .     A
C107   O157    1.385   .     S
C108   O168    1.385   .     S
C108   C114    1.421   .     A
C109   O179    1.393   .     S
C109   C113    1.419   .     A
C110   C114    1.420   .     A
C110   O190    1.382   .     S
C111   C115    1.364   .     S
C111   O143    1.273   .     A
C111   O146    1.276   .     A
C112   C116    1.364   .     S
C112   O145    1.276   .     A
C112   O144    1.272   .     A
C113   C314    1.517   1_545 S
C114   C313    1.517   .     S
C115   C916    1.164   1_554 S
C116   C515    1.164   .     S
C117   H133    1.084   .     S
C117   C127    1.393   .     A
C117   C121    1.382   .     A
C118   C128    1.394   .     A
C118   H134    1.084   .     S
C118   C122    1.382   .     A
C119   C123    1.391   .     A
C119   C128    1.394   .     A
C119   H135    1.084   .     S
C120   C124    1.381   .     A
C120   C127    1.393   .     A
C120   H136    1.084   .     S
C121   O149    1.384   .     S
C121   C125    1.417   .     A
C122   C126    1.416   .     A
C122   O151    1.382   .     S
C123   C126    1.406   .     A
C123   O153    1.383   .     S
C124   O155    1.384   .     S
C124   C125    1.417   .     A
C128   C27     1.439   1_655 S
N137   Zn148   2.006   .     S
N138   Zn147   2.006   .     S
O139   Zn147   1.994   .     S
O140   Zn148   1.994   .     S
O141   Zn147   1.994   .     S
O142   Zn148   1.994   .     S
O143   Zn147   1.944   .     S
O144   Zn148   1.944   .     S
O145   Zn147   1.953   .     S
O146   Zn148   1.953   .     S
O149   H150    0.988   .     S
O151   H152    0.989   .     S
O153   H154    0.992   .     S
O155   H156    0.988   .     S
O157   C158    1.413   .     S
C158   H160    1.111   .     S
C158   H359    1.108   1_545 S
C158   C361    1.530   1_545 S
H159   C358    1.108   .     S
C161   H162    1.111   .     S
C161   H163    1.110   .     S
C161   C358    1.530   .     S
C161   C964    1.527   1_554 S
C164   H166    1.110   .     S
C164   H165    1.108   .     S
C164   C561    1.527   .     S
C164   H567    1.111   .     S
H167   C964    1.111   1_554 S
O168   C169    1.414   .     S
C169   C172    1.536   .     S
C169   H370    1.111   .     S
C169   H371    1.107   .     S
H170   C369    1.111   1_545 S
H171   C369    1.107   1_545 S
C172   H173    1.112   .     S
C172   C175    1.525   .     S
C172   H174    1.110   .     S
C175   H176    1.110   .     S
C175   H177    1.110   .     S
C175   H178    1.111   .     S
O179   C180    1.417   .     S
C180   C183    1.532   .     S
C180   H181    1.109   .     S
C180   H182    1.116   .     S
C183   H184    1.111   .     S
C183   H185    1.109   .     S
C183   C586    1.526   .     S
C186   H188    1.110   .     S
C186   H187    1.111   .     S
C186   H189    1.110   .     S
C186   C983    1.526   1_554 S
O190   C191    1.410   .     S
C191   H192    1.114   .     S
C191   H393    1.114   .     S
C191   C394    1.527   .     S
H193   C391    1.114   1_545 S
C194   C197    1.526   .     S
C194   H195    1.112   .     S
C194   C391    1.527   1_545 S
C194   H396    1.112   1_545 S
H196   C394    1.112   .     S
C197   H199    1.110   .     S
C197   H200    1.111   .     S
C197   H398    1.111   1_545 S
H198   C397    1.111   .     S
C201   C225    1.427   .     S
C201   O239    1.282   .     A
C201   O242    1.282   .     A
C202   O241    1.284   .     A
C202   C226    1.433   .     S
C202   O240    1.284   .     A
C203   C207    1.408   .     A
C203   H229    1.082   .     S
C203   N237    1.360   .     A
C204   C208    1.409   .     A
C204   N238    1.362   .     A
C204   H230    1.080   .     S
C205   N237    1.358   .     A
C205   C209    1.420   .     A
C205   H231    1.078   .     S
C206   H232    1.081   .     S
C206   N238    1.362   .     A
C206   C210    1.409   .     A
C207   C213    1.423   .     A
C207   O257    1.385   .     S
C208   O268    1.385   .     S
C208   C214    1.421   .     A
C209   O279    1.393   .     S
C209   C213    1.419   .     A
C210   C214    1.420   .     A
C210   O290    1.382   .     S
C211   C215    1.364   .     S
C211   O243    1.273   .     A
C211   O246    1.276   .     A
C212   C216    1.364   .     S
C212   O245    1.276   .     A
C212   O244    1.272   .     A
C214   C13     1.517   1_565 S
C215   C1016   1.164   1_554 S
C216   C615    1.164   .     S
C217   H233    1.084   .     S
C217   C227    1.393   .     A
C217   C221    1.382   .     A
C218   C228    1.394   .     A
C218   H234    1.084   .     S
C218   C222    1.382   .     A
C219   C223    1.391   .     A
C219   C228    1.394   .     A
C219   H235    1.084   .     S
C220   C224    1.381   .     A
C220   C227    1.393   .     A
C220   H236    1.084   .     S
C221   O249    1.384   .     S
C221   C225    1.417   .     A
C222   C226    1.416   .     A
C222   O251    1.382   .     S
C223   C226    1.406   .     A
C223   O253    1.383   .     S
C224   O255    1.384   .     S
C224   C225    1.417   .     A
C227   C328    1.439   1_455 S
C228   C327    1.439   .     S
N237   Zn248   2.006   .     S
N238   Zn247   2.006   .     S
O239   Zn247   1.994   .     S
O240   Zn248   1.994   .     S
O241   Zn247   1.994   .     S
O242   Zn248   1.994   .     S
O243   Zn247   1.944   .     S
O244   Zn248   1.944   .     S
O245   Zn247   1.953   .     S
O246   Zn248   1.953   .     S
O249   H250    0.988   .     S
O251   H252    0.989   .     S
O253   H254    0.992   .     S
O255   H256    0.988   .     S
O257   C258    1.413   .     S
C258   H260    1.111   .     S
H259   C58     1.108   1_565 S
C261   H262    1.111   .     S
C261   H263    1.110   .     S
C261   C58     1.530   1_565 S
C261   C1064   1.527   1_554 S
C264   H266    1.110   .     S
C264   H265    1.108   .     S
C264   C661    1.527   .     S
C264   H667    1.111   .     S
H267   C1064   1.111   1_554 S
O268   C269    1.414   .     S
C269   C272    1.536   .     S
C269   H70     1.111   1_565 S
C269   H71     1.107   1_565 S
C272   H273    1.112   .     S
C272   C275    1.525   .     S
C272   H274    1.110   .     S
C275   H276    1.110   .     S
C275   H277    1.110   .     S
C275   H278    1.111   .     S
O279   C280    1.417   .     S
C280   C283    1.532   .     S
C280   H281    1.109   .     S
C280   H282    1.116   .     S
C283   H284    1.111   .     S
C283   H285    1.109   .     S
C283   C686    1.526   .     S
C286   H288    1.110   .     S
C286   H287    1.111   .     S
C286   H289    1.110   .     S
C286   C1083   1.526   1_554 S
O290   C291    1.410   .     S
C291   H292    1.114   .     S
C291   H93     1.114   1_565 S
C291   C94     1.527   1_565 S
C294   C297    1.526   .     S
C294   H295    1.112   .     S
H296   C94     1.112   1_565 S
C297   H299    1.110   .     S
C297   H300    1.111   .     S
H298   C97     1.111   1_565 S
C301   C325    1.427   .     S
C301   O339    1.282   .     A
C301   O342    1.282   .     A
C302   O341    1.284   .     A
C302   C326    1.433   .     S
C302   O340    1.284   .     A
C303   C307    1.408   .     A
C303   H329    1.082   .     S
C303   N337    1.360   .     A
C304   C308    1.409   .     A
C304   N338    1.362   .     A
C304   H330    1.080   .     S
C305   N337    1.358   .     A
C305   C309    1.420   .     A
C305   H331    1.078   .     S
C306   H332    1.081   .     S
C306   N338    1.362   .     A
C306   C310    1.409   .     A
C307   C313    1.423   .     A
C307   O357    1.385   .     S
C308   O368    1.385   .     S
C308   C314    1.421   .     A
C309   O379    1.393   .     S
C309   C313    1.419   .     A
C310   C314    1.420   .     A
C310   O390    1.382   .     S
C311   C315    1.364   .     S
C311   O343    1.273   .     A
C311   O346    1.276   .     A
C312   C316    1.364   .     S
C312   O345    1.276   .     A
C312   O344    1.272   .     A
C314   C113    1.517   1_565 S
C315   C1116   1.164   1_554 S
C316   C715    1.164   .     S
C317   H333    1.084   .     S
C317   C327    1.393   .     A
C317   C321    1.382   .     A
C318   C328    1.394   .     A
C318   H334    1.084   .     S
C318   C322    1.382   .     A
C319   C323    1.391   .     A
C319   C328    1.394   .     A
C319   H335    1.084   .     S
C320   C324    1.381   .     A
C320   C327    1.393   .     A
C320   H336    1.084   .     S
C321   O349    1.384   .     S
C321   C325    1.417   .     A
C322   C326    1.416   .     A
C322   O351    1.382   .     S
C323   C326    1.406   .     A
C323   O353    1.383   .     S
C324   O355    1.384   .     S
C324   C325    1.417   .     A
C328   C227    1.439   1_655 S
N337   Zn348   2.006   .     S
N338   Zn347   2.006   .     S
O339   Zn347   1.994   .     S
O340   Zn348   1.994   .     S
O341   Zn347   1.994   .     S
O342   Zn348   1.994   .     S
O343   Zn347   1.944   .     S
O344   Zn348   1.944   .     S
O345   Zn347   1.953   .     S
O346   Zn348   1.953   .     S
O349   H350    0.988   .     S
O351   H352    0.989   .     S
O353   H354    0.992   .     S
O355   H356    0.988   .     S
O357   C358    1.413   .     S
C358   H360    1.111   .     S
H359   C158    1.108   1_565 S
C361   H362    1.111   .     S
C361   H363    1.110   .     S
C361   C158    1.530   1_565 S
C361   C1164   1.527   1_554 S
C364   H366    1.110   .     S
C364   H365    1.108   .     S
C364   C761    1.527   .     S
C364   H767    1.111   .     S
H367   C1164   1.111   1_554 S
O368   C369    1.414   .     S
C369   C372    1.536   .     S
C369   H170    1.111   1_565 S
C369   H171    1.107   1_565 S
C372   H373    1.112   .     S
C372   C375    1.525   .     S
C372   H374    1.110   .     S
C375   H376    1.110   .     S
C375   H377    1.110   .     S
C375   H378    1.111   .     S
O379   C380    1.417   .     S
C380   C383    1.532   .     S
C380   H381    1.109   .     S
C380   H382    1.116   .     S
C383   H384    1.111   .     S
C383   H385    1.109   .     S
C383   C786    1.526   .     S
C386   H388    1.110   .     S
C386   H387    1.111   .     S
C386   H389    1.110   .     S
C386   C1183   1.526   1_554 S
O390   C391    1.410   .     S
C391   H392    1.114   .     S
C391   H193    1.114   1_565 S
C391   C194    1.527   1_565 S
C394   C397    1.526   .     S
C394   H395    1.112   .     S
H396   C194    1.112   1_565 S
C397   H399    1.110   .     S
C397   H400    1.111   .     S
H398   C197    1.111   1_565 S
C401   C425    1.427   .     S
C401   O439    1.282   .     A
C401   O442    1.282   .     A
C402   O441    1.284   .     A
C402   C426    1.433   .     S
C402   O440    1.284   .     A
C403   C407    1.408   .     A
C403   H429    1.082   .     S
C403   N437    1.360   .     A
C404   C408    1.409   .     A
C404   N438    1.362   .     A
C404   H430    1.080   .     S
C405   N437    1.358   .     A
C405   C409    1.420   .     A
C405   H431    1.078   .     S
C406   H432    1.081   .     S
C406   N438    1.362   .     A
C406   C410    1.409   .     A
C407   C413    1.423   .     A
C407   O457    1.385   .     S
C408   O468    1.385   .     S
C408   C414    1.421   .     A
C409   O479    1.393   .     S
C409   C413    1.419   .     A
C410   C414    1.420   .     A
C410   O490    1.382   .     S
C411   C415    1.364   .     S
C411   O443    1.273   .     A
C411   O446    1.276   .     A
C412   C416    1.364   .     S
C412   O445    1.276   .     A
C412   O444    1.272   .     A
C413   C614    1.517   1_545 S
C414   C613    1.517   .     S
C416   C815    1.164   .     S
C417   H433    1.084   .     S
C417   C427    1.393   .     A
C417   C421    1.382   .     A
C418   C428    1.394   .     A
C418   H434    1.084   .     S
C418   C422    1.382   .     A
C419   C423    1.391   .     A
C419   C428    1.394   .     A
C419   H435    1.084   .     S
C420   C424    1.381   .     A
C420   C427    1.393   .     A
C420   H436    1.084   .     S
C421   O449    1.384   .     S
C421   C425    1.417   .     A
C422   C426    1.416   .     A
C422   O451    1.382   .     S
C423   C426    1.406   .     A
C423   O453    1.383   .     S
C424   O455    1.384   .     S
C424   C425    1.417   .     A
C427   C528    1.439   1_455 S
C428   C527    1.439   .     S
N437   Zn448   2.006   .     S
N438   Zn447   2.006   .     S
O439   Zn447   1.994   .     S
O440   Zn448   1.994   .     S
O441   Zn447   1.994   .     S
O442   Zn448   1.994   .     S
O443   Zn447   1.944   .     S
O444   Zn448   1.944   .     S
O445   Zn447   1.953   .     S
O446   Zn448   1.953   .     S
O449   H450    0.988   .     S
O451   H452    0.989   .     S
O453   H454    0.992   .     S
O455   H456    0.988   .     S
O457   C458    1.413   .     S
C458   H460    1.111   .     S
C458   H659    1.108   1_545 S
C458   C661    1.530   1_545 S
H459   C658    1.108   .     S
C461   H462    1.111   .     S
C461   H463    1.110   .     S
C461   C658    1.530   .     S
C464   H466    1.110   .     S
C464   H465    1.108   .     S
C464   C861    1.527   .     S
C464   H867    1.111   .     S
O468   C469    1.414   .     S
C469   C472    1.536   .     S
C469   H670    1.111   .     S
C469   H671    1.107   .     S
H470   C669    1.111   1_545 S
H471   C669    1.107   1_545 S
C472   H473    1.112   .     S
C472   C475    1.525   .     S
C472   H474    1.110   .     S
C475   H476    1.110   .     S
C475   H477    1.110   .     S
C475   H478    1.111   .     S
O479   C480    1.417   .     S
C480   C483    1.532   .     S
C480   H481    1.109   .     S
C480   H482    1.116   .     S
C483   H484    1.111   .     S
C483   H485    1.109   .     S
C483   C886    1.526   .     S
C486   H488    1.110   .     S
C486   H487    1.111   .     S
C486   H489    1.110   .     S
O490   C491    1.410   .     S
C491   H492    1.114   .     S
C491   H693    1.114   .     S
C491   C694    1.527   .     S
H493   C691    1.114   1_545 S
C494   C497    1.526   .     S
C494   H495    1.112   .     S
C494   C691    1.527   1_545 S
C494   H696    1.112   1_545 S
H496   C694    1.112   .     S
C497   H499    1.110   .     S
C497   H500    1.111   .     S
C497   H698    1.111   1_545 S
H498   C697    1.111   .     S
C501   C525    1.427   .     S
C501   O539    1.282   .     A
C501   O542    1.282   .     A
C502   O541    1.284   .     A
C502   C526    1.433   .     S
C502   O540    1.284   .     A
C503   C507    1.408   .     A
C503   H529    1.082   .     S
C503   N537    1.360   .     A
C504   C508    1.409   .     A
C504   N538    1.362   .     A
C504   H530    1.080   .     S
C505   N537    1.358   .     A
C505   C509    1.420   .     A
C505   H531    1.078   .     S
C506   H532    1.081   .     S
C506   N538    1.362   .     A
C506   C510    1.409   .     A
C507   C513    1.423   .     A
C507   O557    1.385   .     S
C508   O568    1.385   .     S
C508   C514    1.421   .     A
C509   O579    1.393   .     S
C509   C513    1.419   .     A
C510   C514    1.420   .     A
C510   O590    1.382   .     S
C511   C515    1.364   .     S
C511   O543    1.273   .     A
C511   O546    1.276   .     A
C512   C516    1.364   .     S
C512   O545    1.276   .     A
C512   O544    1.272   .     A
C513   C714    1.517   1_545 S
C514   C713    1.517   .     S
C516   C915    1.164   .     S
C517   H533    1.084   .     S
C517   C527    1.393   .     A
C517   C521    1.382   .     A
C518   C528    1.394   .     A
C518   H534    1.084   .     S
C518   C522    1.382   .     A
C519   C523    1.391   .     A
C519   C528    1.394   .     A
C519   H535    1.084   .     S
C520   C524    1.381   .     A
C520   C527    1.393   .     A
C520   H536    1.084   .     S
C521   O549    1.384   .     S
C521   C525    1.417   .     A
C522   C526    1.416   .     A
C522   O551    1.382   .     S
C523   C526    1.406   .     A
C523   O553    1.383   .     S
C524   O555    1.384   .     S
C524   C525    1.417   .     A
C528   C427    1.439   1_655 S
N537   Zn548   2.006   .     S
N538   Zn547   2.006   .     S
O539   Zn547   1.994   .     S
O540   Zn548   1.994   .     S
O541   Zn547   1.994   .     S
O542   Zn548   1.994   .     S
O543   Zn547   1.944   .     S
O544   Zn548   1.944   .     S
O545   Zn547   1.953   .     S
O546   Zn548   1.953   .     S
O549   H550    0.988   .     S
O551   H552    0.989   .     S
O553   H554    0.992   .     S
O555   H556    0.988   .     S
O557   C558    1.413   .     S
C558   H560    1.111   .     S
C558   H759    1.108   1_545 S
C558   C761    1.530   1_545 S
H559   C758    1.108   .     S
C561   H562    1.111   .     S
C561   H563    1.110   .     S
C561   C758    1.530   .     S
C564   H566    1.110   .     S
C564   H565    1.108   .     S
C564   C961    1.527   .     S
C564   H967    1.111   .     S
O568   C569    1.414   .     S
C569   C572    1.536   .     S
C569   H770    1.111   .     S
C569   H771    1.107   .     S
H570   C769    1.111   1_545 S
H571   C769    1.107   1_545 S
C572   H573    1.112   .     S
C572   C575    1.525   .     S
C572   H574    1.110   .     S
C575   H576    1.110   .     S
C575   H577    1.110   .     S
C575   H578    1.111   .     S
O579   C580    1.417   .     S
C580   C583    1.532   .     S
C580   H581    1.109   .     S
C580   H582    1.116   .     S
C583   H584    1.111   .     S
C583   H585    1.109   .     S
C583   C986    1.526   .     S
C586   H588    1.110   .     S
C586   H587    1.111   .     S
C586   H589    1.110   .     S
O590   C591    1.410   .     S
C591   H592    1.114   .     S
C591   H793    1.114   .     S
C591   C794    1.527   .     S
H593   C791    1.114   1_545 S
C594   C597    1.526   .     S
C594   H595    1.112   .     S
C594   C791    1.527   1_545 S
C594   H796    1.112   1_545 S
H596   C794    1.112   .     S
C597   H599    1.110   .     S
C597   H600    1.111   .     S
C597   H798    1.111   1_545 S
H598   C797    1.111   .     S
C601   C625    1.427   .     S
C601   O639    1.282   .     A
C601   O642    1.282   .     A
C602   O641    1.284   .     A
C602   C626    1.433   .     S
C602   O640    1.284   .     A
C603   C607    1.408   .     A
C603   H629    1.082   .     S
C603   N637    1.360   .     A
C604   C608    1.409   .     A
C604   N638    1.362   .     A
C604   H630    1.080   .     S
C605   N637    1.358   .     A
C605   C609    1.420   .     A
C605   H631    1.078   .     S
C606   H632    1.081   .     S
C606   N638    1.362   .     A
C606   C610    1.409   .     A
C607   C613    1.423   .     A
C607   O657    1.385   .     S
C608   O668    1.385   .     S
C608   C614    1.421   .     A
C609   O679    1.393   .     S
C609   C613    1.419   .     A
C610   C614    1.420   .     A
C610   O690    1.382   .     S
C611   C615    1.364   .     S
C611   O643    1.273   .     A
C611   O646    1.276   .     A
C612   C616    1.364   .     S
C612   O645    1.276   .     A
C612   O644    1.272   .     A
C614   C413    1.517   1_565 S
C616   C1015   1.164   .     S
C617   H633    1.084   .     S
C617   C627    1.393   .     A
C617   C621    1.382   .     A
C618   C628    1.394   .     A
C618   H634    1.084   .     S
C618   C622    1.382   .     A
C619   C623    1.391   .     A
C619   C628    1.394   .     A
C619   H635    1.084   .     S
C620   C624    1.381   .     A
C620   C627    1.393   .     A
C620   H636    1.084   .     S
C621   O649    1.384   .     S
C621   C625    1.417   .     A
C622   C626    1.416   .     A
C622   O651    1.382   .     S
C623   C626    1.406   .     A
C623   O653    1.383   .     S
C624   O655    1.384   .     S
C624   C625    1.417   .     A
C627   C728    1.439   1_455 S
C628   C727    1.439   .     S
N637   Zn648   2.006   .     S
N638   Zn647   2.006   .     S
O639   Zn647   1.994   .     S
O640   Zn648   1.994   .     S
O641   Zn647   1.994   .     S
O642   Zn648   1.994   .     S
O643   Zn647   1.944   .     S
O644   Zn648   1.944   .     S
O645   Zn647   1.953   .     S
O646   Zn648   1.953   .     S
O649   H650    0.988   .     S
O651   H652    0.989   .     S
O653   H654    0.992   .     S
O655   H656    0.988   .     S
O657   C658    1.413   .     S
C658   H660    1.111   .     S
H659   C458    1.108   1_565 S
C661   H662    1.111   .     S
C661   H663    1.110   .     S
C661   C458    1.530   1_565 S
C664   H666    1.110   .     S
C664   H665    1.108   .     S
C664   C1061   1.527   .     S
C664   H1067   1.111   .     S
O668   C669    1.414   .     S
C669   C672    1.536   .     S
C669   H470    1.111   1_565 S
C669   H471    1.107   1_565 S
C672   H673    1.112   .     S
C672   C675    1.525   .     S
C672   H674    1.110   .     S
C675   H676    1.110   .     S
C675   H677    1.110   .     S
C675   H678    1.111   .     S
O679   C680    1.417   .     S
C680   C683    1.532   .     S
C680   H681    1.109   .     S
C680   H682    1.116   .     S
C683   H684    1.111   .     S
C683   H685    1.109   .     S
C683   C1086   1.526   .     S
C686   H688    1.110   .     S
C686   H687    1.111   .     S
C686   H689    1.110   .     S
O690   C691    1.410   .     S
C691   H692    1.114   .     S
C691   H493    1.114   1_565 S
C691   C494    1.527   1_565 S
C694   C697    1.526   .     S
C694   H695    1.112   .     S
H696   C494    1.112   1_565 S
C697   H699    1.110   .     S
C697   H700    1.111   .     S
H698   C497    1.111   1_565 S
C701   C725    1.427   .     S
C701   O739    1.282   .     A
C701   O742    1.282   .     A
C702   O741    1.284   .     A
C702   C726    1.433   .     S
C702   O740    1.284   .     A
C703   C707    1.408   .     A
C703   H729    1.082   .     S
C703   N737    1.360   .     A
C704   C708    1.409   .     A
C704   N738    1.362   .     A
C704   H730    1.080   .     S
C705   N737    1.358   .     A
C705   C709    1.420   .     A
C705   H731    1.078   .     S
C706   H732    1.081   .     S
C706   N738    1.362   .     A
C706   C710    1.409   .     A
C707   C713    1.423   .     A
C707   O757    1.385   .     S
C708   O768    1.385   .     S
C708   C714    1.421   .     A
C709   O779    1.393   .     S
C709   C713    1.419   .     A
C710   C714    1.420   .     A
C710   O790    1.382   .     S
C711   C715    1.364   .     S
C711   O743    1.273   .     A
C711   O746    1.276   .     A
C712   C716    1.364   .     S
C712   O745    1.276   .     A
C712   O744    1.272   .     A
C714   C513    1.517   1_565 S
C716   C1115   1.164   .     S
C717   H733    1.084   .     S
C717   C727    1.393   .     A
C717   C721    1.382   .     A
C718   C728    1.394   .     A
C718   H734    1.084   .     S
C718   C722    1.382   .     A
C719   C723    1.391   .     A
C719   C728    1.394   .     A
C719   H735    1.084   .     S
C720   C724    1.381   .     A
C720   C727    1.393   .     A
C720   H736    1.084   .     S
C721   O749    1.384   .     S
C721   C725    1.417   .     A
C722   C726    1.416   .     A
C722   O751    1.382   .     S
C723   C726    1.406   .     A
C723   O753    1.383   .     S
C724   O755    1.384   .     S
C724   C725    1.417   .     A
C728   C627    1.439   1_655 S
N737   Zn748   2.006   .     S
N738   Zn747   2.006   .     S
O739   Zn747   1.994   .     S
O740   Zn748   1.994   .     S
O741   Zn747   1.994   .     S
O742   Zn748   1.994   .     S
O743   Zn747   1.944   .     S
O744   Zn748   1.944   .     S
O745   Zn747   1.953   .     S
O746   Zn748   1.953   .     S
O749   H750    0.988   .     S
O751   H752    0.989   .     S
O753   H754    0.992   .     S
O755   H756    0.988   .     S
O757   C758    1.413   .     S
C758   H760    1.111   .     S
H759   C558    1.108   1_565 S
C761   H762    1.111   .     S
C761   H763    1.110   .     S
C761   C558    1.530   1_565 S
C764   H766    1.110   .     S
C764   H765    1.108   .     S
C764   C1161   1.527   .     S
C764   H1167   1.111   .     S
O768   C769    1.414   .     S
C769   C772    1.536   .     S
C769   H570    1.111   1_565 S
C769   H571    1.107   1_565 S
C772   H773    1.112   .     S
C772   C775    1.525   .     S
C772   H774    1.110   .     S
C775   H776    1.110   .     S
C775   H777    1.110   .     S
C775   H778    1.111   .     S
O779   C780    1.417   .     S
C780   C783    1.532   .     S
C780   H781    1.109   .     S
C780   H782    1.116   .     S
C783   H784    1.111   .     S
C783   H785    1.109   .     S
C783   C1186   1.526   .     S
C786   H788    1.110   .     S
C786   H787    1.111   .     S
C786   H789    1.110   .     S
O790   C791    1.410   .     S
C791   H792    1.114   .     S
C791   H593    1.114   1_565 S
C791   C594    1.527   1_565 S
C794   C797    1.526   .     S
C794   H795    1.112   .     S
H796   C594    1.112   1_565 S
C797   H799    1.110   .     S
C797   H800    1.111   .     S
H798   C597    1.111   1_565 S
C801   C825    1.427   .     S
C801   O839    1.282   .     A
C801   O842    1.282   .     A
C802   O841    1.284   .     A
C802   C826    1.433   .     S
C802   O840    1.284   .     A
C803   C807    1.408   .     A
C803   H829    1.082   .     S
C803   N837    1.360   .     A
C804   C808    1.409   .     A
C804   N838    1.362   .     A
C804   H830    1.080   .     S
C805   N837    1.358   .     A
C805   C809    1.420   .     A
C805   H831    1.078   .     S
C806   H832    1.081   .     S
C806   N838    1.362   .     A
C806   C810    1.409   .     A
C807   C813    1.423   .     A
C807   O857    1.385   .     S
C808   O868    1.385   .     S
C808   C814    1.421   .     A
C809   O879    1.393   .     S
C809   C813    1.419   .     A
C810   C814    1.420   .     A
C810   O890    1.382   .     S
C811   C815    1.364   .     S
C811   O843    1.273   .     A
C811   O846    1.276   .     A
C812   C816    1.364   .     S
C812   O845    1.276   .     A
C812   O844    1.272   .     A
C813   C1014   1.517   1_545 S
C814   C1013   1.517   .     S
C816   C15     1.164   1_556 S
C817   H833    1.084   .     S
C817   C827    1.393   .     A
C817   C821    1.382   .     A
C818   C828    1.394   .     A
C818   H834    1.084   .     S
C818   C822    1.382   .     A
C819   C823    1.391   .     A
C819   C828    1.394   .     A
C819   H835    1.084   .     S
C820   C824    1.381   .     A
C820   C827    1.393   .     A
C820   H836    1.084   .     S
C821   O849    1.384   .     S
C821   C825    1.417   .     A
C822   C826    1.416   .     A
C822   O851    1.382   .     S
C823   C826    1.406   .     A
C823   O853    1.383   .     S
C824   O855    1.384   .     S
C824   C825    1.417   .     A
C827   C928    1.439   1_455 S
C828   C927    1.439   .     S
N837   Zn848   2.006   .     S
N838   Zn847   2.006   .     S
O839   Zn847   1.994   .     S
O840   Zn848   1.994   .     S
O841   Zn847   1.994   .     S
O842   Zn848   1.994   .     S
O843   Zn847   1.944   .     S
O844   Zn848   1.944   .     S
O845   Zn847   1.953   .     S
O846   Zn848   1.953   .     S
O849   H850    0.988   .     S
O851   H852    0.989   .     S
O853   H854    0.992   .     S
O855   H856    0.988   .     S
O857   C858    1.413   .     S
C858   H860    1.111   .     S
C858   H1059   1.108   1_545 S
C858   C1061   1.530   1_545 S
H859   C1058   1.108   .     S
C861   H862    1.111   .     S
C861   H863    1.110   .     S
C861   C1058   1.530   .     S
C864   H866    1.110   .     S
C864   H865    1.108   .     S
C864   C61     1.527   1_556 S
C864   H67     1.111   1_556 S
O868   C869    1.414   .     S
C869   C872    1.536   .     S
C869   H1070   1.111   .     S
C869   H1071   1.107   .     S
H870   C1069   1.111   1_545 S
H871   C1069   1.107   1_545 S
C872   H873    1.112   .     S
C872   C875    1.525   .     S
C872   H874    1.110   .     S
C875   H876    1.110   .     S
C875   H877    1.110   .     S
C875   H878    1.111   .     S
O879   C880    1.417   .     S
C880   C883    1.532   .     S
C880   H881    1.109   .     S
C880   H882    1.116   .     S
C883   H884    1.111   .     S
C883   H885    1.109   .     S
C883   C86     1.526   1_556 S
C886   H888    1.110   .     S
C886   H887    1.111   .     S
C886   H889    1.110   .     S
O890   C891    1.410   .     S
C891   H892    1.114   .     S
C891   H1093   1.114   .     S
C891   C1094   1.527   .     S
H893   C1091   1.114   1_545 S
C894   C897    1.526   .     S
C894   H895    1.112   .     S
C894   C1091   1.527   1_545 S
C894   H1096   1.112   1_545 S
H896   C1094   1.112   .     S
C897   H899    1.110   .     S
C897   H900    1.111   .     S
C897   H1098   1.111   1_545 S
H898   C1097   1.111   .     S
C901   C925    1.427   .     S
C901   O939    1.282   .     A
C901   O942    1.282   .     A
C902   O941    1.284   .     A
C902   C926    1.433   .     S
C902   O940    1.284   .     A
C903   C907    1.408   .     A
C903   H929    1.082   .     S
C903   N937    1.360   .     A
C904   C908    1.409   .     A
C904   N938    1.362   .     A
C904   H930    1.080   .     S
C905   N937    1.358   .     A
C905   C909    1.420   .     A
C905   H931    1.078   .     S
C906   H932    1.081   .     S
C906   N938    1.362   .     A
C906   C910    1.409   .     A
C907   C913    1.423   .     A
C907   O957    1.385   .     S
C908   O968    1.385   .     S
C908   C914    1.421   .     A
C909   O979    1.393   .     S
C909   C913    1.419   .     A
C910   C914    1.420   .     A
C910   O990    1.382   .     S
C911   C915    1.364   .     S
C911   O943    1.273   .     A
C911   O946    1.276   .     A
C912   C916    1.364   .     S
C912   O945    1.276   .     A
C912   O944    1.272   .     A
C913   C1114   1.517   1_545 S
C914   C1113   1.517   .     S
C916   C115    1.164   1_556 S
C917   H933    1.084   .     S
C917   C927    1.393   .     A
C917   C921    1.382   .     A
C918   C928    1.394   .     A
C918   H934    1.084   .     S
C918   C922    1.382   .     A
C919   C923    1.391   .     A
C919   C928    1.394   .     A
C919   H935    1.084   .     S
C920   C924    1.381   .     A
C920   C927    1.393   .     A
C920   H936    1.084   .     S
C921   O949    1.384   .     S
C921   C925    1.417   .     A
C922   C926    1.416   .     A
C922   O951    1.382   .     S
C923   C926    1.406   .     A
C923   O953    1.383   .     S
C924   O955    1.384   .     S
C924   C925    1.417   .     A
C928   C827    1.439   1_655 S
N937   Zn948   2.006   .     S
N938   Zn947   2.006   .     S
O939   Zn947   1.994   .     S
O940   Zn948   1.994   .     S
O941   Zn947   1.994   .     S
O942   Zn948   1.994   .     S
O943   Zn947   1.944   .     S
O944   Zn948   1.944   .     S
O945   Zn947   1.953   .     S
O946   Zn948   1.953   .     S
O949   H950    0.988   .     S
O951   H952    0.989   .     S
O953   H954    0.992   .     S
O955   H956    0.988   .     S
O957   C958    1.413   .     S
C958   H960    1.111   .     S
C958   H1159   1.108   1_545 S
C958   C1161   1.530   1_545 S
H959   C1158   1.108   .     S
C961   H962    1.111   .     S
C961   H963    1.110   .     S
C961   C1158   1.530   .     S
C964   H966    1.110   .     S
C964   H965    1.108   .     S
C964   C161    1.527   1_556 S
C964   H167    1.111   1_556 S
O968   C969    1.414   .     S
C969   C972    1.536   .     S
C969   H1170   1.111   .     S
C969   H1171   1.107   .     S
H970   C1169   1.111   1_545 S
H971   C1169   1.107   1_545 S
C972   H973    1.112   .     S
C972   C975    1.525   .     S
C972   H974    1.110   .     S
C975   H976    1.110   .     S
C975   H977    1.110   .     S
C975   H978    1.111   .     S
O979   C980    1.417   .     S
C980   C983    1.532   .     S
C980   H981    1.109   .     S
C980   H982    1.116   .     S
C983   H984    1.111   .     S
C983   H985    1.109   .     S
C983   C186    1.526   1_556 S
C986   H988    1.110   .     S
C986   H987    1.111   .     S
C986   H989    1.110   .     S
O990   C991    1.410   .     S
C991   H992    1.114   .     S
C991   H1193   1.114   .     S
C991   C1194   1.527   .     S
H993   C1191   1.114   1_545 S
C994   C997    1.526   .     S
C994   H995    1.112   .     S
C994   C1191   1.527   1_545 S
C994   H1196   1.112   1_545 S
H996   C1194   1.112   .     S
C997   H999    1.110   .     S
C997   H1000   1.111   .     S
C997   H1198   1.111   1_545 S
H998   C1197   1.111   .     S
C1001  C1025   1.427   .     S
C1001  O1039   1.282   .     A
C1001  O1042   1.282   .     A
C1002  O1041   1.284   .     A
C1002  C1026   1.433   .     S
C1002  O1040   1.284   .     A
C1003  C1007   1.408   .     A
C1003  H1029   1.082   .     S
C1003  N1037   1.360   .     A
C1004  C1008   1.409   .     A
C1004  N1038   1.362   .     A
C1004  H1030   1.080   .     S
C1005  N1037   1.358   .     A
C1005  C1009   1.420   .     A
C1005  H1031   1.078   .     S
C1006  H1032   1.081   .     S
C1006  N1038   1.362   .     A
C1006  C1010   1.409   .     A
C1007  C1013   1.423   .     A
C1007  O1057   1.385   .     S
C1008  O1068   1.385   .     S
C1008  C1014   1.421   .     A
C1009  O1079   1.393   .     S
C1009  C1013   1.419   .     A
C1010  C1014   1.420   .     A
C1010  O1090   1.382   .     S
C1011  C1015   1.364   .     S
C1011  O1043   1.273   .     A
C1011  O1046   1.276   .     A
C1012  C1016   1.364   .     S
C1012  O1045   1.276   .     A
C1012  O1044   1.272   .     A
C1014  C813    1.517   1_565 S
C1016  C215    1.164   1_556 S
C1017  H1033   1.084   .     S
C1017  C1027   1.393   .     A
C1017  C1021   1.382   .     A
C1018  C1028   1.394   .     A
C1018  H1034   1.084   .     S
C1018  C1022   1.382   .     A
C1019  C1023   1.391   .     A
C1019  C1028   1.394   .     A
C1019  H1035   1.084   .     S
C1020  C1024   1.381   .     A
C1020  C1027   1.393   .     A
C1020  H1036   1.084   .     S
C1021  O1049   1.384   .     S
C1021  C1025   1.417   .     A
C1022  C1026   1.416   .     A
C1022  O1051   1.382   .     S
C1023  C1026   1.406   .     A
C1023  O1053   1.383   .     S
C1024  O1055   1.384   .     S
C1024  C1025   1.417   .     A
C1027  C1128   1.439   1_455 S
C1028  C1127   1.439   .     S
N1037  Zn1048  2.006   .     S
N1038  Zn1047  2.006   .     S
O1039  Zn1047  1.994   .     S
O1040  Zn1048  1.994   .     S
O1041  Zn1047  1.994   .     S
O1042  Zn1048  1.994   .     S
O1043  Zn1047  1.944   .     S
O1044  Zn1048  1.944   .     S
O1045  Zn1047  1.953   .     S
O1046  Zn1048  1.953   .     S
O1049  H1050   0.988   .     S
O1051  H1052   0.989   .     S
O1053  H1054   0.992   .     S
O1055  H1056   0.988   .     S
O1057  C1058   1.413   .     S
C1058  H1060   1.111   .     S
H1059  C858    1.108   1_565 S
C1061  H1062   1.111   .     S
C1061  H1063   1.110   .     S
C1061  C858    1.530   1_565 S
C1064  H1066   1.110   .     S
C1064  H1065   1.108   .     S
C1064  C261    1.527   1_556 S
C1064  H267    1.111   1_556 S
O1068  C1069   1.414   .     S
C1069  C1072   1.536   .     S
C1069  H870    1.111   1_565 S
C1069  H871    1.107   1_565 S
C1072  H1073   1.112   .     S
C1072  C1075   1.525   .     S
C1072  H1074   1.110   .     S
C1075  H1076   1.110   .     S
C1075  H1077   1.110   .     S
C1075  H1078   1.111   .     S
O1079  C1080   1.417   .     S
C1080  C1083   1.532   .     S
C1080  H1081   1.109   .     S
C1080  H1082   1.116   .     S
C1083  H1084   1.111   .     S
C1083  H1085   1.109   .     S
C1083  C286    1.526   1_556 S
C1086  H1088   1.110   .     S
C1086  H1087   1.111   .     S
C1086  H1089   1.110   .     S
O1090  C1091   1.410   .     S
C1091  H1092   1.114   .     S
C1091  H893    1.114   1_565 S
C1091  C894    1.527   1_565 S
C1094  C1097   1.526   .     S
C1094  H1095   1.112   .     S
H1096  C894    1.112   1_565 S
C1097  H1099   1.110   .     S
C1097  H1100   1.111   .     S
H1098  C897    1.111   1_565 S
C1101  C1125   1.427   .     S
C1101  O1139   1.282   .     A
C1101  O1142   1.282   .     A
C1102  O1141   1.284   .     A
C1102  C1126   1.433   .     S
C1102  O1140   1.284   .     A
C1103  C1107   1.408   .     A
C1103  H1129   1.082   .     S
C1103  N1137   1.360   .     A
C1104  C1108   1.409   .     A
C1104  N1138   1.362   .     A
C1104  H1130   1.080   .     S
C1105  N1137   1.358   .     A
C1105  C1109   1.420   .     A
C1105  H1131   1.078   .     S
C1106  H1132   1.081   .     S
C1106  N1138   1.362   .     A
C1106  C1110   1.409   .     A
C1107  C1113   1.423   .     A
C1107  O1157   1.385   .     S
C1108  O1168   1.385   .     S
C1108  C1114   1.421   .     A
C1109  O1179   1.393   .     S
C1109  C1113   1.419   .     A
C1110  C1114   1.420   .     A
C1110  O1190   1.382   .     S
C1111  C1115   1.364   .     S
C1111  O1143   1.273   .     A
C1111  O1146   1.276   .     A
C1112  C1116   1.364   .     S
C1112  O1145   1.276   .     A
C1112  O1144   1.272   .     A
C1114  C913    1.517   1_565 S
C1116  C315    1.164   1_556 S
C1117  H1133   1.084   .     S
C1117  C1127   1.393   .     A
C1117  C1121   1.382   .     A
C1118  C1128   1.394   .     A
C1118  H1134   1.084   .     S
C1118  C1122   1.382   .     A
C1119  C1123   1.391   .     A
C1119  C1128   1.394   .     A
C1119  H1135   1.084   .     S
C1120  C1124   1.381   .     A
C1120  C1127   1.393   .     A
C1120  H1136   1.084   .     S
C1121  O1149   1.384   .     S
C1121  C1125   1.417   .     A
C1122  C1126   1.416   .     A
C1122  O1151   1.382   .     S
C1123  C1126   1.406   .     A
C1123  O1153   1.383   .     S
C1124  O1155   1.384   .     S
C1124  C1125   1.417   .     A
C1128  C1027   1.439   1_655 S
N1137  Zn1148  2.006   .     S
N1138  Zn1147  2.006   .     S
O1139  Zn1147  1.994   .     S
O1140  Zn1148  1.994   .     S
O1141  Zn1147  1.994   .     S
O1142  Zn1148  1.994   .     S
O1143  Zn1147  1.944   .     S
O1144  Zn1148  1.944   .     S
O1145  Zn1147  1.953   .     S
O1146  Zn1148  1.953   .     S
O1149  H1150   0.988   .     S
O1151  H1152   0.989   .     S
O1153  H1154   0.992   .     S
O1155  H1156   0.988   .     S
O1157  C1158   1.413   .     S
C1158  H1160   1.111   .     S
H1159  C958    1.108   1_565 S
C1161  H1162   1.111   .     S
C1161  H1163   1.110   .     S
C1161  C958    1.530   1_565 S
C1164  H1166   1.110   .     S
C1164  H1165   1.108   .     S
C1164  C361    1.527   1_556 S
C1164  H367    1.111   1_556 S
O1168  C1169   1.414   .     S
C1169  C1172   1.536   .     S
C1169  H970    1.111   1_565 S
C1169  H971    1.107   1_565 S
C1172  H1173   1.112   .     S
C1172  C1175   1.525   .     S
C1172  H1174   1.110   .     S
C1175  H1176   1.110   .     S
C1175  H1177   1.110   .     S
C1175  H1178   1.111   .     S
O1179  C1180   1.417   .     S
C1180  C1183   1.532   .     S
C1180  H1181   1.109   .     S
C1180  H1182   1.116   .     S
C1183  H1184   1.111   .     S
C1183  H1185   1.109   .     S
C1183  C386    1.526   1_556 S
C1186  H1188   1.110   .     S
C1186  H1187   1.111   .     S
C1186  H1189   1.110   .     S
O1190  C1191   1.410   .     S
C1191  H1192   1.114   .     S
C1191  H993    1.114   1_565 S
C1191  C994    1.527   1_565 S
C1194  C1197   1.526   .     S
C1194  H1195   1.112   .     S
H1196  C994    1.112   1_565 S
C1197  H1199   1.110   .     S
C1197  H1200   1.111   .     S
H1198  C997    1.111   1_565 S
