data_str_m3_o1_o18_pcu_sym.231
_audit_creation_date              2020-01-03
_audit_creation_method            'Materials Studio'
_symmetry_space_group_name_H-M    'P1'
_symmetry_Int_Tables_number       1
_symmetry_cell_setting            triclinic
loop_
_symmetry_equiv_pos_as_xyz
  x,y,z
_cell_length_a                    29.7332
_cell_length_b                    32.0390
_cell_length_c                    31.0574
_cell_angle_alpha                 90.6877
_cell_angle_beta                  66.0469
_cell_angle_gamma                 89.0320
loop_
_atom_site_label
_atom_site_type_symbol
_atom_site_fract_x
_atom_site_fract_y
_atom_site_fract_z
_atom_site_U_iso_or_equiv
_atom_site_adp_type
_atom_site_occupancy
O1     O     0.12846   0.22775   0.25001   0.00000  Uiso   1.00
O2     O     0.20488   0.10558   0.25000   0.00000  Uiso   1.00
O3     O     0.20490   0.22774   0.25000   0.00000  Uiso   1.00
O4     O     0.12843   0.10559   0.25000   0.00000  Uiso   1.00
C5     C     0.16630   0.24662   0.25031   0.00000  Uiso   1.00
C6     C     0.16704   0.08671   0.24969   0.00000  Uiso   1.00
O7     O     0.10661   0.16667   0.31613   0.00000  Uiso   1.00
O8     O     0.22672   0.16666   0.18388   0.00000  Uiso   1.00
O9     O     0.18305   0.16666   0.31612   0.00000  Uiso   1.00
O10    O     0.15028   0.16667   0.18388   0.00000  Uiso   1.00
C11    C     0.13523   0.16661   0.33851   0.00000  Uiso   1.00
C12    C     0.19811   0.16672   0.16149   0.00000  Uiso   1.00
Zn13   Zn    0.11562   0.16667   0.25000   0.00000  Uiso   1.00
Zn14   Zn    0.21771   0.16666   0.25000   0.00000  Uiso   1.00
C15    C     0.11431   0.16886   0.39044   0.00000  Uiso   1.00
C16    C     0.21903   0.16447   0.10956   0.00000  Uiso   1.00
C17    C     0.05589   0.19663   0.46666   0.00000  Uiso   1.00
C18    C     0.27744   0.13670   0.03334   0.00000  Uiso   1.00
C19    C     0.06759   0.18695   0.41873   0.00000  Uiso   1.00
C20    C     0.26575   0.14638   0.08127   0.00000  Uiso   1.00
C21    C     0.14612   0.15760   0.41122   0.00000  Uiso   1.00
C22    C     0.18721   0.17573   0.08878   0.00000  Uiso   1.00
C23    C     0.13760   0.17054   0.45692   0.00000  Uiso   1.00
C24    C     0.19573   0.16278   0.04308   0.00000  Uiso   1.00
C25    C     0.09040   0.18704   0.48585   0.00000  Uiso   1.00
C26    C     0.24294   0.14628   0.01415   0.00000  Uiso   1.00
C27    C     0.17413   0.16537   0.47517   0.00000  Uiso   1.00
C28    C     0.15921   0.16796   0.02484   0.00000  Uiso   1.00
C29    C     0.10837   0.17589   0.05429   0.00000  Uiso   1.00
C30    C     0.22496   0.15743   0.44571   0.00000  Uiso   1.00
C31    C     0.07664   0.18996   0.03439   0.00000  Uiso   1.00
C32    C     0.25669   0.14336   0.46561   0.00000  Uiso   1.00
H33    H     0.03911   0.19860   0.05751   0.00000  Uiso   1.00
H34    H     0.29422   0.13472   0.44249   0.00000  Uiso   1.00
H35    H     0.15520   0.19484   0.10930   0.00000  Uiso   1.00
H36    H     0.17813   0.13849   0.39070   0.00000  Uiso   1.00
C37    C     0.19569   0.31170   0.26863   0.00000  Uiso   1.00
C38    C     0.13764   0.02164   0.23136   0.00000  Uiso   1.00
H39    H     0.21793   0.29505   0.28347   0.00000  Uiso   1.00
H40    H     0.11541   0.03828   0.21652   0.00000  Uiso   1.00
C41    C     0.19638   0.02113   0.26802   0.00000  Uiso   1.00
C42    C     0.13696   0.31220   0.23197   0.00000  Uiso   1.00
H43    H     0.21875   0.03739   0.28271   0.00000  Uiso   1.00
H44    H     0.11459   0.29594   0.21728   0.00000  Uiso   1.00
C45    C     0.16736   0.04253   0.24940   0.00000  Uiso   1.00
C46    C     0.16598   0.29080   0.25060   0.00000  Uiso   1.00
C47    C     0.31755   0.13252   0.23364   0.00000  Uiso   1.00
C48    C     0.01578   0.20081   0.26636   0.00000  Uiso   1.00
C49    C     0.03173   0.13276   0.23406   0.00000  Uiso   1.00
C50    C     0.30161   0.20058   0.26594   0.00000  Uiso   1.00
H51    H     0.05627   0.10590   0.22066   0.00000  Uiso   1.00
H52    H     0.27707   0.22744   0.27934   0.00000  Uiso   1.00
N53    N     0.04759   0.16668   0.25001   0.00000  Uiso   1.00
N54    N     0.28574   0.16666   0.24999   0.00000  Uiso   1.00
O55    O     0.30055   0.13837   0.09889   0.00000  Uiso   1.00
H56    H     0.30145   0.16323   0.11771   0.00000  Uiso   1.00
O57    O     0.03279   0.19497   0.40111   0.00000  Uiso   1.00
H58    H     0.03188   0.17011   0.38229   0.00000  Uiso   1.00
O59    O     0.01099   0.21478   0.49580   0.00000  Uiso   1.00
H60    H     0.32383   0.21989   0.47794   0.00000  Uiso   1.00
O61    O     0.32234   0.11855   0.00421   0.00000  Uiso   1.00
H62    H     0.00951   0.11345   0.02206   0.00000  Uiso   1.00
N63    N     0.08667   0.16446   0.10301   0.00000  Uiso   1.00
O64    O     0.09723   0.12821   0.11546   0.00000  Uiso   1.00
O65    O     0.05134   0.18737   0.13368   0.00000  Uiso   1.00
N66    N     0.24666   0.16885   0.39699   0.00000  Uiso   1.00
O67    O     0.28195   0.14592   0.36632   0.00000  Uiso   1.00
O68    O     0.23613   0.20512   0.38454   0.00000  Uiso   1.00
N69    N     0.30406   0.09624   0.21487   0.00000  Uiso   1.00
O70    O     0.31462   0.05935   0.22579   0.00000  Uiso   1.00
O71    O     0.29258   0.09966   0.17893   0.00000  Uiso   1.00
N72    N     0.02928   0.23709   0.28512   0.00000  Uiso   1.00
O73    O     0.01876   0.27398   0.27417   0.00000  Uiso   1.00
O74    O     0.04073   0.23368   0.32107   0.00000  Uiso   1.00
O75    O     0.46179   0.22775   0.25001   0.00000  Uiso   1.00
O76    O     0.53821   0.10558   0.25000   0.00000  Uiso   1.00
O77    O     0.53823   0.22774   0.25000   0.00000  Uiso   1.00
O78    O     0.46177   0.10559   0.25000   0.00000  Uiso   1.00
C79    C     0.49963   0.24662   0.25031   0.00000  Uiso   1.00
C80    C     0.50037   0.08671   0.24969   0.00000  Uiso   1.00
O81    O     0.43994   0.16667   0.31613   0.00000  Uiso   1.00
O82    O     0.56006   0.16666   0.18388   0.00000  Uiso   1.00
O83    O     0.51639   0.16666   0.31612   0.00000  Uiso   1.00
O84    O     0.48361   0.16667   0.18388   0.00000  Uiso   1.00
C85    C     0.46856   0.16661   0.33851   0.00000  Uiso   1.00
C86    C     0.53144   0.16672   0.16149   0.00000  Uiso   1.00
Zn87   Zn    0.44896   0.16667   0.25000   0.00000  Uiso   1.00
Zn88   Zn    0.55104   0.16666   0.25000   0.00000  Uiso   1.00
C89    C     0.44764   0.16886   0.39044   0.00000  Uiso   1.00
C90    C     0.55236   0.16447   0.10956   0.00000  Uiso   1.00
C91    C     0.38922   0.19663   0.46666   0.00000  Uiso   1.00
C92    C     0.61078   0.13670   0.03334   0.00000  Uiso   1.00
C93    C     0.40092   0.18695   0.41873   0.00000  Uiso   1.00
C94    C     0.59908   0.14638   0.08127   0.00000  Uiso   1.00
C95    C     0.47946   0.15760   0.41122   0.00000  Uiso   1.00
C96    C     0.52054   0.17573   0.08878   0.00000  Uiso   1.00
C97    C     0.47094   0.17054   0.45692   0.00000  Uiso   1.00
C98    C     0.52906   0.16278   0.04308   0.00000  Uiso   1.00
C99    C     0.42373   0.18704   0.48585   0.00000  Uiso   1.00
C100   C     0.57627   0.14628   0.01415   0.00000  Uiso   1.00
C101   C     0.50746   0.16537   0.47517   0.00000  Uiso   1.00
C102   C     0.49254   0.16796   0.02484   0.00000  Uiso   1.00
C103   C     0.44171   0.17589   0.05429   0.00000  Uiso   1.00
C104   C     0.55829   0.15743   0.44571   0.00000  Uiso   1.00
C105   C     0.40997   0.18996   0.03439   0.00000  Uiso   1.00
C106   C     0.59003   0.14336   0.46561   0.00000  Uiso   1.00
H107   H     0.37244   0.19860   0.05751   0.00000  Uiso   1.00
H108   H     0.62756   0.13472   0.44249   0.00000  Uiso   1.00
H109   H     0.48854   0.19484   0.10930   0.00000  Uiso   1.00
H110   H     0.51146   0.13849   0.39070   0.00000  Uiso   1.00
C111   C     0.52903   0.31170   0.26863   0.00000  Uiso   1.00
C112   C     0.47098   0.02164   0.23136   0.00000  Uiso   1.00
H113   H     0.55126   0.29505   0.28347   0.00000  Uiso   1.00
H114   H     0.44874   0.03828   0.21652   0.00000  Uiso   1.00
C115   C     0.52971   0.02113   0.26802   0.00000  Uiso   1.00
C116   C     0.47029   0.31220   0.23197   0.00000  Uiso   1.00
H117   H     0.55208   0.03739   0.28271   0.00000  Uiso   1.00
H118   H     0.44792   0.29594   0.21728   0.00000  Uiso   1.00
C119   C     0.50069   0.04253   0.24940   0.00000  Uiso   1.00
C120   C     0.49931   0.29080   0.25060   0.00000  Uiso   1.00
C121   C     0.65088   0.13252   0.23364   0.00000  Uiso   1.00
C122   C     0.34912   0.20081   0.26636   0.00000  Uiso   1.00
C123   C     0.36506   0.13276   0.23406   0.00000  Uiso   1.00
C124   C     0.63494   0.20058   0.26594   0.00000  Uiso   1.00
H125   H     0.38960   0.10590   0.22066   0.00000  Uiso   1.00
H126   H     0.61040   0.22744   0.27934   0.00000  Uiso   1.00
N127   N     0.38093   0.16668   0.25001   0.00000  Uiso   1.00
N128   N     0.61907   0.16666   0.24999   0.00000  Uiso   1.00
O129   O     0.63389   0.13837   0.09889   0.00000  Uiso   1.00
H130   H     0.63478   0.16323   0.11771   0.00000  Uiso   1.00
O131   O     0.36612   0.19497   0.40111   0.00000  Uiso   1.00
H132   H     0.36522   0.17011   0.38229   0.00000  Uiso   1.00
O133   O     0.34433   0.21478   0.49580   0.00000  Uiso   1.00
H134   H     0.65717   0.21989   0.47794   0.00000  Uiso   1.00
O135   O     0.65567   0.11855   0.00421   0.00000  Uiso   1.00
H136   H     0.34284   0.11345   0.02206   0.00000  Uiso   1.00
N137   N     0.42000   0.16446   0.10301   0.00000  Uiso   1.00
O138   O     0.43056   0.12821   0.11546   0.00000  Uiso   1.00
O139   O     0.38468   0.18737   0.13368   0.00000  Uiso   1.00
N140   N     0.57999   0.16885   0.39699   0.00000  Uiso   1.00
O141   O     0.61529   0.14592   0.36632   0.00000  Uiso   1.00
O142   O     0.56947   0.20512   0.38454   0.00000  Uiso   1.00
N143   N     0.63739   0.09624   0.21487   0.00000  Uiso   1.00
O144   O     0.64795   0.05935   0.22579   0.00000  Uiso   1.00
O145   O     0.62592   0.09966   0.17893   0.00000  Uiso   1.00
N146   N     0.36262   0.23709   0.28512   0.00000  Uiso   1.00
O147   O     0.35209   0.27398   0.27417   0.00000  Uiso   1.00
O148   O     0.37406   0.23368   0.32107   0.00000  Uiso   1.00
O149   O     0.79512   0.22775   0.25001   0.00000  Uiso   1.00
O150   O     0.87154   0.10558   0.25000   0.00000  Uiso   1.00
O151   O     0.87157   0.22774   0.25000   0.00000  Uiso   1.00
O152   O     0.79510   0.10559   0.25000   0.00000  Uiso   1.00
C153   C     0.83296   0.24662   0.25031   0.00000  Uiso   1.00
C154   C     0.83370   0.08671   0.24969   0.00000  Uiso   1.00
O155   O     0.77328   0.16667   0.31613   0.00000  Uiso   1.00
O156   O     0.89339   0.16666   0.18388   0.00000  Uiso   1.00
O157   O     0.84972   0.16666   0.31612   0.00000  Uiso   1.00
O158   O     0.81695   0.16667   0.18388   0.00000  Uiso   1.00
C159   C     0.80189   0.16661   0.33851   0.00000  Uiso   1.00
C160   C     0.86477   0.16672   0.16149   0.00000  Uiso   1.00
Zn161  Zn    0.78229   0.16667   0.25000   0.00000  Uiso   1.00
Zn162  Zn    0.88438   0.16666   0.25000   0.00000  Uiso   1.00
C163   C     0.78098   0.16886   0.39044   0.00000  Uiso   1.00
C164   C     0.88569   0.16447   0.10956   0.00000  Uiso   1.00
C165   C     0.72256   0.19663   0.46666   0.00000  Uiso   1.00
C166   C     0.94411   0.13670   0.03334   0.00000  Uiso   1.00
C167   C     0.73426   0.18695   0.41873   0.00000  Uiso   1.00
C168   C     0.93241   0.14638   0.08127   0.00000  Uiso   1.00
C169   C     0.81279   0.15760   0.41122   0.00000  Uiso   1.00
C170   C     0.85388   0.17573   0.08878   0.00000  Uiso   1.00
C171   C     0.80427   0.17054   0.45692   0.00000  Uiso   1.00
C172   C     0.86240   0.16278   0.04308   0.00000  Uiso   1.00
C173   C     0.75706   0.18704   0.48585   0.00000  Uiso   1.00
C174   C     0.90960   0.14628   0.01415   0.00000  Uiso   1.00
C175   C     0.84079   0.16537   0.47517   0.00000  Uiso   1.00
C176   C     0.82587   0.16796   0.02484   0.00000  Uiso   1.00
C177   C     0.77504   0.17589   0.05429   0.00000  Uiso   1.00
C178   C     0.89163   0.15743   0.44571   0.00000  Uiso   1.00
C179   C     0.74331   0.18996   0.03439   0.00000  Uiso   1.00
C180   C     0.92336   0.14336   0.46561   0.00000  Uiso   1.00
H181   H     0.70578   0.19860   0.05751   0.00000  Uiso   1.00
H182   H     0.96089   0.13472   0.44249   0.00000  Uiso   1.00
H183   H     0.82187   0.19484   0.10930   0.00000  Uiso   1.00
H184   H     0.84480   0.13849   0.39070   0.00000  Uiso   1.00
C185   C     0.86236   0.31170   0.26863   0.00000  Uiso   1.00
C186   C     0.80431   0.02164   0.23136   0.00000  Uiso   1.00
H187   H     0.88459   0.29505   0.28347   0.00000  Uiso   1.00
H188   H     0.78208   0.03828   0.21652   0.00000  Uiso   1.00
C189   C     0.86305   0.02113   0.26802   0.00000  Uiso   1.00
C190   C     0.80363   0.31220   0.23197   0.00000  Uiso   1.00
H191   H     0.88542   0.03739   0.28271   0.00000  Uiso   1.00
H192   H     0.78126   0.29594   0.21728   0.00000  Uiso   1.00
C193   C     0.83402   0.04253   0.24940   0.00000  Uiso   1.00
C194   C     0.83264   0.29080   0.25060   0.00000  Uiso   1.00
C195   C     0.98422   0.13252   0.23364   0.00000  Uiso   1.00
C196   C     0.68245   0.20081   0.26636   0.00000  Uiso   1.00
C197   C     0.69839   0.13276   0.23406   0.00000  Uiso   1.00
C198   C     0.96827   0.20058   0.26594   0.00000  Uiso   1.00
H199   H     0.72294   0.10590   0.22066   0.00000  Uiso   1.00
H200   H     0.94373   0.22744   0.27934   0.00000  Uiso   1.00
N201   N     0.71426   0.16668   0.25001   0.00000  Uiso   1.00
N202   N     0.95241   0.16666   0.24999   0.00000  Uiso   1.00
O203   O     0.96722   0.13837   0.09889   0.00000  Uiso   1.00
H204   H     0.96811   0.16323   0.11771   0.00000  Uiso   1.00
O205   O     0.69945   0.19497   0.40111   0.00000  Uiso   1.00
H206   H     0.69855   0.17011   0.38229   0.00000  Uiso   1.00
O207   O     0.67766   0.21478   0.49580   0.00000  Uiso   1.00
H208   H     0.99050   0.21989   0.47794   0.00000  Uiso   1.00
O209   O     0.98901   0.11855   0.00421   0.00000  Uiso   1.00
H210   H     0.67618   0.11345   0.02206   0.00000  Uiso   1.00
N211   N     0.75334   0.16446   0.10301   0.00000  Uiso   1.00
O212   O     0.76390   0.12821   0.11546   0.00000  Uiso   1.00
O213   O     0.71801   0.18737   0.13368   0.00000  Uiso   1.00
N214   N     0.91333   0.16885   0.39699   0.00000  Uiso   1.00
O215   O     0.94862   0.14592   0.36632   0.00000  Uiso   1.00
O216   O     0.90280   0.20512   0.38454   0.00000  Uiso   1.00
N217   N     0.97072   0.09624   0.21487   0.00000  Uiso   1.00
O218   O     0.98128   0.05935   0.22579   0.00000  Uiso   1.00
O219   O     0.95925   0.09966   0.17893   0.00000  Uiso   1.00
N220   N     0.69595   0.23709   0.28512   0.00000  Uiso   1.00
O221   O     0.68543   0.27398   0.27417   0.00000  Uiso   1.00
O222   O     0.70740   0.23368   0.32107   0.00000  Uiso   1.00
O223   O     0.12846   0.56108   0.25001   0.00000  Uiso   1.00
O224   O     0.20488   0.43892   0.25000   0.00000  Uiso   1.00
O225   O     0.20490   0.56107   0.25000   0.00000  Uiso   1.00
O226   O     0.12843   0.43893   0.25000   0.00000  Uiso   1.00
C227   C     0.16630   0.57996   0.25031   0.00000  Uiso   1.00
C228   C     0.16704   0.42004   0.24969   0.00000  Uiso   1.00
O229   O     0.10661   0.50001   0.31613   0.00000  Uiso   1.00
O230   O     0.22672   0.49999   0.18388   0.00000  Uiso   1.00
O231   O     0.18305   0.50000   0.31612   0.00000  Uiso   1.00
O232   O     0.15028   0.50000   0.18388   0.00000  Uiso   1.00
C233   C     0.13523   0.49994   0.33851   0.00000  Uiso   1.00
C234   C     0.19811   0.50006   0.16149   0.00000  Uiso   1.00
Zn235  Zn    0.11562   0.50001   0.25000   0.00000  Uiso   1.00
Zn236  Zn    0.21771   0.49999   0.25000   0.00000  Uiso   1.00
C237   C     0.11431   0.50220   0.39044   0.00000  Uiso   1.00
C238   C     0.21903   0.49780   0.10956   0.00000  Uiso   1.00
C239   C     0.05589   0.52997   0.46666   0.00000  Uiso   1.00
C240   C     0.27744   0.47003   0.03334   0.00000  Uiso   1.00
C241   C     0.06759   0.52029   0.41873   0.00000  Uiso   1.00
C242   C     0.26575   0.47972   0.08127   0.00000  Uiso   1.00
C243   C     0.14612   0.49093   0.41122   0.00000  Uiso   1.00
C244   C     0.18721   0.50907   0.08878   0.00000  Uiso   1.00
C245   C     0.13760   0.50388   0.45692   0.00000  Uiso   1.00
C246   C     0.19573   0.49611   0.04308   0.00000  Uiso   1.00
C247   C     0.09040   0.52038   0.48585   0.00000  Uiso   1.00
C248   C     0.24294   0.47962   0.01415   0.00000  Uiso   1.00
C249   C     0.17413   0.49870   0.47517   0.00000  Uiso   1.00
C250   C     0.15921   0.50129   0.02484   0.00000  Uiso   1.00
C251   C     0.10837   0.50922   0.05429   0.00000  Uiso   1.00
C252   C     0.22496   0.49076   0.44571   0.00000  Uiso   1.00
C253   C     0.07664   0.52329   0.03439   0.00000  Uiso   1.00
C254   C     0.25669   0.47670   0.46561   0.00000  Uiso   1.00
H255   H     0.03911   0.53194   0.05751   0.00000  Uiso   1.00
H256   H     0.29422   0.46806   0.44249   0.00000  Uiso   1.00
H257   H     0.15520   0.52818   0.10930   0.00000  Uiso   1.00
H258   H     0.17813   0.47182   0.39070   0.00000  Uiso   1.00
C259   C     0.19569   0.64503   0.26863   0.00000  Uiso   1.00
C260   C     0.13764   0.35497   0.23136   0.00000  Uiso   1.00
H261   H     0.21793   0.62839   0.28347   0.00000  Uiso   1.00
H262   H     0.11541   0.37161   0.21652   0.00000  Uiso   1.00
C263   C     0.19638   0.35446   0.26802   0.00000  Uiso   1.00
C264   C     0.13696   0.64554   0.23197   0.00000  Uiso   1.00
H265   H     0.21875   0.37072   0.28271   0.00000  Uiso   1.00
H266   H     0.11459   0.62928   0.21728   0.00000  Uiso   1.00
C267   C     0.16736   0.37586   0.24940   0.00000  Uiso   1.00
C268   C     0.16598   0.62414   0.25060   0.00000  Uiso   1.00
C269   C     0.31755   0.46585   0.23364   0.00000  Uiso   1.00
C270   C     0.01578   0.53415   0.26636   0.00000  Uiso   1.00
C271   C     0.03173   0.46609   0.23406   0.00000  Uiso   1.00
C272   C     0.30161   0.53391   0.26594   0.00000  Uiso   1.00
H273   H     0.05627   0.43923   0.22066   0.00000  Uiso   1.00
H274   H     0.27707   0.56077   0.27934   0.00000  Uiso   1.00
N275   N     0.04759   0.50001   0.25001   0.00000  Uiso   1.00
N276   N     0.28574   0.49999   0.24999   0.00000  Uiso   1.00
O277   O     0.30055   0.47170   0.09889   0.00000  Uiso   1.00
H278   H     0.30145   0.49657   0.11771   0.00000  Uiso   1.00
O279   O     0.03279   0.52830   0.40111   0.00000  Uiso   1.00
H280   H     0.03188   0.50344   0.38229   0.00000  Uiso   1.00
O281   O     0.01099   0.54811   0.49580   0.00000  Uiso   1.00
H282   H     0.32383   0.55323   0.47794   0.00000  Uiso   1.00
O283   O     0.32234   0.45189   0.00421   0.00000  Uiso   1.00
H284   H     0.00951   0.44679   0.02206   0.00000  Uiso   1.00
N285   N     0.08667   0.49779   0.10301   0.00000  Uiso   1.00
O286   O     0.09723   0.46154   0.11546   0.00000  Uiso   1.00
O287   O     0.05134   0.52070   0.13368   0.00000  Uiso   1.00
N288   N     0.24666   0.50219   0.39699   0.00000  Uiso   1.00
O289   O     0.28195   0.47925   0.36632   0.00000  Uiso   1.00
O290   O     0.23613   0.53845   0.38454   0.00000  Uiso   1.00
N291   N     0.30406   0.42958   0.21487   0.00000  Uiso   1.00
O292   O     0.31462   0.39269   0.22579   0.00000  Uiso   1.00
O293   O     0.29258   0.43300   0.17893   0.00000  Uiso   1.00
N294   N     0.02928   0.57043   0.28512   0.00000  Uiso   1.00
O295   O     0.01876   0.60731   0.27417   0.00000  Uiso   1.00
O296   O     0.04073   0.56702   0.32107   0.00000  Uiso   1.00
O297   O     0.46179   0.56108   0.25001   0.00000  Uiso   1.00
O298   O     0.53821   0.43892   0.25000   0.00000  Uiso   1.00
O299   O     0.53823   0.56107   0.25000   0.00000  Uiso   1.00
O300   O     0.46177   0.43893   0.25000   0.00000  Uiso   1.00
C301   C     0.49963   0.57996   0.25031   0.00000  Uiso   1.00
C302   C     0.50037   0.42004   0.24969   0.00000  Uiso   1.00
O303   O     0.43994   0.50001   0.31613   0.00000  Uiso   1.00
O304   O     0.56006   0.49999   0.18388   0.00000  Uiso   1.00
O305   O     0.51639   0.50000   0.31612   0.00000  Uiso   1.00
O306   O     0.48361   0.50000   0.18388   0.00000  Uiso   1.00
C307   C     0.46856   0.49994   0.33851   0.00000  Uiso   1.00
C308   C     0.53144   0.50006   0.16149   0.00000  Uiso   1.00
Zn309  Zn    0.44896   0.50001   0.25000   0.00000  Uiso   1.00
Zn310  Zn    0.55104   0.49999   0.25000   0.00000  Uiso   1.00
C311   C     0.44764   0.50220   0.39044   0.00000  Uiso   1.00
C312   C     0.55236   0.49780   0.10956   0.00000  Uiso   1.00
C313   C     0.38922   0.52997   0.46666   0.00000  Uiso   1.00
C314   C     0.61078   0.47003   0.03334   0.00000  Uiso   1.00
C315   C     0.40092   0.52029   0.41873   0.00000  Uiso   1.00
C316   C     0.59908   0.47972   0.08127   0.00000  Uiso   1.00
C317   C     0.47946   0.49093   0.41122   0.00000  Uiso   1.00
C318   C     0.52054   0.50907   0.08878   0.00000  Uiso   1.00
C319   C     0.47094   0.50388   0.45692   0.00000  Uiso   1.00
C320   C     0.52906   0.49611   0.04308   0.00000  Uiso   1.00
C321   C     0.42373   0.52038   0.48585   0.00000  Uiso   1.00
C322   C     0.57627   0.47962   0.01415   0.00000  Uiso   1.00
C323   C     0.50746   0.49870   0.47517   0.00000  Uiso   1.00
C324   C     0.49254   0.50129   0.02484   0.00000  Uiso   1.00
C325   C     0.44171   0.50922   0.05429   0.00000  Uiso   1.00
C326   C     0.55829   0.49076   0.44571   0.00000  Uiso   1.00
C327   C     0.40997   0.52329   0.03439   0.00000  Uiso   1.00
C328   C     0.59003   0.47670   0.46561   0.00000  Uiso   1.00
H329   H     0.37244   0.53194   0.05751   0.00000  Uiso   1.00
H330   H     0.62756   0.46806   0.44249   0.00000  Uiso   1.00
H331   H     0.48854   0.52818   0.10930   0.00000  Uiso   1.00
H332   H     0.51146   0.47182   0.39070   0.00000  Uiso   1.00
C333   C     0.52903   0.64503   0.26863   0.00000  Uiso   1.00
C334   C     0.47098   0.35497   0.23136   0.00000  Uiso   1.00
H335   H     0.55126   0.62839   0.28347   0.00000  Uiso   1.00
H336   H     0.44874   0.37161   0.21652   0.00000  Uiso   1.00
C337   C     0.52971   0.35446   0.26802   0.00000  Uiso   1.00
C338   C     0.47029   0.64554   0.23197   0.00000  Uiso   1.00
H339   H     0.55208   0.37072   0.28271   0.00000  Uiso   1.00
H340   H     0.44792   0.62928   0.21728   0.00000  Uiso   1.00
C341   C     0.50069   0.37586   0.24940   0.00000  Uiso   1.00
C342   C     0.49931   0.62414   0.25060   0.00000  Uiso   1.00
C343   C     0.65088   0.46585   0.23364   0.00000  Uiso   1.00
C344   C     0.34912   0.53415   0.26636   0.00000  Uiso   1.00
C345   C     0.36506   0.46609   0.23406   0.00000  Uiso   1.00
C346   C     0.63494   0.53391   0.26594   0.00000  Uiso   1.00
H347   H     0.38960   0.43923   0.22066   0.00000  Uiso   1.00
H348   H     0.61040   0.56077   0.27934   0.00000  Uiso   1.00
N349   N     0.38093   0.50001   0.25001   0.00000  Uiso   1.00
N350   N     0.61907   0.49999   0.24999   0.00000  Uiso   1.00
O351   O     0.63389   0.47170   0.09889   0.00000  Uiso   1.00
H352   H     0.63478   0.49657   0.11771   0.00000  Uiso   1.00
O353   O     0.36612   0.52830   0.40111   0.00000  Uiso   1.00
H354   H     0.36522   0.50344   0.38229   0.00000  Uiso   1.00
O355   O     0.34433   0.54811   0.49580   0.00000  Uiso   1.00
H356   H     0.65717   0.55323   0.47794   0.00000  Uiso   1.00
O357   O     0.65567   0.45189   0.00421   0.00000  Uiso   1.00
H358   H     0.34284   0.44679   0.02206   0.00000  Uiso   1.00
N359   N     0.42000   0.49779   0.10301   0.00000  Uiso   1.00
O360   O     0.43056   0.46154   0.11546   0.00000  Uiso   1.00
O361   O     0.38468   0.52070   0.13368   0.00000  Uiso   1.00
N362   N     0.57999   0.50219   0.39699   0.00000  Uiso   1.00
O363   O     0.61529   0.47925   0.36632   0.00000  Uiso   1.00
O364   O     0.56947   0.53845   0.38454   0.00000  Uiso   1.00
N365   N     0.63739   0.42958   0.21487   0.00000  Uiso   1.00
O366   O     0.64795   0.39269   0.22579   0.00000  Uiso   1.00
O367   O     0.62592   0.43300   0.17893   0.00000  Uiso   1.00
N368   N     0.36262   0.57043   0.28512   0.00000  Uiso   1.00
O369   O     0.35209   0.60731   0.27417   0.00000  Uiso   1.00
O370   O     0.37406   0.56702   0.32107   0.00000  Uiso   1.00
O371   O     0.79512   0.56108   0.25001   0.00000  Uiso   1.00
O372   O     0.87154   0.43892   0.25000   0.00000  Uiso   1.00
O373   O     0.87157   0.56107   0.25000   0.00000  Uiso   1.00
O374   O     0.79510   0.43893   0.25000   0.00000  Uiso   1.00
C375   C     0.83296   0.57996   0.25031   0.00000  Uiso   1.00
C376   C     0.83370   0.42004   0.24969   0.00000  Uiso   1.00
O377   O     0.77328   0.50001   0.31613   0.00000  Uiso   1.00
O378   O     0.89339   0.49999   0.18388   0.00000  Uiso   1.00
O379   O     0.84972   0.50000   0.31612   0.00000  Uiso   1.00
O380   O     0.81695   0.50000   0.18388   0.00000  Uiso   1.00
C381   C     0.80189   0.49994   0.33851   0.00000  Uiso   1.00
C382   C     0.86477   0.50006   0.16149   0.00000  Uiso   1.00
Zn383  Zn    0.78229   0.50001   0.25000   0.00000  Uiso   1.00
Zn384  Zn    0.88438   0.49999   0.25000   0.00000  Uiso   1.00
C385   C     0.78098   0.50220   0.39044   0.00000  Uiso   1.00
C386   C     0.88569   0.49780   0.10956   0.00000  Uiso   1.00
C387   C     0.72256   0.52997   0.46666   0.00000  Uiso   1.00
C388   C     0.94411   0.47003   0.03334   0.00000  Uiso   1.00
C389   C     0.73426   0.52029   0.41873   0.00000  Uiso   1.00
C390   C     0.93241   0.47972   0.08127   0.00000  Uiso   1.00
C391   C     0.81279   0.49093   0.41122   0.00000  Uiso   1.00
C392   C     0.85388   0.50907   0.08878   0.00000  Uiso   1.00
C393   C     0.80427   0.50388   0.45692   0.00000  Uiso   1.00
C394   C     0.86240   0.49611   0.04308   0.00000  Uiso   1.00
C395   C     0.75706   0.52038   0.48585   0.00000  Uiso   1.00
C396   C     0.90960   0.47962   0.01415   0.00000  Uiso   1.00
C397   C     0.84079   0.49870   0.47517   0.00000  Uiso   1.00
C398   C     0.82587   0.50129   0.02484   0.00000  Uiso   1.00
C399   C     0.77504   0.50922   0.05429   0.00000  Uiso   1.00
C400   C     0.89163   0.49076   0.44571   0.00000  Uiso   1.00
C401   C     0.74331   0.52329   0.03439   0.00000  Uiso   1.00
C402   C     0.92336   0.47670   0.46561   0.00000  Uiso   1.00
H403   H     0.70578   0.53194   0.05751   0.00000  Uiso   1.00
H404   H     0.96089   0.46806   0.44249   0.00000  Uiso   1.00
H405   H     0.82187   0.52818   0.10930   0.00000  Uiso   1.00
H406   H     0.84480   0.47182   0.39070   0.00000  Uiso   1.00
C407   C     0.86236   0.64503   0.26863   0.00000  Uiso   1.00
C408   C     0.80431   0.35497   0.23136   0.00000  Uiso   1.00
H409   H     0.88459   0.62839   0.28347   0.00000  Uiso   1.00
H410   H     0.78208   0.37161   0.21652   0.00000  Uiso   1.00
C411   C     0.86305   0.35446   0.26802   0.00000  Uiso   1.00
C412   C     0.80363   0.64554   0.23197   0.00000  Uiso   1.00
H413   H     0.88542   0.37072   0.28271   0.00000  Uiso   1.00
H414   H     0.78126   0.62928   0.21728   0.00000  Uiso   1.00
C415   C     0.83402   0.37586   0.24940   0.00000  Uiso   1.00
C416   C     0.83264   0.62414   0.25060   0.00000  Uiso   1.00
C417   C     0.98422   0.46585   0.23364   0.00000  Uiso   1.00
C418   C     0.68245   0.53415   0.26636   0.00000  Uiso   1.00
C419   C     0.69839   0.46609   0.23406   0.00000  Uiso   1.00
C420   C     0.96827   0.53391   0.26594   0.00000  Uiso   1.00
H421   H     0.72294   0.43923   0.22066   0.00000  Uiso   1.00
H422   H     0.94373   0.56077   0.27934   0.00000  Uiso   1.00
N423   N     0.71426   0.50001   0.25001   0.00000  Uiso   1.00
N424   N     0.95241   0.49999   0.24999   0.00000  Uiso   1.00
O425   O     0.96722   0.47170   0.09889   0.00000  Uiso   1.00
H426   H     0.96811   0.49657   0.11771   0.00000  Uiso   1.00
O427   O     0.69945   0.52830   0.40111   0.00000  Uiso   1.00
H428   H     0.69855   0.50344   0.38229   0.00000  Uiso   1.00
O429   O     0.67766   0.54811   0.49580   0.00000  Uiso   1.00
H430   H     0.99050   0.55323   0.47794   0.00000  Uiso   1.00
O431   O     0.98901   0.45189   0.00421   0.00000  Uiso   1.00
H432   H     0.67618   0.44679   0.02206   0.00000  Uiso   1.00
N433   N     0.75334   0.49779   0.10301   0.00000  Uiso   1.00
O434   O     0.76390   0.46154   0.11546   0.00000  Uiso   1.00
O435   O     0.71801   0.52070   0.13368   0.00000  Uiso   1.00
N436   N     0.91333   0.50219   0.39699   0.00000  Uiso   1.00
O437   O     0.94862   0.47925   0.36632   0.00000  Uiso   1.00
O438   O     0.90280   0.53845   0.38454   0.00000  Uiso   1.00
N439   N     0.97072   0.42958   0.21487   0.00000  Uiso   1.00
O440   O     0.98128   0.39269   0.22579   0.00000  Uiso   1.00
O441   O     0.95925   0.43300   0.17893   0.00000  Uiso   1.00
N442   N     0.69595   0.57043   0.28512   0.00000  Uiso   1.00
O443   O     0.68543   0.60731   0.27417   0.00000  Uiso   1.00
O444   O     0.70740   0.56702   0.32107   0.00000  Uiso   1.00
O445   O     0.12846   0.89442   0.25001   0.00000  Uiso   1.00
O446   O     0.20488   0.77225   0.25000   0.00000  Uiso   1.00
O447   O     0.20490   0.89441   0.25000   0.00000  Uiso   1.00
O448   O     0.12843   0.77226   0.25000   0.00000  Uiso   1.00
C449   C     0.16630   0.91329   0.25031   0.00000  Uiso   1.00
C450   C     0.16704   0.75338   0.24969   0.00000  Uiso   1.00
O451   O     0.10661   0.83334   0.31613   0.00000  Uiso   1.00
O452   O     0.22672   0.83333   0.18388   0.00000  Uiso   1.00
O453   O     0.18305   0.83333   0.31612   0.00000  Uiso   1.00
O454   O     0.15028   0.83334   0.18388   0.00000  Uiso   1.00
C455   C     0.13523   0.83328   0.33851   0.00000  Uiso   1.00
C456   C     0.19811   0.83339   0.16149   0.00000  Uiso   1.00
Zn457  Zn    0.11562   0.83334   0.25000   0.00000  Uiso   1.00
Zn458  Zn    0.21771   0.83333   0.25000   0.00000  Uiso   1.00
C459   C     0.11431   0.83553   0.39044   0.00000  Uiso   1.00
C460   C     0.21903   0.83114   0.10956   0.00000  Uiso   1.00
C461   C     0.05589   0.86330   0.46666   0.00000  Uiso   1.00
C462   C     0.27744   0.80336   0.03334   0.00000  Uiso   1.00
C463   C     0.06759   0.85362   0.41873   0.00000  Uiso   1.00
C464   C     0.26575   0.81305   0.08127   0.00000  Uiso   1.00
C465   C     0.14612   0.82426   0.41122   0.00000  Uiso   1.00
C466   C     0.18721   0.84240   0.08878   0.00000  Uiso   1.00
C467   C     0.13760   0.83721   0.45692   0.00000  Uiso   1.00
C468   C     0.19573   0.82945   0.04308   0.00000  Uiso   1.00
C469   C     0.09040   0.85371   0.48585   0.00000  Uiso   1.00
C470   C     0.24294   0.81295   0.01415   0.00000  Uiso   1.00
C471   C     0.17413   0.83203   0.47517   0.00000  Uiso   1.00
C472   C     0.15921   0.83462   0.02484   0.00000  Uiso   1.00
C473   C     0.10837   0.84256   0.05429   0.00000  Uiso   1.00
C474   C     0.22496   0.82410   0.44571   0.00000  Uiso   1.00
C475   C     0.07664   0.85663   0.03439   0.00000  Uiso   1.00
C476   C     0.25669   0.81003   0.46561   0.00000  Uiso   1.00
H477   H     0.03911   0.86527   0.05751   0.00000  Uiso   1.00
H478   H     0.29422   0.80139   0.44249   0.00000  Uiso   1.00
H479   H     0.15520   0.86151   0.10930   0.00000  Uiso   1.00
H480   H     0.17813   0.80515   0.39070   0.00000  Uiso   1.00
C481   C     0.19569   0.97836   0.26863   0.00000  Uiso   1.00
C482   C     0.13764   0.68830   0.23136   0.00000  Uiso   1.00
H483   H     0.21793   0.96172   0.28347   0.00000  Uiso   1.00
H484   H     0.11541   0.70495   0.21652   0.00000  Uiso   1.00
C485   C     0.19638   0.68780   0.26802   0.00000  Uiso   1.00
C486   C     0.13696   0.97887   0.23197   0.00000  Uiso   1.00
H487   H     0.21875   0.70406   0.28271   0.00000  Uiso   1.00
H488   H     0.11459   0.96261   0.21728   0.00000  Uiso   1.00
C489   C     0.16736   0.70920   0.24940   0.00000  Uiso   1.00
C490   C     0.16598   0.95747   0.25060   0.00000  Uiso   1.00
C491   C     0.31755   0.79919   0.23364   0.00000  Uiso   1.00
C492   C     0.01578   0.86748   0.26636   0.00000  Uiso   1.00
C493   C     0.03173   0.79942   0.23406   0.00000  Uiso   1.00
C494   C     0.30161   0.86724   0.26594   0.00000  Uiso   1.00
H495   H     0.05627   0.77256   0.22066   0.00000  Uiso   1.00
H496   H     0.27707   0.89410   0.27934   0.00000  Uiso   1.00
N497   N     0.04759   0.83334   0.25001   0.00000  Uiso   1.00
N498   N     0.28574   0.83332   0.24999   0.00000  Uiso   1.00
O499   O     0.30055   0.80504   0.09889   0.00000  Uiso   1.00
H500   H     0.30145   0.82990   0.11771   0.00000  Uiso   1.00
O501   O     0.03279   0.86164   0.40111   0.00000  Uiso   1.00
H502   H     0.03188   0.83677   0.38229   0.00000  Uiso   1.00
O503   O     0.01099   0.88144   0.49580   0.00000  Uiso   1.00
H504   H     0.32383   0.88656   0.47794   0.00000  Uiso   1.00
O505   O     0.32234   0.78522   0.00421   0.00000  Uiso   1.00
H506   H     0.00951   0.78012   0.02206   0.00000  Uiso   1.00
N507   N     0.08667   0.83112   0.10301   0.00000  Uiso   1.00
O508   O     0.09723   0.79487   0.11546   0.00000  Uiso   1.00
O509   O     0.05134   0.85403   0.13368   0.00000  Uiso   1.00
N510   N     0.24666   0.83552   0.39699   0.00000  Uiso   1.00
O511   O     0.28195   0.81258   0.36632   0.00000  Uiso   1.00
O512   O     0.23613   0.87179   0.38454   0.00000  Uiso   1.00
N513   N     0.30406   0.76291   0.21487   0.00000  Uiso   1.00
O514   O     0.31462   0.72602   0.22579   0.00000  Uiso   1.00
O515   O     0.29258   0.76633   0.17893   0.00000  Uiso   1.00
N516   N     0.02928   0.90376   0.28512   0.00000  Uiso   1.00
O517   O     0.01876   0.94064   0.27417   0.00000  Uiso   1.00
O518   O     0.04073   0.90035   0.32107   0.00000  Uiso   1.00
O519   O     0.46179   0.89442   0.25001   0.00000  Uiso   1.00
O520   O     0.53821   0.77225   0.25000   0.00000  Uiso   1.00
O521   O     0.53823   0.89441   0.25000   0.00000  Uiso   1.00
O522   O     0.46177   0.77226   0.25000   0.00000  Uiso   1.00
C523   C     0.49963   0.91329   0.25031   0.00000  Uiso   1.00
C524   C     0.50037   0.75338   0.24969   0.00000  Uiso   1.00
O525   O     0.43994   0.83334   0.31613   0.00000  Uiso   1.00
O526   O     0.56006   0.83333   0.18388   0.00000  Uiso   1.00
O527   O     0.51639   0.83333   0.31612   0.00000  Uiso   1.00
O528   O     0.48361   0.83334   0.18388   0.00000  Uiso   1.00
C529   C     0.46856   0.83328   0.33851   0.00000  Uiso   1.00
C530   C     0.53144   0.83339   0.16149   0.00000  Uiso   1.00
Zn531  Zn    0.44896   0.83334   0.25000   0.00000  Uiso   1.00
Zn532  Zn    0.55104   0.83333   0.25000   0.00000  Uiso   1.00
C533   C     0.44764   0.83553   0.39044   0.00000  Uiso   1.00
C534   C     0.55236   0.83114   0.10956   0.00000  Uiso   1.00
C535   C     0.38922   0.86330   0.46666   0.00000  Uiso   1.00
C536   C     0.61078   0.80336   0.03334   0.00000  Uiso   1.00
C537   C     0.40092   0.85362   0.41873   0.00000  Uiso   1.00
C538   C     0.59908   0.81305   0.08127   0.00000  Uiso   1.00
C539   C     0.47946   0.82426   0.41122   0.00000  Uiso   1.00
C540   C     0.52054   0.84240   0.08878   0.00000  Uiso   1.00
C541   C     0.47094   0.83721   0.45692   0.00000  Uiso   1.00
C542   C     0.52906   0.82945   0.04308   0.00000  Uiso   1.00
C543   C     0.42373   0.85371   0.48585   0.00000  Uiso   1.00
C544   C     0.57627   0.81295   0.01415   0.00000  Uiso   1.00
C545   C     0.50746   0.83203   0.47517   0.00000  Uiso   1.00
C546   C     0.49254   0.83462   0.02484   0.00000  Uiso   1.00
C547   C     0.44171   0.84256   0.05429   0.00000  Uiso   1.00
C548   C     0.55829   0.82410   0.44571   0.00000  Uiso   1.00
C549   C     0.40997   0.85663   0.03439   0.00000  Uiso   1.00
C550   C     0.59003   0.81003   0.46561   0.00000  Uiso   1.00
H551   H     0.37244   0.86527   0.05751   0.00000  Uiso   1.00
H552   H     0.62756   0.80139   0.44249   0.00000  Uiso   1.00
H553   H     0.48854   0.86151   0.10930   0.00000  Uiso   1.00
H554   H     0.51146   0.80515   0.39070   0.00000  Uiso   1.00
C555   C     0.52903   0.97836   0.26863   0.00000  Uiso   1.00
C556   C     0.47098   0.68830   0.23136   0.00000  Uiso   1.00
H557   H     0.55126   0.96172   0.28347   0.00000  Uiso   1.00
H558   H     0.44874   0.70495   0.21652   0.00000  Uiso   1.00
C559   C     0.52971   0.68780   0.26802   0.00000  Uiso   1.00
C560   C     0.47029   0.97887   0.23197   0.00000  Uiso   1.00
H561   H     0.55208   0.70406   0.28271   0.00000  Uiso   1.00
H562   H     0.44792   0.96261   0.21728   0.00000  Uiso   1.00
C563   C     0.50069   0.70920   0.24940   0.00000  Uiso   1.00
C564   C     0.49931   0.95747   0.25060   0.00000  Uiso   1.00
C565   C     0.65088   0.79919   0.23364   0.00000  Uiso   1.00
C566   C     0.34912   0.86748   0.26636   0.00000  Uiso   1.00
C567   C     0.36506   0.79942   0.23406   0.00000  Uiso   1.00
C568   C     0.63494   0.86724   0.26594   0.00000  Uiso   1.00
H569   H     0.38960   0.77256   0.22066   0.00000  Uiso   1.00
H570   H     0.61040   0.89410   0.27934   0.00000  Uiso   1.00
N571   N     0.38093   0.83334   0.25001   0.00000  Uiso   1.00
N572   N     0.61907   0.83332   0.24999   0.00000  Uiso   1.00
O573   O     0.63389   0.80504   0.09889   0.00000  Uiso   1.00
H574   H     0.63478   0.82990   0.11771   0.00000  Uiso   1.00
O575   O     0.36612   0.86164   0.40111   0.00000  Uiso   1.00
H576   H     0.36522   0.83677   0.38229   0.00000  Uiso   1.00
O577   O     0.34433   0.88144   0.49580   0.00000  Uiso   1.00
H578   H     0.65717   0.88656   0.47794   0.00000  Uiso   1.00
O579   O     0.65567   0.78522   0.00421   0.00000  Uiso   1.00
H580   H     0.34284   0.78012   0.02206   0.00000  Uiso   1.00
N581   N     0.42000   0.83112   0.10301   0.00000  Uiso   1.00
O582   O     0.43056   0.79487   0.11546   0.00000  Uiso   1.00
O583   O     0.38468   0.85403   0.13368   0.00000  Uiso   1.00
N584   N     0.57999   0.83552   0.39699   0.00000  Uiso   1.00
O585   O     0.61529   0.81258   0.36632   0.00000  Uiso   1.00
O586   O     0.56947   0.87179   0.38454   0.00000  Uiso   1.00
N587   N     0.63739   0.76291   0.21487   0.00000  Uiso   1.00
O588   O     0.64795   0.72602   0.22579   0.00000  Uiso   1.00
O589   O     0.62592   0.76633   0.17893   0.00000  Uiso   1.00
N590   N     0.36262   0.90376   0.28512   0.00000  Uiso   1.00
O591   O     0.35209   0.94064   0.27417   0.00000  Uiso   1.00
O592   O     0.37406   0.90035   0.32107   0.00000  Uiso   1.00
O593   O     0.79512   0.89442   0.25001   0.00000  Uiso   1.00
O594   O     0.87154   0.77225   0.25000   0.00000  Uiso   1.00
O595   O     0.87157   0.89441   0.25000   0.00000  Uiso   1.00
O596   O     0.79510   0.77226   0.25000   0.00000  Uiso   1.00
C597   C     0.83296   0.91329   0.25031   0.00000  Uiso   1.00
C598   C     0.83370   0.75338   0.24969   0.00000  Uiso   1.00
O599   O     0.77328   0.83334   0.31613   0.00000  Uiso   1.00
O600   O     0.89339   0.83333   0.18388   0.00000  Uiso   1.00
O601   O     0.84972   0.83333   0.31612   0.00000  Uiso   1.00
O602   O     0.81695   0.83334   0.18388   0.00000  Uiso   1.00
C603   C     0.80189   0.83328   0.33851   0.00000  Uiso   1.00
C604   C     0.86477   0.83339   0.16149   0.00000  Uiso   1.00
Zn605  Zn    0.78229   0.83334   0.25000   0.00000  Uiso   1.00
Zn606  Zn    0.88438   0.83333   0.25000   0.00000  Uiso   1.00
C607   C     0.78098   0.83553   0.39044   0.00000  Uiso   1.00
C608   C     0.88569   0.83114   0.10956   0.00000  Uiso   1.00
C609   C     0.72256   0.86330   0.46666   0.00000  Uiso   1.00
C610   C     0.94411   0.80336   0.03334   0.00000  Uiso   1.00
C611   C     0.73426   0.85362   0.41873   0.00000  Uiso   1.00
C612   C     0.93241   0.81305   0.08127   0.00000  Uiso   1.00
C613   C     0.81279   0.82426   0.41122   0.00000  Uiso   1.00
C614   C     0.85388   0.84240   0.08878   0.00000  Uiso   1.00
C615   C     0.80427   0.83721   0.45692   0.00000  Uiso   1.00
C616   C     0.86240   0.82945   0.04308   0.00000  Uiso   1.00
C617   C     0.75706   0.85371   0.48585   0.00000  Uiso   1.00
C618   C     0.90960   0.81295   0.01415   0.00000  Uiso   1.00
C619   C     0.84079   0.83203   0.47517   0.00000  Uiso   1.00
C620   C     0.82587   0.83462   0.02484   0.00000  Uiso   1.00
C621   C     0.77504   0.84256   0.05429   0.00000  Uiso   1.00
C622   C     0.89163   0.82410   0.44571   0.00000  Uiso   1.00
C623   C     0.74331   0.85663   0.03439   0.00000  Uiso   1.00
C624   C     0.92336   0.81003   0.46561   0.00000  Uiso   1.00
H625   H     0.70578   0.86527   0.05751   0.00000  Uiso   1.00
H626   H     0.96089   0.80139   0.44249   0.00000  Uiso   1.00
H627   H     0.82187   0.86151   0.10930   0.00000  Uiso   1.00
H628   H     0.84480   0.80515   0.39070   0.00000  Uiso   1.00
C629   C     0.86236   0.97836   0.26863   0.00000  Uiso   1.00
C630   C     0.80431   0.68830   0.23136   0.00000  Uiso   1.00
H631   H     0.88459   0.96172   0.28347   0.00000  Uiso   1.00
H632   H     0.78208   0.70495   0.21652   0.00000  Uiso   1.00
C633   C     0.86305   0.68780   0.26802   0.00000  Uiso   1.00
C634   C     0.80363   0.97887   0.23197   0.00000  Uiso   1.00
H635   H     0.88542   0.70406   0.28271   0.00000  Uiso   1.00
H636   H     0.78126   0.96261   0.21728   0.00000  Uiso   1.00
C637   C     0.83402   0.70920   0.24940   0.00000  Uiso   1.00
C638   C     0.83264   0.95747   0.25060   0.00000  Uiso   1.00
C639   C     0.98422   0.79919   0.23364   0.00000  Uiso   1.00
C640   C     0.68245   0.86748   0.26636   0.00000  Uiso   1.00
C641   C     0.69839   0.79942   0.23406   0.00000  Uiso   1.00
C642   C     0.96827   0.86724   0.26594   0.00000  Uiso   1.00
H643   H     0.72294   0.77256   0.22066   0.00000  Uiso   1.00
H644   H     0.94373   0.89410   0.27934   0.00000  Uiso   1.00
N645   N     0.71426   0.83334   0.25001   0.00000  Uiso   1.00
N646   N     0.95241   0.83332   0.24999   0.00000  Uiso   1.00
O647   O     0.96722   0.80504   0.09889   0.00000  Uiso   1.00
H648   H     0.96811   0.82990   0.11771   0.00000  Uiso   1.00
O649   O     0.69945   0.86164   0.40111   0.00000  Uiso   1.00
H650   H     0.69855   0.83677   0.38229   0.00000  Uiso   1.00
O651   O     0.67766   0.88144   0.49580   0.00000  Uiso   1.00
H652   H     0.99050   0.88656   0.47794   0.00000  Uiso   1.00
O653   O     0.98901   0.78522   0.00421   0.00000  Uiso   1.00
H654   H     0.67618   0.78012   0.02206   0.00000  Uiso   1.00
N655   N     0.75334   0.83112   0.10301   0.00000  Uiso   1.00
O656   O     0.76390   0.79487   0.11546   0.00000  Uiso   1.00
O657   O     0.71801   0.85403   0.13368   0.00000  Uiso   1.00
N658   N     0.91333   0.83552   0.39699   0.00000  Uiso   1.00
O659   O     0.94862   0.81258   0.36632   0.00000  Uiso   1.00
O660   O     0.90280   0.87179   0.38454   0.00000  Uiso   1.00
N661   N     0.97072   0.76291   0.21487   0.00000  Uiso   1.00
O662   O     0.98128   0.72602   0.22579   0.00000  Uiso   1.00
O663   O     0.95925   0.76633   0.17893   0.00000  Uiso   1.00
N664   N     0.69595   0.90376   0.28512   0.00000  Uiso   1.00
O665   O     0.68543   0.94064   0.27417   0.00000  Uiso   1.00
O666   O     0.70740   0.90035   0.32107   0.00000  Uiso   1.00
O667   O     0.12846   0.22775   0.75001   0.00000  Uiso   1.00
O668   O     0.20488   0.10558   0.75000   0.00000  Uiso   1.00
O669   O     0.20490   0.22774   0.75000   0.00000  Uiso   1.00
O670   O     0.12843   0.10559   0.75000   0.00000  Uiso   1.00
C671   C     0.16630   0.24662   0.75031   0.00000  Uiso   1.00
C672   C     0.16704   0.08671   0.74969   0.00000  Uiso   1.00
O673   O     0.10661   0.16667   0.81613   0.00000  Uiso   1.00
O674   O     0.22672   0.16666   0.68388   0.00000  Uiso   1.00
O675   O     0.18305   0.16666   0.81612   0.00000  Uiso   1.00
O676   O     0.15028   0.16667   0.68388   0.00000  Uiso   1.00
C677   C     0.13523   0.16661   0.83851   0.00000  Uiso   1.00
C678   C     0.19811   0.16672   0.66149   0.00000  Uiso   1.00
Zn679  Zn    0.11562   0.16667   0.75000   0.00000  Uiso   1.00
Zn680  Zn    0.21771   0.16666   0.75000   0.00000  Uiso   1.00
C681   C     0.11431   0.16886   0.89044   0.00000  Uiso   1.00
C682   C     0.21903   0.16447   0.60956   0.00000  Uiso   1.00
C683   C     0.05589   0.19663   0.96666   0.00000  Uiso   1.00
C684   C     0.27744   0.13670   0.53334   0.00000  Uiso   1.00
C685   C     0.06759   0.18695   0.91873   0.00000  Uiso   1.00
C686   C     0.26575   0.14638   0.58127   0.00000  Uiso   1.00
C687   C     0.14612   0.15760   0.91122   0.00000  Uiso   1.00
C688   C     0.18721   0.17573   0.58878   0.00000  Uiso   1.00
C689   C     0.13760   0.17054   0.95692   0.00000  Uiso   1.00
C690   C     0.19573   0.16278   0.54308   0.00000  Uiso   1.00
C691   C     0.09040   0.18704   0.98585   0.00000  Uiso   1.00
C692   C     0.24294   0.14628   0.51415   0.00000  Uiso   1.00
C693   C     0.17413   0.16537   0.97517   0.00000  Uiso   1.00
C694   C     0.15921   0.16796   0.52484   0.00000  Uiso   1.00
C695   C     0.10837   0.17589   0.55429   0.00000  Uiso   1.00
C696   C     0.22496   0.15743   0.94571   0.00000  Uiso   1.00
C697   C     0.07664   0.18996   0.53439   0.00000  Uiso   1.00
C698   C     0.25669   0.14336   0.96561   0.00000  Uiso   1.00
H699   H     0.03911   0.19860   0.55751   0.00000  Uiso   1.00
H700   H     0.29422   0.13472   0.94249   0.00000  Uiso   1.00
H701   H     0.15520   0.19484   0.60930   0.00000  Uiso   1.00
H702   H     0.17813   0.13849   0.89070   0.00000  Uiso   1.00
C703   C     0.19569   0.31170   0.76863   0.00000  Uiso   1.00
C704   C     0.13764   0.02164   0.73136   0.00000  Uiso   1.00
H705   H     0.21793   0.29505   0.78347   0.00000  Uiso   1.00
H706   H     0.11541   0.03828   0.71652   0.00000  Uiso   1.00
C707   C     0.19638   0.02113   0.76802   0.00000  Uiso   1.00
C708   C     0.13696   0.31220   0.73197   0.00000  Uiso   1.00
H709   H     0.21875   0.03739   0.78271   0.00000  Uiso   1.00
H710   H     0.11459   0.29594   0.71728   0.00000  Uiso   1.00
C711   C     0.16736   0.04253   0.74940   0.00000  Uiso   1.00
C712   C     0.16598   0.29080   0.75060   0.00000  Uiso   1.00
C713   C     0.31755   0.13252   0.73364   0.00000  Uiso   1.00
C714   C     0.01578   0.20081   0.76636   0.00000  Uiso   1.00
C715   C     0.03173   0.13276   0.73406   0.00000  Uiso   1.00
C716   C     0.30161   0.20058   0.76594   0.00000  Uiso   1.00
H717   H     0.05627   0.10590   0.72066   0.00000  Uiso   1.00
H718   H     0.27707   0.22744   0.77934   0.00000  Uiso   1.00
N719   N     0.04759   0.16668   0.75001   0.00000  Uiso   1.00
N720   N     0.28574   0.16666   0.74999   0.00000  Uiso   1.00
O721   O     0.30055   0.13837   0.59889   0.00000  Uiso   1.00
H722   H     0.30145   0.16323   0.61771   0.00000  Uiso   1.00
O723   O     0.03279   0.19497   0.90111   0.00000  Uiso   1.00
H724   H     0.03188   0.17011   0.88229   0.00000  Uiso   1.00
O725   O     0.01099   0.21478   0.99580   0.00000  Uiso   1.00
H726   H     0.32383   0.21989   0.97794   0.00000  Uiso   1.00
O727   O     0.32234   0.11855   0.50421   0.00000  Uiso   1.00
H728   H     0.00951   0.11345   0.52206   0.00000  Uiso   1.00
N729   N     0.08667   0.16446   0.60301   0.00000  Uiso   1.00
O730   O     0.09723   0.12821   0.61546   0.00000  Uiso   1.00
O731   O     0.05134   0.18737   0.63368   0.00000  Uiso   1.00
N732   N     0.24666   0.16885   0.89699   0.00000  Uiso   1.00
O733   O     0.28195   0.14592   0.86632   0.00000  Uiso   1.00
O734   O     0.23613   0.20512   0.88454   0.00000  Uiso   1.00
N735   N     0.30406   0.09624   0.71487   0.00000  Uiso   1.00
O736   O     0.31462   0.05935   0.72579   0.00000  Uiso   1.00
O737   O     0.29258   0.09966   0.67893   0.00000  Uiso   1.00
N738   N     0.02928   0.23709   0.78512   0.00000  Uiso   1.00
O739   O     0.01876   0.27398   0.77417   0.00000  Uiso   1.00
O740   O     0.04073   0.23368   0.82107   0.00000  Uiso   1.00
O741   O     0.46179   0.22775   0.75001   0.00000  Uiso   1.00
O742   O     0.53821   0.10558   0.75000   0.00000  Uiso   1.00
O743   O     0.53823   0.22774   0.75000   0.00000  Uiso   1.00
O744   O     0.46177   0.10559   0.75000   0.00000  Uiso   1.00
C745   C     0.49963   0.24662   0.75031   0.00000  Uiso   1.00
C746   C     0.50037   0.08671   0.74969   0.00000  Uiso   1.00
O747   O     0.43994   0.16667   0.81613   0.00000  Uiso   1.00
O748   O     0.56006   0.16666   0.68388   0.00000  Uiso   1.00
O749   O     0.51639   0.16666   0.81612   0.00000  Uiso   1.00
O750   O     0.48361   0.16667   0.68388   0.00000  Uiso   1.00
C751   C     0.46856   0.16661   0.83851   0.00000  Uiso   1.00
C752   C     0.53144   0.16672   0.66149   0.00000  Uiso   1.00
Zn753  Zn    0.44896   0.16667   0.75000   0.00000  Uiso   1.00
Zn754  Zn    0.55104   0.16666   0.75000   0.00000  Uiso   1.00
C755   C     0.44764   0.16886   0.89044   0.00000  Uiso   1.00
C756   C     0.55236   0.16447   0.60956   0.00000  Uiso   1.00
C757   C     0.38922   0.19663   0.96666   0.00000  Uiso   1.00
C758   C     0.61078   0.13670   0.53334   0.00000  Uiso   1.00
C759   C     0.40092   0.18695   0.91873   0.00000  Uiso   1.00
C760   C     0.59908   0.14638   0.58127   0.00000  Uiso   1.00
C761   C     0.47946   0.15760   0.91122   0.00000  Uiso   1.00
C762   C     0.52054   0.17573   0.58878   0.00000  Uiso   1.00
C763   C     0.47094   0.17054   0.95692   0.00000  Uiso   1.00
C764   C     0.52906   0.16278   0.54308   0.00000  Uiso   1.00
C765   C     0.42373   0.18704   0.98585   0.00000  Uiso   1.00
C766   C     0.57627   0.14628   0.51415   0.00000  Uiso   1.00
C767   C     0.50746   0.16537   0.97517   0.00000  Uiso   1.00
C768   C     0.49254   0.16796   0.52484   0.00000  Uiso   1.00
C769   C     0.44171   0.17589   0.55429   0.00000  Uiso   1.00
C770   C     0.55829   0.15743   0.94571   0.00000  Uiso   1.00
C771   C     0.40997   0.18996   0.53439   0.00000  Uiso   1.00
C772   C     0.59003   0.14336   0.96561   0.00000  Uiso   1.00
H773   H     0.37244   0.19860   0.55751   0.00000  Uiso   1.00
H774   H     0.62756   0.13472   0.94249   0.00000  Uiso   1.00
H775   H     0.48854   0.19484   0.60930   0.00000  Uiso   1.00
H776   H     0.51146   0.13849   0.89070   0.00000  Uiso   1.00
C777   C     0.52903   0.31170   0.76863   0.00000  Uiso   1.00
C778   C     0.47098   0.02164   0.73136   0.00000  Uiso   1.00
H779   H     0.55126   0.29505   0.78347   0.00000  Uiso   1.00
H780   H     0.44874   0.03828   0.71652   0.00000  Uiso   1.00
C781   C     0.52971   0.02113   0.76802   0.00000  Uiso   1.00
C782   C     0.47029   0.31220   0.73197   0.00000  Uiso   1.00
H783   H     0.55208   0.03739   0.78271   0.00000  Uiso   1.00
H784   H     0.44792   0.29594   0.71728   0.00000  Uiso   1.00
C785   C     0.50069   0.04253   0.74940   0.00000  Uiso   1.00
C786   C     0.49931   0.29080   0.75060   0.00000  Uiso   1.00
C787   C     0.65088   0.13252   0.73364   0.00000  Uiso   1.00
C788   C     0.34912   0.20081   0.76636   0.00000  Uiso   1.00
C789   C     0.36506   0.13276   0.73406   0.00000  Uiso   1.00
C790   C     0.63494   0.20058   0.76594   0.00000  Uiso   1.00
H791   H     0.38960   0.10590   0.72066   0.00000  Uiso   1.00
H792   H     0.61040   0.22744   0.77934   0.00000  Uiso   1.00
N793   N     0.38093   0.16668   0.75001   0.00000  Uiso   1.00
N794   N     0.61907   0.16666   0.74999   0.00000  Uiso   1.00
O795   O     0.63389   0.13837   0.59889   0.00000  Uiso   1.00
H796   H     0.63478   0.16323   0.61771   0.00000  Uiso   1.00
O797   O     0.36612   0.19497   0.90111   0.00000  Uiso   1.00
H798   H     0.36522   0.17011   0.88229   0.00000  Uiso   1.00
O799   O     0.34433   0.21478   0.99580   0.00000  Uiso   1.00
H800   H     0.65717   0.21989   0.97794   0.00000  Uiso   1.00
O801   O     0.65567   0.11855   0.50421   0.00000  Uiso   1.00
H802   H     0.34284   0.11345   0.52206   0.00000  Uiso   1.00
N803   N     0.42000   0.16446   0.60301   0.00000  Uiso   1.00
O804   O     0.43056   0.12821   0.61546   0.00000  Uiso   1.00
O805   O     0.38468   0.18737   0.63368   0.00000  Uiso   1.00
N806   N     0.57999   0.16885   0.89699   0.00000  Uiso   1.00
O807   O     0.61529   0.14592   0.86632   0.00000  Uiso   1.00
O808   O     0.56947   0.20512   0.88454   0.00000  Uiso   1.00
N809   N     0.63739   0.09624   0.71487   0.00000  Uiso   1.00
O810   O     0.64795   0.05935   0.72579   0.00000  Uiso   1.00
O811   O     0.62592   0.09966   0.67893   0.00000  Uiso   1.00
N812   N     0.36262   0.23709   0.78512   0.00000  Uiso   1.00
O813   O     0.35209   0.27398   0.77417   0.00000  Uiso   1.00
O814   O     0.37406   0.23368   0.82107   0.00000  Uiso   1.00
O815   O     0.79512   0.22775   0.75001   0.00000  Uiso   1.00
O816   O     0.87154   0.10558   0.75000   0.00000  Uiso   1.00
O817   O     0.87157   0.22774   0.75000   0.00000  Uiso   1.00
O818   O     0.79510   0.10559   0.75000   0.00000  Uiso   1.00
C819   C     0.83296   0.24662   0.75031   0.00000  Uiso   1.00
C820   C     0.83370   0.08671   0.74969   0.00000  Uiso   1.00
O821   O     0.77328   0.16667   0.81613   0.00000  Uiso   1.00
O822   O     0.89339   0.16666   0.68388   0.00000  Uiso   1.00
O823   O     0.84972   0.16666   0.81612   0.00000  Uiso   1.00
O824   O     0.81695   0.16667   0.68388   0.00000  Uiso   1.00
C825   C     0.80189   0.16661   0.83851   0.00000  Uiso   1.00
C826   C     0.86477   0.16672   0.66149   0.00000  Uiso   1.00
Zn827  Zn    0.78229   0.16667   0.75000   0.00000  Uiso   1.00
Zn828  Zn    0.88438   0.16666   0.75000   0.00000  Uiso   1.00
C829   C     0.78098   0.16886   0.89044   0.00000  Uiso   1.00
C830   C     0.88569   0.16447   0.60956   0.00000  Uiso   1.00
C831   C     0.72256   0.19663   0.96666   0.00000  Uiso   1.00
C832   C     0.94411   0.13670   0.53334   0.00000  Uiso   1.00
C833   C     0.73426   0.18695   0.91873   0.00000  Uiso   1.00
C834   C     0.93241   0.14638   0.58127   0.00000  Uiso   1.00
C835   C     0.81279   0.15760   0.91122   0.00000  Uiso   1.00
C836   C     0.85388   0.17573   0.58878   0.00000  Uiso   1.00
C837   C     0.80427   0.17054   0.95692   0.00000  Uiso   1.00
C838   C     0.86240   0.16278   0.54308   0.00000  Uiso   1.00
C839   C     0.75706   0.18704   0.98585   0.00000  Uiso   1.00
C840   C     0.90960   0.14628   0.51415   0.00000  Uiso   1.00
C841   C     0.84079   0.16537   0.97517   0.00000  Uiso   1.00
C842   C     0.82587   0.16796   0.52484   0.00000  Uiso   1.00
C843   C     0.77504   0.17589   0.55429   0.00000  Uiso   1.00
C844   C     0.89163   0.15743   0.94571   0.00000  Uiso   1.00
C845   C     0.74331   0.18996   0.53439   0.00000  Uiso   1.00
C846   C     0.92336   0.14336   0.96561   0.00000  Uiso   1.00
H847   H     0.70578   0.19860   0.55751   0.00000  Uiso   1.00
H848   H     0.96089   0.13472   0.94249   0.00000  Uiso   1.00
H849   H     0.82187   0.19484   0.60930   0.00000  Uiso   1.00
H850   H     0.84480   0.13849   0.89070   0.00000  Uiso   1.00
C851   C     0.86236   0.31170   0.76863   0.00000  Uiso   1.00
C852   C     0.80431   0.02164   0.73136   0.00000  Uiso   1.00
H853   H     0.88459   0.29505   0.78347   0.00000  Uiso   1.00
H854   H     0.78208   0.03828   0.71652   0.00000  Uiso   1.00
C855   C     0.86305   0.02113   0.76802   0.00000  Uiso   1.00
C856   C     0.80363   0.31220   0.73197   0.00000  Uiso   1.00
H857   H     0.88542   0.03739   0.78271   0.00000  Uiso   1.00
H858   H     0.78126   0.29594   0.71728   0.00000  Uiso   1.00
C859   C     0.83402   0.04253   0.74940   0.00000  Uiso   1.00
C860   C     0.83264   0.29080   0.75060   0.00000  Uiso   1.00
C861   C     0.98422   0.13252   0.73364   0.00000  Uiso   1.00
C862   C     0.68245   0.20081   0.76636   0.00000  Uiso   1.00
C863   C     0.69839   0.13276   0.73406   0.00000  Uiso   1.00
C864   C     0.96827   0.20058   0.76594   0.00000  Uiso   1.00
H865   H     0.72294   0.10590   0.72066   0.00000  Uiso   1.00
H866   H     0.94373   0.22744   0.77934   0.00000  Uiso   1.00
N867   N     0.71426   0.16668   0.75001   0.00000  Uiso   1.00
N868   N     0.95241   0.16666   0.74999   0.00000  Uiso   1.00
O869   O     0.96722   0.13837   0.59889   0.00000  Uiso   1.00
H870   H     0.96811   0.16323   0.61771   0.00000  Uiso   1.00
O871   O     0.69945   0.19497   0.90111   0.00000  Uiso   1.00
H872   H     0.69855   0.17011   0.88229   0.00000  Uiso   1.00
O873   O     0.67766   0.21478   0.99580   0.00000  Uiso   1.00
H874   H     0.99050   0.21989   0.97794   0.00000  Uiso   1.00
O875   O     0.98901   0.11855   0.50421   0.00000  Uiso   1.00
H876   H     0.67618   0.11345   0.52206   0.00000  Uiso   1.00
N877   N     0.75334   0.16446   0.60301   0.00000  Uiso   1.00
O878   O     0.76390   0.12821   0.61546   0.00000  Uiso   1.00
O879   O     0.71801   0.18737   0.63368   0.00000  Uiso   1.00
N880   N     0.91333   0.16885   0.89699   0.00000  Uiso   1.00
O881   O     0.94862   0.14592   0.86632   0.00000  Uiso   1.00
O882   O     0.90280   0.20512   0.88454   0.00000  Uiso   1.00
N883   N     0.97072   0.09624   0.71487   0.00000  Uiso   1.00
O884   O     0.98128   0.05935   0.72579   0.00000  Uiso   1.00
O885   O     0.95925   0.09966   0.67893   0.00000  Uiso   1.00
N886   N     0.69595   0.23709   0.78512   0.00000  Uiso   1.00
O887   O     0.68543   0.27398   0.77417   0.00000  Uiso   1.00
O888   O     0.70740   0.23368   0.82107   0.00000  Uiso   1.00
O889   O     0.12846   0.56108   0.75001   0.00000  Uiso   1.00
O890   O     0.20488   0.43892   0.75000   0.00000  Uiso   1.00
O891   O     0.20490   0.56107   0.75000   0.00000  Uiso   1.00
O892   O     0.12843   0.43893   0.75000   0.00000  Uiso   1.00
C893   C     0.16630   0.57996   0.75031   0.00000  Uiso   1.00
C894   C     0.16704   0.42004   0.74969   0.00000  Uiso   1.00
O895   O     0.10661   0.50001   0.81613   0.00000  Uiso   1.00
O896   O     0.22672   0.49999   0.68388   0.00000  Uiso   1.00
O897   O     0.18305   0.50000   0.81612   0.00000  Uiso   1.00
O898   O     0.15028   0.50000   0.68388   0.00000  Uiso   1.00
C899   C     0.13523   0.49994   0.83851   0.00000  Uiso   1.00
C900   C     0.19811   0.50006   0.66149   0.00000  Uiso   1.00
Zn901  Zn    0.11562   0.50001   0.75000   0.00000  Uiso   1.00
Zn902  Zn    0.21771   0.49999   0.75000   0.00000  Uiso   1.00
C903   C     0.11431   0.50220   0.89044   0.00000  Uiso   1.00
C904   C     0.21903   0.49780   0.60956   0.00000  Uiso   1.00
C905   C     0.05589   0.52997   0.96666   0.00000  Uiso   1.00
C906   C     0.27744   0.47003   0.53334   0.00000  Uiso   1.00
C907   C     0.06759   0.52029   0.91873   0.00000  Uiso   1.00
C908   C     0.26575   0.47972   0.58127   0.00000  Uiso   1.00
C909   C     0.14612   0.49093   0.91122   0.00000  Uiso   1.00
C910   C     0.18721   0.50907   0.58878   0.00000  Uiso   1.00
C911   C     0.13760   0.50388   0.95692   0.00000  Uiso   1.00
C912   C     0.19573   0.49611   0.54308   0.00000  Uiso   1.00
C913   C     0.09040   0.52038   0.98585   0.00000  Uiso   1.00
C914   C     0.24294   0.47962   0.51415   0.00000  Uiso   1.00
C915   C     0.17413   0.49870   0.97517   0.00000  Uiso   1.00
C916   C     0.15921   0.50129   0.52484   0.00000  Uiso   1.00
C917   C     0.10837   0.50922   0.55429   0.00000  Uiso   1.00
C918   C     0.22496   0.49076   0.94571   0.00000  Uiso   1.00
C919   C     0.07664   0.52329   0.53439   0.00000  Uiso   1.00
C920   C     0.25669   0.47670   0.96561   0.00000  Uiso   1.00
H921   H     0.03911   0.53194   0.55751   0.00000  Uiso   1.00
H922   H     0.29422   0.46806   0.94249   0.00000  Uiso   1.00
H923   H     0.15520   0.52818   0.60930   0.00000  Uiso   1.00
H924   H     0.17813   0.47182   0.89070   0.00000  Uiso   1.00
C925   C     0.19569   0.64503   0.76863   0.00000  Uiso   1.00
C926   C     0.13764   0.35497   0.73136   0.00000  Uiso   1.00
H927   H     0.21793   0.62839   0.78347   0.00000  Uiso   1.00
H928   H     0.11541   0.37161   0.71652   0.00000  Uiso   1.00
C929   C     0.19638   0.35446   0.76802   0.00000  Uiso   1.00
C930   C     0.13696   0.64554   0.73197   0.00000  Uiso   1.00
H931   H     0.21875   0.37072   0.78271   0.00000  Uiso   1.00
H932   H     0.11459   0.62928   0.71728   0.00000  Uiso   1.00
C933   C     0.16736   0.37586   0.74940   0.00000  Uiso   1.00
C934   C     0.16598   0.62414   0.75060   0.00000  Uiso   1.00
C935   C     0.31755   0.46585   0.73364   0.00000  Uiso   1.00
C936   C     0.01578   0.53415   0.76636   0.00000  Uiso   1.00
C937   C     0.03173   0.46609   0.73406   0.00000  Uiso   1.00
C938   C     0.30161   0.53391   0.76594   0.00000  Uiso   1.00
H939   H     0.05627   0.43923   0.72066   0.00000  Uiso   1.00
H940   H     0.27707   0.56077   0.77934   0.00000  Uiso   1.00
N941   N     0.04759   0.50001   0.75001   0.00000  Uiso   1.00
N942   N     0.28574   0.49999   0.74999   0.00000  Uiso   1.00
O943   O     0.30055   0.47170   0.59889   0.00000  Uiso   1.00
H944   H     0.30145   0.49657   0.61771   0.00000  Uiso   1.00
O945   O     0.03279   0.52830   0.90111   0.00000  Uiso   1.00
H946   H     0.03188   0.50344   0.88229   0.00000  Uiso   1.00
O947   O     0.01099   0.54811   0.99580   0.00000  Uiso   1.00
H948   H     0.32383   0.55323   0.97794   0.00000  Uiso   1.00
O949   O     0.32234   0.45189   0.50421   0.00000  Uiso   1.00
H950   H     0.00951   0.44679   0.52206   0.00000  Uiso   1.00
N951   N     0.08667   0.49779   0.60301   0.00000  Uiso   1.00
O952   O     0.09723   0.46154   0.61546   0.00000  Uiso   1.00
O953   O     0.05134   0.52070   0.63368   0.00000  Uiso   1.00
N954   N     0.24666   0.50219   0.89699   0.00000  Uiso   1.00
O955   O     0.28195   0.47925   0.86632   0.00000  Uiso   1.00
O956   O     0.23613   0.53845   0.88454   0.00000  Uiso   1.00
N957   N     0.30406   0.42958   0.71487   0.00000  Uiso   1.00
O958   O     0.31462   0.39269   0.72579   0.00000  Uiso   1.00
O959   O     0.29258   0.43300   0.67893   0.00000  Uiso   1.00
N960   N     0.02928   0.57043   0.78512   0.00000  Uiso   1.00
O961   O     0.01876   0.60731   0.77417   0.00000  Uiso   1.00
O962   O     0.04073   0.56702   0.82107   0.00000  Uiso   1.00
O963   O     0.46179   0.56108   0.75001   0.00000  Uiso   1.00
O964   O     0.53821   0.43892   0.75000   0.00000  Uiso   1.00
O965   O     0.53823   0.56107   0.75000   0.00000  Uiso   1.00
O966   O     0.46177   0.43893   0.75000   0.00000  Uiso   1.00
C967   C     0.49963   0.57996   0.75031   0.00000  Uiso   1.00
C968   C     0.50037   0.42004   0.74969   0.00000  Uiso   1.00
O969   O     0.43994   0.50001   0.81613   0.00000  Uiso   1.00
O970   O     0.56006   0.49999   0.68388   0.00000  Uiso   1.00
O971   O     0.51639   0.50000   0.81612   0.00000  Uiso   1.00
O972   O     0.48361   0.50000   0.68388   0.00000  Uiso   1.00
C973   C     0.46856   0.49994   0.83851   0.00000  Uiso   1.00
C974   C     0.53144   0.50006   0.66149   0.00000  Uiso   1.00
Zn975  Zn    0.44896   0.50001   0.75000   0.00000  Uiso   1.00
Zn976  Zn    0.55104   0.49999   0.75000   0.00000  Uiso   1.00
C977   C     0.44764   0.50220   0.89044   0.00000  Uiso   1.00
C978   C     0.55236   0.49780   0.60956   0.00000  Uiso   1.00
C979   C     0.38922   0.52997   0.96666   0.00000  Uiso   1.00
C980   C     0.61078   0.47003   0.53334   0.00000  Uiso   1.00
C981   C     0.40092   0.52029   0.91873   0.00000  Uiso   1.00
C982   C     0.59908   0.47972   0.58127   0.00000  Uiso   1.00
C983   C     0.47946   0.49093   0.91122   0.00000  Uiso   1.00
C984   C     0.52054   0.50907   0.58878   0.00000  Uiso   1.00
C985   C     0.47094   0.50388   0.95692   0.00000  Uiso   1.00
C986   C     0.52906   0.49611   0.54308   0.00000  Uiso   1.00
C987   C     0.42373   0.52038   0.98585   0.00000  Uiso   1.00
C988   C     0.57627   0.47962   0.51415   0.00000  Uiso   1.00
C989   C     0.50746   0.49870   0.97517   0.00000  Uiso   1.00
C990   C     0.49254   0.50129   0.52484   0.00000  Uiso   1.00
C991   C     0.44171   0.50922   0.55429   0.00000  Uiso   1.00
C992   C     0.55829   0.49076   0.94571   0.00000  Uiso   1.00
C993   C     0.40997   0.52329   0.53439   0.00000  Uiso   1.00
C994   C     0.59003   0.47670   0.96561   0.00000  Uiso   1.00
H995   H     0.37244   0.53194   0.55751   0.00000  Uiso   1.00
H996   H     0.62756   0.46806   0.94249   0.00000  Uiso   1.00
H997   H     0.48854   0.52818   0.60930   0.00000  Uiso   1.00
H998   H     0.51146   0.47182   0.89070   0.00000  Uiso   1.00
C999   C     0.52903   0.64503   0.76863   0.00000  Uiso   1.00
C1000  C     0.47098   0.35497   0.73136   0.00000  Uiso   1.00
H1001  H     0.55126   0.62839   0.78347   0.00000  Uiso   1.00
H1002  H     0.44874   0.37161   0.71652   0.00000  Uiso   1.00
C1003  C     0.52971   0.35446   0.76802   0.00000  Uiso   1.00
C1004  C     0.47029   0.64554   0.73197   0.00000  Uiso   1.00
H1005  H     0.55208   0.37072   0.78271   0.00000  Uiso   1.00
H1006  H     0.44792   0.62928   0.71728   0.00000  Uiso   1.00
C1007  C     0.50069   0.37586   0.74940   0.00000  Uiso   1.00
C1008  C     0.49931   0.62414   0.75060   0.00000  Uiso   1.00
C1009  C     0.65088   0.46585   0.73364   0.00000  Uiso   1.00
C1010  C     0.34912   0.53415   0.76636   0.00000  Uiso   1.00
C1011  C     0.36506   0.46609   0.73406   0.00000  Uiso   1.00
C1012  C     0.63494   0.53391   0.76594   0.00000  Uiso   1.00
H1013  H     0.38960   0.43923   0.72066   0.00000  Uiso   1.00
H1014  H     0.61040   0.56077   0.77934   0.00000  Uiso   1.00
N1015  N     0.38093   0.50001   0.75001   0.00000  Uiso   1.00
N1016  N     0.61907   0.49999   0.74999   0.00000  Uiso   1.00
O1017  O     0.63389   0.47170   0.59889   0.00000  Uiso   1.00
H1018  H     0.63478   0.49657   0.61771   0.00000  Uiso   1.00
O1019  O     0.36612   0.52830   0.90111   0.00000  Uiso   1.00
H1020  H     0.36522   0.50344   0.88229   0.00000  Uiso   1.00
O1021  O     0.34433   0.54811   0.99580   0.00000  Uiso   1.00
H1022  H     0.65717   0.55323   0.97794   0.00000  Uiso   1.00
O1023  O     0.65567   0.45189   0.50421   0.00000  Uiso   1.00
H1024  H     0.34284   0.44679   0.52206   0.00000  Uiso   1.00
N1025  N     0.42000   0.49779   0.60301   0.00000  Uiso   1.00
O1026  O     0.43056   0.46154   0.61546   0.00000  Uiso   1.00
O1027  O     0.38468   0.52070   0.63368   0.00000  Uiso   1.00
N1028  N     0.57999   0.50219   0.89699   0.00000  Uiso   1.00
O1029  O     0.61529   0.47925   0.86632   0.00000  Uiso   1.00
O1030  O     0.56947   0.53845   0.88454   0.00000  Uiso   1.00
N1031  N     0.63739   0.42958   0.71487   0.00000  Uiso   1.00
O1032  O     0.64795   0.39269   0.72579   0.00000  Uiso   1.00
O1033  O     0.62592   0.43300   0.67893   0.00000  Uiso   1.00
N1034  N     0.36262   0.57043   0.78512   0.00000  Uiso   1.00
O1035  O     0.35209   0.60731   0.77417   0.00000  Uiso   1.00
O1036  O     0.37406   0.56702   0.82107   0.00000  Uiso   1.00
O1037  O     0.79512   0.56108   0.75001   0.00000  Uiso   1.00
O1038  O     0.87154   0.43892   0.75000   0.00000  Uiso   1.00
O1039  O     0.87157   0.56107   0.75000   0.00000  Uiso   1.00
O1040  O     0.79510   0.43893   0.75000   0.00000  Uiso   1.00
C1041  C     0.83296   0.57996   0.75031   0.00000  Uiso   1.00
C1042  C     0.83370   0.42004   0.74969   0.00000  Uiso   1.00
O1043  O     0.77328   0.50001   0.81613   0.00000  Uiso   1.00
O1044  O     0.89339   0.49999   0.68388   0.00000  Uiso   1.00
O1045  O     0.84972   0.50000   0.81612   0.00000  Uiso   1.00
O1046  O     0.81695   0.50000   0.68388   0.00000  Uiso   1.00
C1047  C     0.80189   0.49994   0.83851   0.00000  Uiso   1.00
C1048  C     0.86477   0.50006   0.66149   0.00000  Uiso   1.00
Zn1049 Zn    0.78229   0.50001   0.75000   0.00000  Uiso   1.00
Zn1050 Zn    0.88438   0.49999   0.75000   0.00000  Uiso   1.00
C1051  C     0.78098   0.50220   0.89044   0.00000  Uiso   1.00
C1052  C     0.88569   0.49780   0.60956   0.00000  Uiso   1.00
C1053  C     0.72256   0.52997   0.96666   0.00000  Uiso   1.00
C1054  C     0.94411   0.47003   0.53334   0.00000  Uiso   1.00
C1055  C     0.73426   0.52029   0.91873   0.00000  Uiso   1.00
C1056  C     0.93241   0.47972   0.58127   0.00000  Uiso   1.00
C1057  C     0.81279   0.49093   0.91122   0.00000  Uiso   1.00
C1058  C     0.85388   0.50907   0.58878   0.00000  Uiso   1.00
C1059  C     0.80427   0.50388   0.95692   0.00000  Uiso   1.00
C1060  C     0.86240   0.49611   0.54308   0.00000  Uiso   1.00
C1061  C     0.75706   0.52038   0.98585   0.00000  Uiso   1.00
C1062  C     0.90960   0.47962   0.51415   0.00000  Uiso   1.00
C1063  C     0.84079   0.49870   0.97517   0.00000  Uiso   1.00
C1064  C     0.82587   0.50129   0.52484   0.00000  Uiso   1.00
C1065  C     0.77504   0.50922   0.55429   0.00000  Uiso   1.00
C1066  C     0.89163   0.49076   0.94571   0.00000  Uiso   1.00
C1067  C     0.74331   0.52329   0.53439   0.00000  Uiso   1.00
C1068  C     0.92336   0.47670   0.96561   0.00000  Uiso   1.00
H1069  H     0.70578   0.53194   0.55751   0.00000  Uiso   1.00
H1070  H     0.96089   0.46806   0.94249   0.00000  Uiso   1.00
H1071  H     0.82187   0.52818   0.60930   0.00000  Uiso   1.00
H1072  H     0.84480   0.47182   0.89070   0.00000  Uiso   1.00
C1073  C     0.86236   0.64503   0.76863   0.00000  Uiso   1.00
C1074  C     0.80431   0.35497   0.73136   0.00000  Uiso   1.00
H1075  H     0.88459   0.62839   0.78347   0.00000  Uiso   1.00
H1076  H     0.78208   0.37161   0.71652   0.00000  Uiso   1.00
C1077  C     0.86305   0.35446   0.76802   0.00000  Uiso   1.00
C1078  C     0.80363   0.64554   0.73197   0.00000  Uiso   1.00
H1079  H     0.88542   0.37072   0.78271   0.00000  Uiso   1.00
H1080  H     0.78126   0.62928   0.71728   0.00000  Uiso   1.00
C1081  C     0.83402   0.37586   0.74940   0.00000  Uiso   1.00
C1082  C     0.83264   0.62414   0.75060   0.00000  Uiso   1.00
C1083  C     0.98422   0.46585   0.73364   0.00000  Uiso   1.00
C1084  C     0.68245   0.53415   0.76636   0.00000  Uiso   1.00
C1085  C     0.69839   0.46609   0.73406   0.00000  Uiso   1.00
C1086  C     0.96827   0.53391   0.76594   0.00000  Uiso   1.00
H1087  H     0.72294   0.43923   0.72066   0.00000  Uiso   1.00
H1088  H     0.94373   0.56077   0.77934   0.00000  Uiso   1.00
N1089  N     0.71426   0.50001   0.75001   0.00000  Uiso   1.00
N1090  N     0.95241   0.49999   0.74999   0.00000  Uiso   1.00
O1091  O     0.96722   0.47170   0.59889   0.00000  Uiso   1.00
H1092  H     0.96811   0.49657   0.61771   0.00000  Uiso   1.00
O1093  O     0.69945   0.52830   0.90111   0.00000  Uiso   1.00
H1094  H     0.69855   0.50344   0.88229   0.00000  Uiso   1.00
O1095  O     0.67766   0.54811   0.99580   0.00000  Uiso   1.00
H1096  H     0.99050   0.55323   0.97794   0.00000  Uiso   1.00
O1097  O     0.98901   0.45189   0.50421   0.00000  Uiso   1.00
H1098  H     0.67618   0.44679   0.52206   0.00000  Uiso   1.00
N1099  N     0.75334   0.49779   0.60301   0.00000  Uiso   1.00
O1100  O     0.76390   0.46154   0.61546   0.00000  Uiso   1.00
O1101  O     0.71801   0.52070   0.63368   0.00000  Uiso   1.00
N1102  N     0.91333   0.50219   0.89699   0.00000  Uiso   1.00
O1103  O     0.94862   0.47925   0.86632   0.00000  Uiso   1.00
O1104  O     0.90280   0.53845   0.88454   0.00000  Uiso   1.00
N1105  N     0.97072   0.42958   0.71487   0.00000  Uiso   1.00
O1106  O     0.98128   0.39269   0.72579   0.00000  Uiso   1.00
O1107  O     0.95925   0.43300   0.67893   0.00000  Uiso   1.00
N1108  N     0.69595   0.57043   0.78512   0.00000  Uiso   1.00
O1109  O     0.68543   0.60731   0.77417   0.00000  Uiso   1.00
O1110  O     0.70740   0.56702   0.82107   0.00000  Uiso   1.00
O1111  O     0.12846   0.89442   0.75001   0.00000  Uiso   1.00
O1112  O     0.20488   0.77225   0.75000   0.00000  Uiso   1.00
O1113  O     0.20490   0.89441   0.75000   0.00000  Uiso   1.00
O1114  O     0.12843   0.77226   0.75000   0.00000  Uiso   1.00
C1115  C     0.16630   0.91329   0.75031   0.00000  Uiso   1.00
C1116  C     0.16704   0.75338   0.74969   0.00000  Uiso   1.00
O1117  O     0.10661   0.83334   0.81613   0.00000  Uiso   1.00
O1118  O     0.22672   0.83333   0.68388   0.00000  Uiso   1.00
O1119  O     0.18305   0.83333   0.81612   0.00000  Uiso   1.00
O1120  O     0.15028   0.83334   0.68388   0.00000  Uiso   1.00
C1121  C     0.13523   0.83328   0.83851   0.00000  Uiso   1.00
C1122  C     0.19811   0.83339   0.66149   0.00000  Uiso   1.00
Zn1123 Zn    0.11562   0.83334   0.75000   0.00000  Uiso   1.00
Zn1124 Zn    0.21771   0.83333   0.75000   0.00000  Uiso   1.00
C1125  C     0.11431   0.83553   0.89044   0.00000  Uiso   1.00
C1126  C     0.21903   0.83114   0.60956   0.00000  Uiso   1.00
C1127  C     0.05589   0.86330   0.96666   0.00000  Uiso   1.00
C1128  C     0.27744   0.80336   0.53334   0.00000  Uiso   1.00
C1129  C     0.06759   0.85362   0.91873   0.00000  Uiso   1.00
C1130  C     0.26575   0.81305   0.58127   0.00000  Uiso   1.00
C1131  C     0.14612   0.82426   0.91122   0.00000  Uiso   1.00
C1132  C     0.18721   0.84240   0.58878   0.00000  Uiso   1.00
C1133  C     0.13760   0.83721   0.95692   0.00000  Uiso   1.00
C1134  C     0.19573   0.82945   0.54308   0.00000  Uiso   1.00
C1135  C     0.09040   0.85371   0.98585   0.00000  Uiso   1.00
C1136  C     0.24294   0.81295   0.51415   0.00000  Uiso   1.00
C1137  C     0.17413   0.83203   0.97517   0.00000  Uiso   1.00
C1138  C     0.15921   0.83462   0.52484   0.00000  Uiso   1.00
C1139  C     0.10837   0.84256   0.55429   0.00000  Uiso   1.00
C1140  C     0.22496   0.82410   0.94571   0.00000  Uiso   1.00
C1141  C     0.07664   0.85663   0.53439   0.00000  Uiso   1.00
C1142  C     0.25669   0.81003   0.96561   0.00000  Uiso   1.00
H1143  H     0.03911   0.86527   0.55751   0.00000  Uiso   1.00
H1144  H     0.29422   0.80139   0.94249   0.00000  Uiso   1.00
H1145  H     0.15520   0.86151   0.60930   0.00000  Uiso   1.00
H1146  H     0.17813   0.80515   0.89070   0.00000  Uiso   1.00
C1147  C     0.19569   0.97836   0.76863   0.00000  Uiso   1.00
C1148  C     0.13764   0.68830   0.73136   0.00000  Uiso   1.00
H1149  H     0.21793   0.96172   0.78347   0.00000  Uiso   1.00
H1150  H     0.11541   0.70495   0.71652   0.00000  Uiso   1.00
C1151  C     0.19638   0.68780   0.76802   0.00000  Uiso   1.00
C1152  C     0.13696   0.97887   0.73197   0.00000  Uiso   1.00
H1153  H     0.21875   0.70406   0.78271   0.00000  Uiso   1.00
H1154  H     0.11459   0.96261   0.71728   0.00000  Uiso   1.00
C1155  C     0.16736   0.70920   0.74940   0.00000  Uiso   1.00
C1156  C     0.16598   0.95747   0.75060   0.00000  Uiso   1.00
C1157  C     0.31755   0.79919   0.73364   0.00000  Uiso   1.00
C1158  C     0.01578   0.86748   0.76636   0.00000  Uiso   1.00
C1159  C     0.03173   0.79942   0.73406   0.00000  Uiso   1.00
C1160  C     0.30161   0.86724   0.76594   0.00000  Uiso   1.00
H1161  H     0.05627   0.77256   0.72066   0.00000  Uiso   1.00
H1162  H     0.27707   0.89410   0.77934   0.00000  Uiso   1.00
N1163  N     0.04759   0.83334   0.75001   0.00000  Uiso   1.00
N1164  N     0.28574   0.83332   0.74999   0.00000  Uiso   1.00
O1165  O     0.30055   0.80504   0.59889   0.00000  Uiso   1.00
H1166  H     0.30145   0.82990   0.61771   0.00000  Uiso   1.00
O1167  O     0.03279   0.86164   0.90111   0.00000  Uiso   1.00
H1168  H     0.03188   0.83677   0.88229   0.00000  Uiso   1.00
O1169  O     0.01099   0.88144   0.99580   0.00000  Uiso   1.00
H1170  H     0.32383   0.88656   0.97794   0.00000  Uiso   1.00
O1171  O     0.32234   0.78522   0.50421   0.00000  Uiso   1.00
H1172  H     0.00951   0.78012   0.52206   0.00000  Uiso   1.00
N1173  N     0.08667   0.83112   0.60301   0.00000  Uiso   1.00
O1174  O     0.09723   0.79487   0.61546   0.00000  Uiso   1.00
O1175  O     0.05134   0.85403   0.63368   0.00000  Uiso   1.00
N1176  N     0.24666   0.83552   0.89699   0.00000  Uiso   1.00
O1177  O     0.28195   0.81258   0.86632   0.00000  Uiso   1.00
O1178  O     0.23613   0.87179   0.88454   0.00000  Uiso   1.00
N1179  N     0.30406   0.76291   0.71487   0.00000  Uiso   1.00
O1180  O     0.31462   0.72602   0.72579   0.00000  Uiso   1.00
O1181  O     0.29258   0.76633   0.67893   0.00000  Uiso   1.00
N1182  N     0.02928   0.90376   0.78512   0.00000  Uiso   1.00
O1183  O     0.01876   0.94064   0.77417   0.00000  Uiso   1.00
O1184  O     0.04073   0.90035   0.82107   0.00000  Uiso   1.00
O1185  O     0.46179   0.89442   0.75001   0.00000  Uiso   1.00
O1186  O     0.53821   0.77225   0.75000   0.00000  Uiso   1.00
O1187  O     0.53823   0.89441   0.75000   0.00000  Uiso   1.00
O1188  O     0.46177   0.77226   0.75000   0.00000  Uiso   1.00
C1189  C     0.49963   0.91329   0.75031   0.00000  Uiso   1.00
C1190  C     0.50037   0.75338   0.74969   0.00000  Uiso   1.00
O1191  O     0.43994   0.83334   0.81613   0.00000  Uiso   1.00
O1192  O     0.56006   0.83333   0.68388   0.00000  Uiso   1.00
O1193  O     0.51639   0.83333   0.81612   0.00000  Uiso   1.00
O1194  O     0.48361   0.83334   0.68388   0.00000  Uiso   1.00
C1195  C     0.46856   0.83328   0.83851   0.00000  Uiso   1.00
C1196  C     0.53144   0.83339   0.66149   0.00000  Uiso   1.00
Zn1197 Zn    0.44896   0.83334   0.75000   0.00000  Uiso   1.00
Zn1198 Zn    0.55104   0.83333   0.75000   0.00000  Uiso   1.00
C1199  C     0.44764   0.83553   0.89044   0.00000  Uiso   1.00
C1200  C     0.55236   0.83114   0.60956   0.00000  Uiso   1.00
C1201  C     0.38922   0.86330   0.96666   0.00000  Uiso   1.00
C1202  C     0.61078   0.80336   0.53334   0.00000  Uiso   1.00
C1203  C     0.40092   0.85362   0.91873   0.00000  Uiso   1.00
C1204  C     0.59908   0.81305   0.58127   0.00000  Uiso   1.00
C1205  C     0.47946   0.82426   0.91122   0.00000  Uiso   1.00
C1206  C     0.52054   0.84240   0.58878   0.00000  Uiso   1.00
C1207  C     0.47094   0.83721   0.95692   0.00000  Uiso   1.00
C1208  C     0.52906   0.82945   0.54308   0.00000  Uiso   1.00
C1209  C     0.42373   0.85371   0.98585   0.00000  Uiso   1.00
C1210  C     0.57627   0.81295   0.51415   0.00000  Uiso   1.00
C1211  C     0.50746   0.83203   0.97517   0.00000  Uiso   1.00
C1212  C     0.49254   0.83462   0.52484   0.00000  Uiso   1.00
C1213  C     0.44171   0.84256   0.55429   0.00000  Uiso   1.00
C1214  C     0.55829   0.82410   0.94571   0.00000  Uiso   1.00
C1215  C     0.40997   0.85663   0.53439   0.00000  Uiso   1.00
C1216  C     0.59003   0.81003   0.96561   0.00000  Uiso   1.00
H1217  H     0.37244   0.86527   0.55751   0.00000  Uiso   1.00
H1218  H     0.62756   0.80139   0.94249   0.00000  Uiso   1.00
H1219  H     0.48854   0.86151   0.60930   0.00000  Uiso   1.00
H1220  H     0.51146   0.80515   0.89070   0.00000  Uiso   1.00
C1221  C     0.52903   0.97836   0.76863   0.00000  Uiso   1.00
C1222  C     0.47098   0.68830   0.73136   0.00000  Uiso   1.00
H1223  H     0.55126   0.96172   0.78347   0.00000  Uiso   1.00
H1224  H     0.44874   0.70495   0.71652   0.00000  Uiso   1.00
C1225  C     0.52971   0.68780   0.76802   0.00000  Uiso   1.00
C1226  C     0.47029   0.97887   0.73197   0.00000  Uiso   1.00
H1227  H     0.55208   0.70406   0.78271   0.00000  Uiso   1.00
H1228  H     0.44792   0.96261   0.71728   0.00000  Uiso   1.00
C1229  C     0.50069   0.70920   0.74940   0.00000  Uiso   1.00
C1230  C     0.49931   0.95747   0.75060   0.00000  Uiso   1.00
C1231  C     0.65088   0.79919   0.73364   0.00000  Uiso   1.00
C1232  C     0.34912   0.86748   0.76636   0.00000  Uiso   1.00
C1233  C     0.36506   0.79942   0.73406   0.00000  Uiso   1.00
C1234  C     0.63494   0.86724   0.76594   0.00000  Uiso   1.00
H1235  H     0.38960   0.77256   0.72066   0.00000  Uiso   1.00
H1236  H     0.61040   0.89410   0.77934   0.00000  Uiso   1.00
N1237  N     0.38093   0.83334   0.75001   0.00000  Uiso   1.00
N1238  N     0.61907   0.83332   0.74999   0.00000  Uiso   1.00
O1239  O     0.63389   0.80504   0.59889   0.00000  Uiso   1.00
H1240  H     0.63478   0.82990   0.61771   0.00000  Uiso   1.00
O1241  O     0.36612   0.86164   0.90111   0.00000  Uiso   1.00
H1242  H     0.36522   0.83677   0.88229   0.00000  Uiso   1.00
O1243  O     0.34433   0.88144   0.99580   0.00000  Uiso   1.00
H1244  H     0.65717   0.88656   0.97794   0.00000  Uiso   1.00
O1245  O     0.65567   0.78522   0.50421   0.00000  Uiso   1.00
H1246  H     0.34284   0.78012   0.52206   0.00000  Uiso   1.00
N1247  N     0.42000   0.83112   0.60301   0.00000  Uiso   1.00
O1248  O     0.43056   0.79487   0.61546   0.00000  Uiso   1.00
O1249  O     0.38468   0.85403   0.63368   0.00000  Uiso   1.00
N1250  N     0.57999   0.83552   0.89699   0.00000  Uiso   1.00
O1251  O     0.61529   0.81258   0.86632   0.00000  Uiso   1.00
O1252  O     0.56947   0.87179   0.88454   0.00000  Uiso   1.00
N1253  N     0.63739   0.76291   0.71487   0.00000  Uiso   1.00
O1254  O     0.64795   0.72602   0.72579   0.00000  Uiso   1.00
O1255  O     0.62592   0.76633   0.67893   0.00000  Uiso   1.00
N1256  N     0.36262   0.90376   0.78512   0.00000  Uiso   1.00
O1257  O     0.35209   0.94064   0.77417   0.00000  Uiso   1.00
O1258  O     0.37406   0.90035   0.82107   0.00000  Uiso   1.00
O1259  O     0.79512   0.89442   0.75001   0.00000  Uiso   1.00
O1260  O     0.87154   0.77225   0.75000   0.00000  Uiso   1.00
O1261  O     0.87157   0.89441   0.75000   0.00000  Uiso   1.00
O1262  O     0.79510   0.77226   0.75000   0.00000  Uiso   1.00
C1263  C     0.83296   0.91329   0.75031   0.00000  Uiso   1.00
C1264  C     0.83370   0.75338   0.74969   0.00000  Uiso   1.00
O1265  O     0.77328   0.83334   0.81613   0.00000  Uiso   1.00
O1266  O     0.89339   0.83333   0.68388   0.00000  Uiso   1.00
O1267  O     0.84972   0.83333   0.81612   0.00000  Uiso   1.00
O1268  O     0.81695   0.83334   0.68388   0.00000  Uiso   1.00
C1269  C     0.80189   0.83328   0.83851   0.00000  Uiso   1.00
C1270  C     0.86477   0.83339   0.66149   0.00000  Uiso   1.00
Zn1271 Zn    0.78229   0.83334   0.75000   0.00000  Uiso   1.00
Zn1272 Zn    0.88438   0.83333   0.75000   0.00000  Uiso   1.00
C1273  C     0.78098   0.83553   0.89044   0.00000  Uiso   1.00
C1274  C     0.88569   0.83114   0.60956   0.00000  Uiso   1.00
C1275  C     0.72256   0.86330   0.96666   0.00000  Uiso   1.00
C1276  C     0.94411   0.80336   0.53334   0.00000  Uiso   1.00
C1277  C     0.73426   0.85362   0.91873   0.00000  Uiso   1.00
C1278  C     0.93241   0.81305   0.58127   0.00000  Uiso   1.00
C1279  C     0.81279   0.82426   0.91122   0.00000  Uiso   1.00
C1280  C     0.85388   0.84240   0.58878   0.00000  Uiso   1.00
C1281  C     0.80427   0.83721   0.95692   0.00000  Uiso   1.00
C1282  C     0.86240   0.82945   0.54308   0.00000  Uiso   1.00
C1283  C     0.75706   0.85371   0.98585   0.00000  Uiso   1.00
C1284  C     0.90960   0.81295   0.51415   0.00000  Uiso   1.00
C1285  C     0.84079   0.83203   0.97517   0.00000  Uiso   1.00
C1286  C     0.82587   0.83462   0.52484   0.00000  Uiso   1.00
C1287  C     0.77504   0.84256   0.55429   0.00000  Uiso   1.00
C1288  C     0.89163   0.82410   0.94571   0.00000  Uiso   1.00
C1289  C     0.74331   0.85663   0.53439   0.00000  Uiso   1.00
C1290  C     0.92336   0.81003   0.96561   0.00000  Uiso   1.00
H1291  H     0.70578   0.86527   0.55751   0.00000  Uiso   1.00
H1292  H     0.96089   0.80139   0.94249   0.00000  Uiso   1.00
H1293  H     0.82187   0.86151   0.60930   0.00000  Uiso   1.00
H1294  H     0.84480   0.80515   0.89070   0.00000  Uiso   1.00
C1295  C     0.86236   0.97836   0.76863   0.00000  Uiso   1.00
C1296  C     0.80431   0.68830   0.73136   0.00000  Uiso   1.00
H1297  H     0.88459   0.96172   0.78347   0.00000  Uiso   1.00
H1298  H     0.78208   0.70495   0.71652   0.00000  Uiso   1.00
C1299  C     0.86305   0.68780   0.76802   0.00000  Uiso   1.00
C1300  C     0.80363   0.97887   0.73197   0.00000  Uiso   1.00
H1301  H     0.88542   0.70406   0.78271   0.00000  Uiso   1.00
H1302  H     0.78126   0.96261   0.71728   0.00000  Uiso   1.00
C1303  C     0.83402   0.70920   0.74940   0.00000  Uiso   1.00
C1304  C     0.83264   0.95747   0.75060   0.00000  Uiso   1.00
C1305  C     0.98422   0.79919   0.73364   0.00000  Uiso   1.00
C1306  C     0.68245   0.86748   0.76636   0.00000  Uiso   1.00
C1307  C     0.69839   0.79942   0.73406   0.00000  Uiso   1.00
C1308  C     0.96827   0.86724   0.76594   0.00000  Uiso   1.00
H1309  H     0.72294   0.77256   0.72066   0.00000  Uiso   1.00
H1310  H     0.94373   0.89410   0.77934   0.00000  Uiso   1.00
N1311  N     0.71426   0.83334   0.75001   0.00000  Uiso   1.00
N1312  N     0.95241   0.83332   0.74999   0.00000  Uiso   1.00
O1313  O     0.96722   0.80504   0.59889   0.00000  Uiso   1.00
H1314  H     0.96811   0.82990   0.61771   0.00000  Uiso   1.00
O1315  O     0.69945   0.86164   0.90111   0.00000  Uiso   1.00
H1316  H     0.69855   0.83677   0.88229   0.00000  Uiso   1.00
O1317  O     0.67766   0.88144   0.99580   0.00000  Uiso   1.00
H1318  H     0.99050   0.88656   0.97794   0.00000  Uiso   1.00
O1319  O     0.98901   0.78522   0.50421   0.00000  Uiso   1.00
H1320  H     0.67618   0.78012   0.52206   0.00000  Uiso   1.00
N1321  N     0.75334   0.83112   0.60301   0.00000  Uiso   1.00
O1322  O     0.76390   0.79487   0.61546   0.00000  Uiso   1.00
O1323  O     0.71801   0.85403   0.63368   0.00000  Uiso   1.00
N1324  N     0.91333   0.83552   0.89699   0.00000  Uiso   1.00
O1325  O     0.94862   0.81258   0.86632   0.00000  Uiso   1.00
O1326  O     0.90280   0.87179   0.88454   0.00000  Uiso   1.00
N1327  N     0.97072   0.76291   0.71487   0.00000  Uiso   1.00
O1328  O     0.98128   0.72602   0.72579   0.00000  Uiso   1.00
O1329  O     0.95925   0.76633   0.67893   0.00000  Uiso   1.00
N1330  N     0.69595   0.90376   0.78512   0.00000  Uiso   1.00
O1331  O     0.68543   0.94064   0.77417   0.00000  Uiso   1.00
O1332  O     0.70740   0.90035   0.82107   0.00000  Uiso   1.00
loop_
_geom_bond_atom_site_label_1
_geom_bond_atom_site_label_2
_geom_bond_distance
_geom_bond_site_symmetry_2
_ccdc_geom_bond_type
O1     C5      1.290   .     A
O1     Zn13    2.000   .     S
O2     Zn14    2.000   .     S
O2     C6      1.290   .     A
O3     C5      1.285   .     A
O3     Zn14    1.987   .     S
O4     C6      1.285   .     A
O4     Zn13    1.987   .     S
C5     C46     1.415   .     S
C6     C45     1.415   .     S
O7     Zn13    1.960   .     S
O7     C11     1.299   .     A
O8     C12     1.299   .     A
O8     Zn14    1.960   .     S
O9     Zn14    1.887   .     S
O9     C11     1.305   .     A
O10    C12     1.305   .     A
O10    Zn13    1.887   .     S
C11    C15     1.475   .     S
C12    C16     1.475   .     S
Zn13   N53     2.023   .     S
Zn14   N54     2.023   .     S
C15    C21     1.390   .     A
C15    C19     1.417   .     A
C16    C20     1.417   .     A
C16    C22     1.390   .     A
C17    C25     1.412   .     A
C17    C19     1.414   .     A
C17    O59     1.385   .     S
C18    O61     1.385   .     S
C18    C20     1.414   .     A
C18    C26     1.412   .     A
C19    O57     1.375   .     S
C20    O55     1.375   .     S
C21    H36     1.079   .     S
C21    C23     1.393   .     A
C22    H35     1.079   .     S
C22    C24     1.393   .     A
C23    C27     1.422   .     A
C23    C25     1.413   .     A
C24    C28     1.422   .     A
C24    C26     1.413   .     A
C25    C697    1.394   .     S
C26    C698    1.394   1_554 S
C27    C30     1.430   .     A
C27    C694    1.422   .     S
C28    C29     1.430   .     A
C28    C693    1.422   1_554 S
C29    N63     1.438   .     S
C29    C31     1.393   .     A
C30    N66     1.438   .     S
C30    C32     1.393   .     A
C31    H33     1.082   .     S
C31    C691    1.394   1_554 S
C32    H34     1.082   .     S
C32    C692    1.394   .     S
C37    H39     1.084   .     S
C37    C46     1.398   .     A
C37    C263    1.371   .     S
C38    H40     1.084   .     S
C38    C45     1.398   .     A
C38    C486    1.371   1_545 S
C41    H43     1.084   .     S
C41    C45     1.394   .     A
C41    C481    1.371   1_545 S
C42    H44     1.084   .     S
C42    C46     1.394   .     A
C42    C260    1.371   .     S
C47    N54     1.382   .     A
C47    N69     1.429   .     S
C47    C123    1.418   .     S
C48    N53     1.382   .     A
C48    N72     1.429   .     S
C48    C198    1.418   1_455 S
C49    N53     1.358   .     A
C49    H51     1.082   .     S
C49    C195    1.418   1_455 S
C50    N54     1.358   .     A
C50    H52     1.082   .     S
C50    C122    1.418   .     S
O55    H56     0.990   .     S
O57    H58     0.990   .     S
O59    H208    0.989   1_455 S
H60    O133    0.989   .     S
O61    H136    0.989   .     S
H62    O209    0.989   1_455 S
N63    O65     1.302   .     A
N63    O64     1.302   .     A
N66    O67     1.302   .     A
N66    O68     1.302   .     A
N69    O70     1.301   .     A
N69    O71     1.298   .     A
N72    O74     1.298   .     A
N72    O73     1.301   .     A
O75    C79     1.290   .     A
O75    Zn87    2.000   .     S
O76    Zn88    2.000   .     S
O76    C80     1.290   .     A
O77    C79     1.285   .     A
O77    Zn88    1.987   .     S
O78    C80     1.285   .     A
O78    Zn87    1.987   .     S
C79    C120    1.415   .     S
C80    C119    1.415   .     S
O81    Zn87    1.960   .     S
O81    C85     1.299   .     A
O82    C86     1.299   .     A
O82    Zn88    1.960   .     S
O83    Zn88    1.887   .     S
O83    C85     1.305   .     A
O84    C86     1.305   .     A
O84    Zn87    1.887   .     S
C85    C89     1.475   .     S
C86    C90     1.475   .     S
Zn87   N127    2.023   .     S
Zn88   N128    2.023   .     S
C89    C95     1.390   .     A
C89    C93     1.417   .     A
C90    C94     1.417   .     A
C90    C96     1.390   .     A
C91    C99     1.412   .     A
C91    C93     1.414   .     A
C91    O133    1.385   .     S
C92    O135    1.385   .     S
C92    C94     1.414   .     A
C92    C100    1.412   .     A
C93    O131    1.375   .     S
C94    O129    1.375   .     S
C95    H110    1.079   .     S
C95    C97     1.393   .     A
C96    H109    1.079   .     S
C96    C98     1.393   .     A
C97    C101    1.422   .     A
C97    C99     1.413   .     A
C98    C102    1.422   .     A
C98    C100    1.413   .     A
C99    C771    1.394   .     S
C100   C772    1.394   1_554 S
C101   C104    1.430   .     A
C101   C768    1.422   .     S
C102   C103    1.430   .     A
C102   C767    1.422   1_554 S
C103   N137    1.438   .     S
C103   C105    1.393   .     A
C104   N140    1.438   .     S
C104   C106    1.393   .     A
C105   H107    1.082   .     S
C105   C765    1.394   1_554 S
C106   H108    1.082   .     S
C106   C766    1.394   .     S
C111   H113    1.084   .     S
C111   C120    1.398   .     A
C111   C337    1.371   .     S
C112   H114    1.084   .     S
C112   C119    1.398   .     A
C112   C560    1.371   1_545 S
C115   H117    1.084   .     S
C115   C119    1.394   .     A
C115   C555    1.371   1_545 S
C116   H118    1.084   .     S
C116   C120    1.394   .     A
C116   C334    1.371   .     S
C121   N128    1.382   .     A
C121   N143    1.429   .     S
C121   C197    1.418   .     S
C122   N127    1.382   .     A
C122   N146    1.429   .     S
C123   N127    1.358   .     A
C123   H125    1.082   .     S
C124   N128    1.358   .     A
C124   H126    1.082   .     S
C124   C196    1.418   .     S
O129   H130    0.990   .     S
O131   H132    0.990   .     S
H134   O207    0.989   .     S
O135   H210    0.989   .     S
N137   O139    1.302   .     A
N137   O138    1.302   .     A
N140   O141    1.302   .     A
N140   O142    1.302   .     A
N143   O144    1.301   .     A
N143   O145    1.298   .     A
N146   O148    1.298   .     A
N146   O147    1.301   .     A
O149   C153    1.290   .     A
O149   Zn161   2.000   .     S
O150   Zn162   2.000   .     S
O150   C154    1.290   .     A
O151   C153    1.285   .     A
O151   Zn162   1.987   .     S
O152   C154    1.285   .     A
O152   Zn161   1.987   .     S
C153   C194    1.415   .     S
C154   C193    1.415   .     S
O155   Zn161   1.960   .     S
O155   C159    1.299   .     A
O156   C160    1.299   .     A
O156   Zn162   1.960   .     S
O157   Zn162   1.887   .     S
O157   C159    1.305   .     A
O158   C160    1.305   .     A
O158   Zn161   1.887   .     S
C159   C163    1.475   .     S
C160   C164    1.475   .     S
Zn161  N201    2.023   .     S
Zn162  N202    2.023   .     S
C163   C169    1.390   .     A
C163   C167    1.417   .     A
C164   C168    1.417   .     A
C164   C170    1.390   .     A
C165   C173    1.412   .     A
C165   C167    1.414   .     A
C165   O207    1.385   .     S
C166   O209    1.385   .     S
C166   C168    1.414   .     A
C166   C174    1.412   .     A
C167   O205    1.375   .     S
C168   O203    1.375   .     S
C169   H184    1.079   .     S
C169   C171    1.393   .     A
C170   H183    1.079   .     S
C170   C172    1.393   .     A
C171   C175    1.422   .     A
C171   C173    1.413   .     A
C172   C176    1.422   .     A
C172   C174    1.413   .     A
C173   C845    1.394   .     S
C174   C846    1.394   1_554 S
C175   C178    1.430   .     A
C175   C842    1.422   .     S
C176   C177    1.430   .     A
C176   C841    1.422   1_554 S
C177   N211    1.438   .     S
C177   C179    1.393   .     A
C178   N214    1.438   .     S
C178   C180    1.393   .     A
C179   H181    1.082   .     S
C179   C839    1.394   1_554 S
C180   H182    1.082   .     S
C180   C840    1.394   .     S
C185   H187    1.084   .     S
C185   C194    1.398   .     A
C185   C411    1.371   .     S
C186   H188    1.084   .     S
C186   C193    1.398   .     A
C186   C634    1.371   1_545 S
C189   H191    1.084   .     S
C189   C193    1.394   .     A
C189   C629    1.371   1_545 S
C190   H192    1.084   .     S
C190   C194    1.394   .     A
C190   C408    1.371   .     S
C195   N202    1.382   .     A
C195   N217    1.429   .     S
C195   C49     1.418   1_655 S
C196   N201    1.382   .     A
C196   N220    1.429   .     S
C197   N201    1.358   .     A
C197   H199    1.082   .     S
C198   N202    1.358   .     A
C198   H200    1.082   .     S
C198   C48     1.418   1_655 S
O203   H204    0.990   .     S
O205   H206    0.990   .     S
H208   O59     0.989   1_655 S
O209   H62     0.989   1_655 S
N211   O213    1.302   .     A
N211   O212    1.302   .     A
N214   O215    1.302   .     A
N214   O216    1.302   .     A
N217   O218    1.301   .     A
N217   O219    1.298   .     A
N220   O222    1.298   .     A
N220   O221    1.301   .     A
O223   C227    1.290   .     A
O223   Zn235   2.000   .     S
O224   Zn236   2.000   .     S
O224   C228    1.290   .     A
O225   C227    1.285   .     A
O225   Zn236   1.987   .     S
O226   C228    1.285   .     A
O226   Zn235   1.987   .     S
C227   C268    1.415   .     S
C228   C267    1.415   .     S
O229   Zn235   1.960   .     S
O229   C233    1.299   .     A
O230   C234    1.299   .     A
O230   Zn236   1.960   .     S
O231   Zn236   1.887   .     S
O231   C233    1.305   .     A
O232   C234    1.305   .     A
O232   Zn235   1.887   .     S
C233   C237    1.475   .     S
C234   C238    1.475   .     S
Zn235  N275    2.023   .     S
Zn236  N276    2.023   .     S
C237   C243    1.390   .     A
C237   C241    1.417   .     A
C238   C242    1.417   .     A
C238   C244    1.390   .     A
C239   C247    1.412   .     A
C239   C241    1.414   .     A
C239   O281    1.385   .     S
C240   O283    1.385   .     S
C240   C242    1.414   .     A
C240   C248    1.412   .     A
C241   O279    1.375   .     S
C242   O277    1.375   .     S
C243   H258    1.079   .     S
C243   C245    1.393   .     A
C244   H257    1.079   .     S
C244   C246    1.393   .     A
C245   C249    1.422   .     A
C245   C247    1.413   .     A
C246   C250    1.422   .     A
C246   C248    1.413   .     A
C247   C919    1.394   .     S
C248   C920    1.394   1_554 S
C249   C252    1.430   .     A
C249   C916    1.422   .     S
C250   C251    1.430   .     A
C250   C915    1.422   1_554 S
C251   N285    1.438   .     S
C251   C253    1.393   .     A
C252   N288    1.438   .     S
C252   C254    1.393   .     A
C253   H255    1.082   .     S
C253   C913    1.394   1_554 S
C254   H256    1.082   .     S
C254   C914    1.394   .     S
C259   H261    1.084   .     S
C259   C268    1.398   .     A
C259   C485    1.371   .     S
C260   H262    1.084   .     S
C260   C267    1.398   .     A
C263   H265    1.084   .     S
C263   C267    1.394   .     A
C264   H266    1.084   .     S
C264   C268    1.394   .     A
C264   C482    1.371   .     S
C269   N276    1.382   .     A
C269   N291    1.429   .     S
C269   C345    1.418   .     S
C270   N275    1.382   .     A
C270   N294    1.429   .     S
C270   C420    1.418   1_455 S
C271   N275    1.358   .     A
C271   H273    1.082   .     S
C271   C417    1.418   1_455 S
C272   N276    1.358   .     A
C272   H274    1.082   .     S
C272   C344    1.418   .     S
O277   H278    0.990   .     S
O279   H280    0.990   .     S
O281   H430    0.989   1_455 S
H282   O355    0.989   .     S
O283   H358    0.989   .     S
H284   O431    0.989   1_455 S
N285   O287    1.302   .     A
N285   O286    1.302   .     A
N288   O289    1.302   .     A
N288   O290    1.302   .     A
N291   O292    1.301   .     A
N291   O293    1.298   .     A
N294   O296    1.298   .     A
N294   O295    1.301   .     A
O297   C301    1.290   .     A
O297   Zn309   2.000   .     S
O298   Zn310   2.000   .     S
O298   C302    1.290   .     A
O299   C301    1.285   .     A
O299   Zn310   1.987   .     S
O300   C302    1.285   .     A
O300   Zn309   1.987   .     S
C301   C342    1.415   .     S
C302   C341    1.415   .     S
O303   Zn309   1.960   .     S
O303   C307    1.299   .     A
O304   C308    1.299   .     A
O304   Zn310   1.960   .     S
O305   Zn310   1.887   .     S
O305   C307    1.305   .     A
O306   C308    1.305   .     A
O306   Zn309   1.887   .     S
C307   C311    1.475   .     S
C308   C312    1.475   .     S
Zn309  N349    2.023   .     S
Zn310  N350    2.023   .     S
C311   C317    1.390   .     A
C311   C315    1.417   .     A
C312   C316    1.417   .     A
C312   C318    1.390   .     A
C313   C321    1.412   .     A
C313   C315    1.414   .     A
C313   O355    1.385   .     S
C314   O357    1.385   .     S
C314   C316    1.414   .     A
C314   C322    1.412   .     A
C315   O353    1.375   .     S
C316   O351    1.375   .     S
C317   H332    1.079   .     S
C317   C319    1.393   .     A
C318   H331    1.079   .     S
C318   C320    1.393   .     A
C319   C323    1.422   .     A
C319   C321    1.413   .     A
C320   C324    1.422   .     A
C320   C322    1.413   .     A
C321   C993    1.394   .     S
C322   C994    1.394   1_554 S
C323   C326    1.430   .     A
C323   C990    1.422   .     S
C324   C325    1.430   .     A
C324   C989    1.422   1_554 S
C325   N359    1.438   .     S
C325   C327    1.393   .     A
C326   N362    1.438   .     S
C326   C328    1.393   .     A
C327   H329    1.082   .     S
C327   C987    1.394   1_554 S
C328   H330    1.082   .     S
C328   C988    1.394   .     S
C333   H335    1.084   .     S
C333   C342    1.398   .     A
C333   C559    1.371   .     S
C334   H336    1.084   .     S
C334   C341    1.398   .     A
C337   H339    1.084   .     S
C337   C341    1.394   .     A
C338   H340    1.084   .     S
C338   C342    1.394   .     A
C338   C556    1.371   .     S
C343   N350    1.382   .     A
C343   N365    1.429   .     S
C343   C419    1.418   .     S
C344   N349    1.382   .     A
C344   N368    1.429   .     S
C345   N349    1.358   .     A
C345   H347    1.082   .     S
C346   N350    1.358   .     A
C346   H348    1.082   .     S
C346   C418    1.418   .     S
O351   H352    0.990   .     S
O353   H354    0.990   .     S
H356   O429    0.989   .     S
O357   H432    0.989   .     S
N359   O361    1.302   .     A
N359   O360    1.302   .     A
N362   O363    1.302   .     A
N362   O364    1.302   .     A
N365   O366    1.301   .     A
N365   O367    1.298   .     A
N368   O370    1.298   .     A
N368   O369    1.301   .     A
O371   C375    1.290   .     A
O371   Zn383   2.000   .     S
O372   Zn384   2.000   .     S
O372   C376    1.290   .     A
O373   C375    1.285   .     A
O373   Zn384   1.987   .     S
O374   C376    1.285   .     A
O374   Zn383   1.987   .     S
C375   C416    1.415   .     S
C376   C415    1.415   .     S
O377   Zn383   1.960   .     S
O377   C381    1.299   .     A
O378   C382    1.299   .     A
O378   Zn384   1.960   .     S
O379   Zn384   1.887   .     S
O379   C381    1.305   .     A
O380   C382    1.305   .     A
O380   Zn383   1.887   .     S
C381   C385    1.475   .     S
C382   C386    1.475   .     S
Zn383  N423    2.023   .     S
Zn384  N424    2.023   .     S
C385   C391    1.390   .     A
C385   C389    1.417   .     A
C386   C390    1.417   .     A
C386   C392    1.390   .     A
C387   C395    1.412   .     A
C387   C389    1.414   .     A
C387   O429    1.385   .     S
C388   O431    1.385   .     S
C388   C390    1.414   .     A
C388   C396    1.412   .     A
C389   O427    1.375   .     S
C390   O425    1.375   .     S
C391   H406    1.079   .     S
C391   C393    1.393   .     A
C392   H405    1.079   .     S
C392   C394    1.393   .     A
C393   C397    1.422   .     A
C393   C395    1.413   .     A
C394   C398    1.422   .     A
C394   C396    1.413   .     A
C395   C1067   1.394   .     S
C396   C1068   1.394   1_554 S
C397   C400    1.430   .     A
C397   C1064   1.422   .     S
C398   C399    1.430   .     A
C398   C1063   1.422   1_554 S
C399   N433    1.438   .     S
C399   C401    1.393   .     A
C400   N436    1.438   .     S
C400   C402    1.393   .     A
C401   H403    1.082   .     S
C401   C1061   1.394   1_554 S
C402   H404    1.082   .     S
C402   C1062   1.394   .     S
C407   H409    1.084   .     S
C407   C416    1.398   .     A
C407   C633    1.371   .     S
C408   H410    1.084   .     S
C408   C415    1.398   .     A
C411   H413    1.084   .     S
C411   C415    1.394   .     A
C412   H414    1.084   .     S
C412   C416    1.394   .     A
C412   C630    1.371   .     S
C417   N424    1.382   .     A
C417   N439    1.429   .     S
C417   C271    1.418   1_655 S
C418   N423    1.382   .     A
C418   N442    1.429   .     S
C419   N423    1.358   .     A
C419   H421    1.082   .     S
C420   N424    1.358   .     A
C420   H422    1.082   .     S
C420   C270    1.418   1_655 S
O425   H426    0.990   .     S
O427   H428    0.990   .     S
H430   O281    0.989   1_655 S
O431   H284    0.989   1_655 S
N433   O435    1.302   .     A
N433   O434    1.302   .     A
N436   O437    1.302   .     A
N436   O438    1.302   .     A
N439   O440    1.301   .     A
N439   O441    1.298   .     A
N442   O444    1.298   .     A
N442   O443    1.301   .     A
O445   C449    1.290   .     A
O445   Zn457   2.000   .     S
O446   Zn458   2.000   .     S
O446   C450    1.290   .     A
O447   C449    1.285   .     A
O447   Zn458   1.987   .     S
O448   C450    1.285   .     A
O448   Zn457   1.987   .     S
C449   C490    1.415   .     S
C450   C489    1.415   .     S
O451   Zn457   1.960   .     S
O451   C455    1.299   .     A
O452   C456    1.299   .     A
O452   Zn458   1.960   .     S
O453   Zn458   1.887   .     S
O453   C455    1.305   .     A
O454   C456    1.305   .     A
O454   Zn457   1.887   .     S
C455   C459    1.475   .     S
C456   C460    1.475   .     S
Zn457  N497    2.023   .     S
Zn458  N498    2.023   .     S
C459   C465    1.390   .     A
C459   C463    1.417   .     A
C460   C464    1.417   .     A
C460   C466    1.390   .     A
C461   C469    1.412   .     A
C461   C463    1.414   .     A
C461   O503    1.385   .     S
C462   O505    1.385   .     S
C462   C464    1.414   .     A
C462   C470    1.412   .     A
C463   O501    1.375   .     S
C464   O499    1.375   .     S
C465   H480    1.079   .     S
C465   C467    1.393   .     A
C466   H479    1.079   .     S
C466   C468    1.393   .     A
C467   C471    1.422   .     A
C467   C469    1.413   .     A
C468   C472    1.422   .     A
C468   C470    1.413   .     A
C469   C1141   1.394   .     S
C470   C1142   1.394   1_554 S
C471   C474    1.430   .     A
C471   C1138   1.422   .     S
C472   C473    1.430   .     A
C472   C1137   1.422   1_554 S
C473   N507    1.438   .     S
C473   C475    1.393   .     A
C474   N510    1.438   .     S
C474   C476    1.393   .     A
C475   H477    1.082   .     S
C475   C1135   1.394   1_554 S
C476   H478    1.082   .     S
C476   C1136   1.394   .     S
C481   H483    1.084   .     S
C481   C490    1.398   .     A
C481   C41     1.371   1_565 S
C482   H484    1.084   .     S
C482   C489    1.398   .     A
C485   H487    1.084   .     S
C485   C489    1.394   .     A
C486   H488    1.084   .     S
C486   C490    1.394   .     A
C486   C38     1.371   1_565 S
C491   N498    1.382   .     A
C491   N513    1.429   .     S
C491   C567    1.418   .     S
C492   N497    1.382   .     A
C492   N516    1.429   .     S
C492   C642    1.418   1_455 S
C493   N497    1.358   .     A
C493   H495    1.082   .     S
C493   C639    1.418   1_455 S
C494   N498    1.358   .     A
C494   H496    1.082   .     S
C494   C566    1.418   .     S
O499   H500    0.990   .     S
O501   H502    0.990   .     S
O503   H652    0.989   1_455 S
H504   O577    0.989   .     S
O505   H580    0.989   .     S
H506   O653    0.989   1_455 S
N507   O509    1.302   .     A
N507   O508    1.302   .     A
N510   O511    1.302   .     A
N510   O512    1.302   .     A
N513   O514    1.301   .     A
N513   O515    1.298   .     A
N516   O518    1.298   .     A
N516   O517    1.301   .     A
O519   C523    1.290   .     A
O519   Zn531   2.000   .     S
O520   Zn532   2.000   .     S
O520   C524    1.290   .     A
O521   C523    1.285   .     A
O521   Zn532   1.987   .     S
O522   C524    1.285   .     A
O522   Zn531   1.987   .     S
C523   C564    1.415   .     S
C524   C563    1.415   .     S
O525   Zn531   1.960   .     S
O525   C529    1.299   .     A
O526   C530    1.299   .     A
O526   Zn532   1.960   .     S
O527   Zn532   1.887   .     S
O527   C529    1.305   .     A
O528   C530    1.305   .     A
O528   Zn531   1.887   .     S
C529   C533    1.475   .     S
C530   C534    1.475   .     S
Zn531  N571    2.023   .     S
Zn532  N572    2.023   .     S
C533   C539    1.390   .     A
C533   C537    1.417   .     A
C534   C538    1.417   .     A
C534   C540    1.390   .     A
C535   C543    1.412   .     A
C535   C537    1.414   .     A
C535   O577    1.385   .     S
C536   O579    1.385   .     S
C536   C538    1.414   .     A
C536   C544    1.412   .     A
C537   O575    1.375   .     S
C538   O573    1.375   .     S
C539   H554    1.079   .     S
C539   C541    1.393   .     A
C540   H553    1.079   .     S
C540   C542    1.393   .     A
C541   C545    1.422   .     A
C541   C543    1.413   .     A
C542   C546    1.422   .     A
C542   C544    1.413   .     A
C543   C1215   1.394   .     S
C544   C1216   1.394   1_554 S
C545   C548    1.430   .     A
C545   C1212   1.422   .     S
C546   C547    1.430   .     A
C546   C1211   1.422   1_554 S
C547   N581    1.438   .     S
C547   C549    1.393   .     A
C548   N584    1.438   .     S
C548   C550    1.393   .     A
C549   H551    1.082   .     S
C549   C1209   1.394   1_554 S
C550   H552    1.082   .     S
C550   C1210   1.394   .     S
C555   H557    1.084   .     S
C555   C564    1.398   .     A
C555   C115    1.371   1_565 S
C556   H558    1.084   .     S
C556   C563    1.398   .     A
C559   H561    1.084   .     S
C559   C563    1.394   .     A
C560   H562    1.084   .     S
C560   C564    1.394   .     A
C560   C112    1.371   1_565 S
C565   N572    1.382   .     A
C565   N587    1.429   .     S
C565   C641    1.418   .     S
C566   N571    1.382   .     A
C566   N590    1.429   .     S
C567   N571    1.358   .     A
C567   H569    1.082   .     S
C568   N572    1.358   .     A
C568   H570    1.082   .     S
C568   C640    1.418   .     S
O573   H574    0.990   .     S
O575   H576    0.990   .     S
H578   O651    0.989   .     S
O579   H654    0.989   .     S
N581   O583    1.302   .     A
N581   O582    1.302   .     A
N584   O585    1.302   .     A
N584   O586    1.302   .     A
N587   O588    1.301   .     A
N587   O589    1.298   .     A
N590   O592    1.298   .     A
N590   O591    1.301   .     A
O593   C597    1.290   .     A
O593   Zn605   2.000   .     S
O594   Zn606   2.000   .     S
O594   C598    1.290   .     A
O595   C597    1.285   .     A
O595   Zn606   1.987   .     S
O596   C598    1.285   .     A
O596   Zn605   1.987   .     S
C597   C638    1.415   .     S
C598   C637    1.415   .     S
O599   Zn605   1.960   .     S
O599   C603    1.299   .     A
O600   C604    1.299   .     A
O600   Zn606   1.960   .     S
O601   Zn606   1.887   .     S
O601   C603    1.305   .     A
O602   C604    1.305   .     A
O602   Zn605   1.887   .     S
C603   C607    1.475   .     S
C604   C608    1.475   .     S
Zn605  N645    2.023   .     S
Zn606  N646    2.023   .     S
C607   C613    1.390   .     A
C607   C611    1.417   .     A
C608   C612    1.417   .     A
C608   C614    1.390   .     A
C609   C617    1.412   .     A
C609   C611    1.414   .     A
C609   O651    1.385   .     S
C610   O653    1.385   .     S
C610   C612    1.414   .     A
C610   C618    1.412   .     A
C611   O649    1.375   .     S
C612   O647    1.375   .     S
C613   H628    1.079   .     S
C613   C615    1.393   .     A
C614   H627    1.079   .     S
C614   C616    1.393   .     A
C615   C619    1.422   .     A
C615   C617    1.413   .     A
C616   C620    1.422   .     A
C616   C618    1.413   .     A
C617   C1289   1.394   .     S
C618   C1290   1.394   1_554 S
C619   C622    1.430   .     A
C619   C1286   1.422   .     S
C620   C621    1.430   .     A
C620   C1285   1.422   1_554 S
C621   N655    1.438   .     S
C621   C623    1.393   .     A
C622   N658    1.438   .     S
C622   C624    1.393   .     A
C623   H625    1.082   .     S
C623   C1283   1.394   1_554 S
C624   H626    1.082   .     S
C624   C1284   1.394   .     S
C629   H631    1.084   .     S
C629   C638    1.398   .     A
C629   C189    1.371   1_565 S
C630   H632    1.084   .     S
C630   C637    1.398   .     A
C633   H635    1.084   .     S
C633   C637    1.394   .     A
C634   H636    1.084   .     S
C634   C638    1.394   .     A
C634   C186    1.371   1_565 S
C639   N646    1.382   .     A
C639   N661    1.429   .     S
C639   C493    1.418   1_655 S
C640   N645    1.382   .     A
C640   N664    1.429   .     S
C641   N645    1.358   .     A
C641   H643    1.082   .     S
C642   N646    1.358   .     A
C642   H644    1.082   .     S
C642   C492    1.418   1_655 S
O647   H648    0.990   .     S
O649   H650    0.990   .     S
H652   O503    0.989   1_655 S
O653   H506    0.989   1_655 S
N655   O657    1.302   .     A
N655   O656    1.302   .     A
N658   O659    1.302   .     A
N658   O660    1.302   .     A
N661   O662    1.301   .     A
N661   O663    1.298   .     A
N664   O666    1.298   .     A
N664   O665    1.301   .     A
O667   C671    1.290   .     A
O667   Zn679   2.000   .     S
O668   Zn680   2.000   .     S
O668   C672    1.290   .     A
O669   C671    1.285   .     A
O669   Zn680   1.987   .     S
O670   C672    1.285   .     A
O670   Zn679   1.987   .     S
C671   C712    1.415   .     S
C672   C711    1.415   .     S
O673   Zn679   1.960   .     S
O673   C677    1.299   .     A
O674   C678    1.299   .     A
O674   Zn680   1.960   .     S
O675   Zn680   1.887   .     S
O675   C677    1.305   .     A
O676   C678    1.305   .     A
O676   Zn679   1.887   .     S
C677   C681    1.475   .     S
C678   C682    1.475   .     S
Zn679  N719    2.023   .     S
Zn680  N720    2.023   .     S
C681   C687    1.390   .     A
C681   C685    1.417   .     A
C682   C686    1.417   .     A
C682   C688    1.390   .     A
C683   C691    1.412   .     A
C683   C685    1.414   .     A
C683   O725    1.385   .     S
C684   O727    1.385   .     S
C684   C686    1.414   .     A
C684   C692    1.412   .     A
C685   O723    1.375   .     S
C686   O721    1.375   .     S
C687   H702    1.079   .     S
C687   C689    1.393   .     A
C688   H701    1.079   .     S
C688   C690    1.393   .     A
C689   C693    1.422   .     A
C689   C691    1.413   .     A
C690   C694    1.422   .     A
C690   C692    1.413   .     A
C691   C31     1.394   1_556 S
C693   C696    1.430   .     A
C693   C28     1.422   1_556 S
C694   C695    1.430   .     A
C695   N729    1.438   .     S
C695   C697    1.393   .     A
C696   N732    1.438   .     S
C696   C698    1.393   .     A
C697   H699    1.082   .     S
C698   H700    1.082   .     S
C698   C26     1.394   1_556 S
C703   H705    1.084   .     S
C703   C712    1.398   .     A
C703   C929    1.371   .     S
C704   H706    1.084   .     S
C704   C711    1.398   .     A
C704   C1152   1.371   1_545 S
C707   H709    1.084   .     S
C707   C711    1.394   .     A
C707   C1147   1.371   1_545 S
C708   H710    1.084   .     S
C708   C712    1.394   .     A
C708   C926    1.371   .     S
C713   N720    1.382   .     A
C713   N735    1.429   .     S
C713   C789    1.418   .     S
C714   N719    1.382   .     A
C714   N738    1.429   .     S
C714   C864    1.418   1_455 S
C715   N719    1.358   .     A
C715   H717    1.082   .     S
C715   C861    1.418   1_455 S
C716   N720    1.358   .     A
C716   H718    1.082   .     S
C716   C788    1.418   .     S
O721   H722    0.990   .     S
O723   H724    0.990   .     S
O725   H874    0.989   1_455 S
H726   O799    0.989   .     S
O727   H802    0.989   .     S
H728   O875    0.989   1_455 S
N729   O731    1.302   .     A
N729   O730    1.302   .     A
N732   O733    1.302   .     A
N732   O734    1.302   .     A
N735   O736    1.301   .     A
N735   O737    1.298   .     A
N738   O740    1.298   .     A
N738   O739    1.301   .     A
O741   C745    1.290   .     A
O741   Zn753   2.000   .     S
O742   Zn754   2.000   .     S
O742   C746    1.290   .     A
O743   C745    1.285   .     A
O743   Zn754   1.987   .     S
O744   C746    1.285   .     A
O744   Zn753   1.987   .     S
C745   C786    1.415   .     S
C746   C785    1.415   .     S
O747   Zn753   1.960   .     S
O747   C751    1.299   .     A
O748   C752    1.299   .     A
O748   Zn754   1.960   .     S
O749   Zn754   1.887   .     S
O749   C751    1.305   .     A
O750   C752    1.305   .     A
O750   Zn753   1.887   .     S
C751   C755    1.475   .     S
C752   C756    1.475   .     S
Zn753  N793    2.023   .     S
Zn754  N794    2.023   .     S
C755   C761    1.390   .     A
C755   C759    1.417   .     A
C756   C760    1.417   .     A
C756   C762    1.390   .     A
C757   C765    1.412   .     A
C757   C759    1.414   .     A
C757   O799    1.385   .     S
C758   O801    1.385   .     S
C758   C760    1.414   .     A
C758   C766    1.412   .     A
C759   O797    1.375   .     S
C760   O795    1.375   .     S
C761   H776    1.079   .     S
C761   C763    1.393   .     A
C762   H775    1.079   .     S
C762   C764    1.393   .     A
C763   C767    1.422   .     A
C763   C765    1.413   .     A
C764   C768    1.422   .     A
C764   C766    1.413   .     A
C765   C105    1.394   1_556 S
C767   C770    1.430   .     A
C767   C102    1.422   1_556 S
C768   C769    1.430   .     A
C769   N803    1.438   .     S
C769   C771    1.393   .     A
C770   N806    1.438   .     S
C770   C772    1.393   .     A
C771   H773    1.082   .     S
C772   H774    1.082   .     S
C772   C100    1.394   1_556 S
C777   H779    1.084   .     S
C777   C786    1.398   .     A
C777   C1003   1.371   .     S
C778   H780    1.084   .     S
C778   C785    1.398   .     A
C778   C1226   1.371   1_545 S
C781   H783    1.084   .     S
C781   C785    1.394   .     A
C781   C1221   1.371   1_545 S
C782   H784    1.084   .     S
C782   C786    1.394   .     A
C782   C1000   1.371   .     S
C787   N794    1.382   .     A
C787   N809    1.429   .     S
C787   C863    1.418   .     S
C788   N793    1.382   .     A
C788   N812    1.429   .     S
C789   N793    1.358   .     A
C789   H791    1.082   .     S
C790   N794    1.358   .     A
C790   H792    1.082   .     S
C790   C862    1.418   .     S
O795   H796    0.990   .     S
O797   H798    0.990   .     S
H800   O873    0.989   .     S
O801   H876    0.989   .     S
N803   O805    1.302   .     A
N803   O804    1.302   .     A
N806   O807    1.302   .     A
N806   O808    1.302   .     A
N809   O810    1.301   .     A
N809   O811    1.298   .     A
N812   O814    1.298   .     A
N812   O813    1.301   .     A
O815   C819    1.290   .     A
O815   Zn827   2.000   .     S
O816   Zn828   2.000   .     S
O816   C820    1.290   .     A
O817   C819    1.285   .     A
O817   Zn828   1.987   .     S
O818   C820    1.285   .     A
O818   Zn827   1.987   .     S
C819   C860    1.415   .     S
C820   C859    1.415   .     S
O821   Zn827   1.960   .     S
O821   C825    1.299   .     A
O822   C826    1.299   .     A
O822   Zn828   1.960   .     S
O823   Zn828   1.887   .     S
O823   C825    1.305   .     A
O824   C826    1.305   .     A
O824   Zn827   1.887   .     S
C825   C829    1.475   .     S
C826   C830    1.475   .     S
Zn827  N867    2.023   .     S
Zn828  N868    2.023   .     S
C829   C835    1.390   .     A
C829   C833    1.417   .     A
C830   C834    1.417   .     A
C830   C836    1.390   .     A
C831   C839    1.412   .     A
C831   C833    1.414   .     A
C831   O873    1.385   .     S
C832   O875    1.385   .     S
C832   C834    1.414   .     A
C832   C840    1.412   .     A
C833   O871    1.375   .     S
C834   O869    1.375   .     S
C835   H850    1.079   .     S
C835   C837    1.393   .     A
C836   H849    1.079   .     S
C836   C838    1.393   .     A
C837   C841    1.422   .     A
C837   C839    1.413   .     A
C838   C842    1.422   .     A
C838   C840    1.413   .     A
C839   C179    1.394   1_556 S
C841   C844    1.430   .     A
C841   C176    1.422   1_556 S
C842   C843    1.430   .     A
C843   N877    1.438   .     S
C843   C845    1.393   .     A
C844   N880    1.438   .     S
C844   C846    1.393   .     A
C845   H847    1.082   .     S
C846   H848    1.082   .     S
C846   C174    1.394   1_556 S
C851   H853    1.084   .     S
C851   C860    1.398   .     A
C851   C1077   1.371   .     S
C852   H854    1.084   .     S
C852   C859    1.398   .     A
C852   C1300   1.371   1_545 S
C855   H857    1.084   .     S
C855   C859    1.394   .     A
C855   C1295   1.371   1_545 S
C856   H858    1.084   .     S
C856   C860    1.394   .     A
C856   C1074   1.371   .     S
C861   N868    1.382   .     A
C861   N883    1.429   .     S
C861   C715    1.418   1_655 S
C862   N867    1.382   .     A
C862   N886    1.429   .     S
C863   N867    1.358   .     A
C863   H865    1.082   .     S
C864   N868    1.358   .     A
C864   H866    1.082   .     S
C864   C714    1.418   1_655 S
O869   H870    0.990   .     S
O871   H872    0.990   .     S
H874   O725    0.989   1_655 S
O875   H728    0.989   1_655 S
N877   O879    1.302   .     A
N877   O878    1.302   .     A
N880   O881    1.302   .     A
N880   O882    1.302   .     A
N883   O884    1.301   .     A
N883   O885    1.298   .     A
N886   O888    1.298   .     A
N886   O887    1.301   .     A
O889   C893    1.290   .     A
O889   Zn901   2.000   .     S
O890   Zn902   2.000   .     S
O890   C894    1.290   .     A
O891   C893    1.285   .     A
O891   Zn902   1.987   .     S
O892   C894    1.285   .     A
O892   Zn901   1.987   .     S
C893   C934    1.415   .     S
C894   C933    1.415   .     S
O895   Zn901   1.960   .     S
O895   C899    1.299   .     A
O896   C900    1.299   .     A
O896   Zn902   1.960   .     S
O897   Zn902   1.887   .     S
O897   C899    1.305   .     A
O898   C900    1.305   .     A
O898   Zn901   1.887   .     S
C899   C903    1.475   .     S
C900   C904    1.475   .     S
Zn901  N941    2.023   .     S
Zn902  N942    2.023   .     S
C903   C909    1.390   .     A
C903   C907    1.417   .     A
C904   C908    1.417   .     A
C904   C910    1.390   .     A
C905   C913    1.412   .     A
C905   C907    1.414   .     A
C905   O947    1.385   .     S
C906   O949    1.385   .     S
C906   C908    1.414   .     A
C906   C914    1.412   .     A
C907   O945    1.375   .     S
C908   O943    1.375   .     S
C909   H924    1.079   .     S
C909   C911    1.393   .     A
C910   H923    1.079   .     S
C910   C912    1.393   .     A
C911   C915    1.422   .     A
C911   C913    1.413   .     A
C912   C916    1.422   .     A
C912   C914    1.413   .     A
C913   C253    1.394   1_556 S
C915   C918    1.430   .     A
C915   C250    1.422   1_556 S
C916   C917    1.430   .     A
C917   N951    1.438   .     S
C917   C919    1.393   .     A
C918   N954    1.438   .     S
C918   C920    1.393   .     A
C919   H921    1.082   .     S
C920   H922    1.082   .     S
C920   C248    1.394   1_556 S
C925   H927    1.084   .     S
C925   C934    1.398   .     A
C925   C1151   1.371   .     S
C926   H928    1.084   .     S
C926   C933    1.398   .     A
C929   H931    1.084   .     S
C929   C933    1.394   .     A
C930   H932    1.084   .     S
C930   C934    1.394   .     A
C930   C1148   1.371   .     S
C935   N942    1.382   .     A
C935   N957    1.429   .     S
C935   C1011   1.418   .     S
C936   N941    1.382   .     A
C936   N960    1.429   .     S
C936   C1086   1.418   1_455 S
C937   N941    1.358   .     A
C937   H939    1.082   .     S
C937   C1083   1.418   1_455 S
C938   N942    1.358   .     A
C938   H940    1.082   .     S
C938   C1010   1.418   .     S
O943   H944    0.990   .     S
O945   H946    0.990   .     S
O947   H1096   0.989   1_455 S
H948   O1021   0.989   .     S
O949   H1024   0.989   .     S
H950   O1097   0.989   1_455 S
N951   O953    1.302   .     A
N951   O952    1.302   .     A
N954   O955    1.302   .     A
N954   O956    1.302   .     A
N957   O958    1.301   .     A
N957   O959    1.298   .     A
N960   O962    1.298   .     A
N960   O961    1.301   .     A
O963   C967    1.290   .     A
O963   Zn975   2.000   .     S
O964   Zn976   2.000   .     S
O964   C968    1.290   .     A
O965   C967    1.285   .     A
O965   Zn976   1.987   .     S
O966   C968    1.285   .     A
O966   Zn975   1.987   .     S
C967   C1008   1.415   .     S
C968   C1007   1.415   .     S
O969   Zn975   1.960   .     S
O969   C973    1.299   .     A
O970   C974    1.299   .     A
O970   Zn976   1.960   .     S
O971   Zn976   1.887   .     S
O971   C973    1.305   .     A
O972   C974    1.305   .     A
O972   Zn975   1.887   .     S
C973   C977    1.475   .     S
C974   C978    1.475   .     S
Zn975  N1015   2.023   .     S
Zn976  N1016   2.023   .     S
C977   C983    1.390   .     A
C977   C981    1.417   .     A
C978   C982    1.417   .     A
C978   C984    1.390   .     A
C979   C987    1.412   .     A
C979   C981    1.414   .     A
C979   O1021   1.385   .     S
C980   O1023   1.385   .     S
C980   C982    1.414   .     A
C980   C988    1.412   .     A
C981   O1019   1.375   .     S
C982   O1017   1.375   .     S
C983   H998    1.079   .     S
C983   C985    1.393   .     A
C984   H997    1.079   .     S
C984   C986    1.393   .     A
C985   C989    1.422   .     A
C985   C987    1.413   .     A
C986   C990    1.422   .     A
C986   C988    1.413   .     A
C987   C327    1.394   1_556 S
C989   C992    1.430   .     A
C989   C324    1.422   1_556 S
C990   C991    1.430   .     A
C991   N1025   1.438   .     S
C991   C993    1.393   .     A
C992   N1028   1.438   .     S
C992   C994    1.393   .     A
C993   H995    1.082   .     S
C994   H996    1.082   .     S
C994   C322    1.394   1_556 S
C999   H1001   1.084   .     S
C999   C1008   1.398   .     A
C999   C1225   1.371   .     S
C1000  H1002   1.084   .     S
C1000  C1007   1.398   .     A
C1003  H1005   1.084   .     S
C1003  C1007   1.394   .     A
C1004  H1006   1.084   .     S
C1004  C1008   1.394   .     A
C1004  C1222   1.371   .     S
C1009  N1016   1.382   .     A
C1009  N1031   1.429   .     S
C1009  C1085   1.418   .     S
C1010  N1015   1.382   .     A
C1010  N1034   1.429   .     S
C1011  N1015   1.358   .     A
C1011  H1013   1.082   .     S
C1012  N1016   1.358   .     A
C1012  H1014   1.082   .     S
C1012  C1084   1.418   .     S
O1017  H1018   0.990   .     S
O1019  H1020   0.990   .     S
H1022  O1095   0.989   .     S
O1023  H1098   0.989   .     S
N1025  O1027   1.302   .     A
N1025  O1026   1.302   .     A
N1028  O1029   1.302   .     A
N1028  O1030   1.302   .     A
N1031  O1032   1.301   .     A
N1031  O1033   1.298   .     A
N1034  O1036   1.298   .     A
N1034  O1035   1.301   .     A
O1037  C1041   1.290   .     A
O1037  Zn1049  2.000   .     S
O1038  Zn1050  2.000   .     S
O1038  C1042   1.290   .     A
O1039  C1041   1.285   .     A
O1039  Zn1050  1.987   .     S
O1040  C1042   1.285   .     A
O1040  Zn1049  1.987   .     S
C1041  C1082   1.415   .     S
C1042  C1081   1.415   .     S
O1043  Zn1049  1.960   .     S
O1043  C1047   1.299   .     A
O1044  C1048   1.299   .     A
O1044  Zn1050  1.960   .     S
O1045  Zn1050  1.887   .     S
O1045  C1047   1.305   .     A
O1046  C1048   1.305   .     A
O1046  Zn1049  1.887   .     S
C1047  C1051   1.475   .     S
C1048  C1052   1.475   .     S
Zn1049 N1089   2.023   .     S
Zn1050 N1090   2.023   .     S
C1051  C1057   1.390   .     A
C1051  C1055   1.417   .     A
C1052  C1056   1.417   .     A
C1052  C1058   1.390   .     A
C1053  C1061   1.412   .     A
C1053  C1055   1.414   .     A
C1053  O1095   1.385   .     S
C1054  O1097   1.385   .     S
C1054  C1056   1.414   .     A
C1054  C1062   1.412   .     A
C1055  O1093   1.375   .     S
C1056  O1091   1.375   .     S
C1057  H1072   1.079   .     S
C1057  C1059   1.393   .     A
C1058  H1071   1.079   .     S
C1058  C1060   1.393   .     A
C1059  C1063   1.422   .     A
C1059  C1061   1.413   .     A
C1060  C1064   1.422   .     A
C1060  C1062   1.413   .     A
C1061  C401    1.394   1_556 S
C1063  C1066   1.430   .     A
C1063  C398    1.422   1_556 S
C1064  C1065   1.430   .     A
C1065  N1099   1.438   .     S
C1065  C1067   1.393   .     A
C1066  N1102   1.438   .     S
C1066  C1068   1.393   .     A
C1067  H1069   1.082   .     S
C1068  H1070   1.082   .     S
C1068  C396    1.394   1_556 S
C1073  H1075   1.084   .     S
C1073  C1082   1.398   .     A
C1073  C1299   1.371   .     S
C1074  H1076   1.084   .     S
C1074  C1081   1.398   .     A
C1077  H1079   1.084   .     S
C1077  C1081   1.394   .     A
C1078  H1080   1.084   .     S
C1078  C1082   1.394   .     A
C1078  C1296   1.371   .     S
C1083  N1090   1.382   .     A
C1083  N1105   1.429   .     S
C1083  C937    1.418   1_655 S
C1084  N1089   1.382   .     A
C1084  N1108   1.429   .     S
C1085  N1089   1.358   .     A
C1085  H1087   1.082   .     S
C1086  N1090   1.358   .     A
C1086  H1088   1.082   .     S
C1086  C936    1.418   1_655 S
O1091  H1092   0.990   .     S
O1093  H1094   0.990   .     S
H1096  O947    0.989   1_655 S
O1097  H950    0.989   1_655 S
N1099  O1101   1.302   .     A
N1099  O1100   1.302   .     A
N1102  O1103   1.302   .     A
N1102  O1104   1.302   .     A
N1105  O1106   1.301   .     A
N1105  O1107   1.298   .     A
N1108  O1110   1.298   .     A
N1108  O1109   1.301   .     A
O1111  C1115   1.290   .     A
O1111  Zn1123  2.000   .     S
O1112  Zn1124  2.000   .     S
O1112  C1116   1.290   .     A
O1113  C1115   1.285   .     A
O1113  Zn1124  1.987   .     S
O1114  C1116   1.285   .     A
O1114  Zn1123  1.987   .     S
C1115  C1156   1.415   .     S
C1116  C1155   1.415   .     S
O1117  Zn1123  1.960   .     S
O1117  C1121   1.299   .     A
O1118  C1122   1.299   .     A
O1118  Zn1124  1.960   .     S
O1119  Zn1124  1.887   .     S
O1119  C1121   1.305   .     A
O1120  C1122   1.305   .     A
O1120  Zn1123  1.887   .     S
C1121  C1125   1.475   .     S
C1122  C1126   1.475   .     S
Zn1123 N1163   2.023   .     S
Zn1124 N1164   2.023   .     S
C1125  C1131   1.390   .     A
C1125  C1129   1.417   .     A
C1126  C1130   1.417   .     A
C1126  C1132   1.390   .     A
C1127  C1135   1.412   .     A
C1127  C1129   1.414   .     A
C1127  O1169   1.385   .     S
C1128  O1171   1.385   .     S
C1128  C1130   1.414   .     A
C1128  C1136   1.412   .     A
C1129  O1167   1.375   .     S
C1130  O1165   1.375   .     S
C1131  H1146   1.079   .     S
C1131  C1133   1.393   .     A
C1132  H1145   1.079   .     S
C1132  C1134   1.393   .     A
C1133  C1137   1.422   .     A
C1133  C1135   1.413   .     A
C1134  C1138   1.422   .     A
C1134  C1136   1.413   .     A
C1135  C475    1.394   1_556 S
C1137  C1140   1.430   .     A
C1137  C472    1.422   1_556 S
C1138  C1139   1.430   .     A
C1139  N1173   1.438   .     S
C1139  C1141   1.393   .     A
C1140  N1176   1.438   .     S
C1140  C1142   1.393   .     A
C1141  H1143   1.082   .     S
C1142  H1144   1.082   .     S
C1142  C470    1.394   1_556 S
C1147  H1149   1.084   .     S
C1147  C1156   1.398   .     A
C1147  C707    1.371   1_565 S
C1148  H1150   1.084   .     S
C1148  C1155   1.398   .     A
C1151  H1153   1.084   .     S
C1151  C1155   1.394   .     A
C1152  H1154   1.084   .     S
C1152  C1156   1.394   .     A
C1152  C704    1.371   1_565 S
C1157  N1164   1.382   .     A
C1157  N1179   1.429   .     S
C1157  C1233   1.418   .     S
C1158  N1163   1.382   .     A
C1158  N1182   1.429   .     S
C1158  C1308   1.418   1_455 S
C1159  N1163   1.358   .     A
C1159  H1161   1.082   .     S
C1159  C1305   1.418   1_455 S
C1160  N1164   1.358   .     A
C1160  H1162   1.082   .     S
C1160  C1232   1.418   .     S
O1165  H1166   0.990   .     S
O1167  H1168   0.990   .     S
O1169  H1318   0.989   1_455 S
H1170  O1243   0.989   .     S
O1171  H1246   0.989   .     S
H1172  O1319   0.989   1_455 S
N1173  O1175   1.302   .     A
N1173  O1174   1.302   .     A
N1176  O1177   1.302   .     A
N1176  O1178   1.302   .     A
N1179  O1180   1.301   .     A
N1179  O1181   1.298   .     A
N1182  O1184   1.298   .     A
N1182  O1183   1.301   .     A
O1185  C1189   1.290   .     A
O1185  Zn1197  2.000   .     S
O1186  Zn1198  2.000   .     S
O1186  C1190   1.290   .     A
O1187  C1189   1.285   .     A
O1187  Zn1198  1.987   .     S
O1188  C1190   1.285   .     A
O1188  Zn1197  1.987   .     S
C1189  C1230   1.415   .     S
C1190  C1229   1.415   .     S
O1191  Zn1197  1.960   .     S
O1191  C1195   1.299   .     A
O1192  C1196   1.299   .     A
O1192  Zn1198  1.960   .     S
O1193  Zn1198  1.887   .     S
O1193  C1195   1.305   .     A
O1194  C1196   1.305   .     A
O1194  Zn1197  1.887   .     S
C1195  C1199   1.475   .     S
C1196  C1200   1.475   .     S
Zn1197 N1237   2.023   .     S
Zn1198 N1238   2.023   .     S
C1199  C1205   1.390   .     A
C1199  C1203   1.417   .     A
C1200  C1204   1.417   .     A
C1200  C1206   1.390   .     A
C1201  C1209   1.412   .     A
C1201  C1203   1.414   .     A
C1201  O1243   1.385   .     S
C1202  O1245   1.385   .     S
C1202  C1204   1.414   .     A
C1202  C1210   1.412   .     A
C1203  O1241   1.375   .     S
C1204  O1239   1.375   .     S
C1205  H1220   1.079   .     S
C1205  C1207   1.393   .     A
C1206  H1219   1.079   .     S
C1206  C1208   1.393   .     A
C1207  C1211   1.422   .     A
C1207  C1209   1.413   .     A
C1208  C1212   1.422   .     A
C1208  C1210   1.413   .     A
C1209  C549    1.394   1_556 S
C1211  C1214   1.430   .     A
C1211  C546    1.422   1_556 S
C1212  C1213   1.430   .     A
C1213  N1247   1.438   .     S
C1213  C1215   1.393   .     A
C1214  N1250   1.438   .     S
C1214  C1216   1.393   .     A
C1215  H1217   1.082   .     S
C1216  H1218   1.082   .     S
C1216  C544    1.394   1_556 S
C1221  H1223   1.084   .     S
C1221  C1230   1.398   .     A
C1221  C781    1.371   1_565 S
C1222  H1224   1.084   .     S
C1222  C1229   1.398   .     A
C1225  H1227   1.084   .     S
C1225  C1229   1.394   .     A
C1226  H1228   1.084   .     S
C1226  C1230   1.394   .     A
C1226  C778    1.371   1_565 S
C1231  N1238   1.382   .     A
C1231  N1253   1.429   .     S
C1231  C1307   1.418   .     S
C1232  N1237   1.382   .     A
C1232  N1256   1.429   .     S
C1233  N1237   1.358   .     A
C1233  H1235   1.082   .     S
C1234  N1238   1.358   .     A
C1234  H1236   1.082   .     S
C1234  C1306   1.418   .     S
O1239  H1240   0.990   .     S
O1241  H1242   0.990   .     S
H1244  O1317   0.989   .     S
O1245  H1320   0.989   .     S
N1247  O1249   1.302   .     A
N1247  O1248   1.302   .     A
N1250  O1251   1.302   .     A
N1250  O1252   1.302   .     A
N1253  O1254   1.301   .     A
N1253  O1255   1.298   .     A
N1256  O1258   1.298   .     A
N1256  O1257   1.301   .     A
O1259  C1263   1.290   .     A
O1259  Zn1271  2.000   .     S
O1260  Zn1272  2.000   .     S
O1260  C1264   1.290   .     A
O1261  C1263   1.285   .     A
O1261  Zn1272  1.987   .     S
O1262  C1264   1.285   .     A
O1262  Zn1271  1.987   .     S
C1263  C1304   1.415   .     S
C1264  C1303   1.415   .     S
O1265  Zn1271  1.960   .     S
O1265  C1269   1.299   .     A
O1266  C1270   1.299   .     A
O1266  Zn1272  1.960   .     S
O1267  Zn1272  1.887   .     S
O1267  C1269   1.305   .     A
O1268  C1270   1.305   .     A
O1268  Zn1271  1.887   .     S
C1269  C1273   1.475   .     S
C1270  C1274   1.475   .     S
Zn1271 N1311   2.023   .     S
Zn1272 N1312   2.023   .     S
C1273  C1279   1.390   .     A
C1273  C1277   1.417   .     A
C1274  C1278   1.417   .     A
C1274  C1280   1.390   .     A
C1275  C1283   1.412   .     A
C1275  C1277   1.414   .     A
C1275  O1317   1.385   .     S
C1276  O1319   1.385   .     S
C1276  C1278   1.414   .     A
C1276  C1284   1.412   .     A
C1277  O1315   1.375   .     S
C1278  O1313   1.375   .     S
C1279  H1294   1.079   .     S
C1279  C1281   1.393   .     A
C1280  H1293   1.079   .     S
C1280  C1282   1.393   .     A
C1281  C1285   1.422   .     A
C1281  C1283   1.413   .     A
C1282  C1286   1.422   .     A
C1282  C1284   1.413   .     A
C1283  C623    1.394   1_556 S
C1285  C1288   1.430   .     A
C1285  C620    1.422   1_556 S
C1286  C1287   1.430   .     A
C1287  N1321   1.438   .     S
C1287  C1289   1.393   .     A
C1288  N1324   1.438   .     S
C1288  C1290   1.393   .     A
C1289  H1291   1.082   .     S
C1290  H1292   1.082   .     S
C1290  C618    1.394   1_556 S
C1295  H1297   1.084   .     S
C1295  C1304   1.398   .     A
C1295  C855    1.371   1_565 S
C1296  H1298   1.084   .     S
C1296  C1303   1.398   .     A
C1299  H1301   1.084   .     S
C1299  C1303   1.394   .     A
C1300  H1302   1.084   .     S
C1300  C1304   1.394   .     A
C1300  C852    1.371   1_565 S
C1305  N1312   1.382   .     A
C1305  N1327   1.429   .     S
C1305  C1159   1.418   1_655 S
C1306  N1311   1.382   .     A
C1306  N1330   1.429   .     S
C1307  N1311   1.358   .     A
C1307  H1309   1.082   .     S
C1308  N1312   1.358   .     A
C1308  H1310   1.082   .     S
C1308  C1158   1.418   1_655 S
O1313  H1314   0.990   .     S
O1315  H1316   0.990   .     S
H1318  O1169   0.989   1_655 S
O1319  H1172   0.989   1_655 S
N1321  O1323   1.302   .     A
N1321  O1322   1.302   .     A
N1324  O1325   1.302   .     A
N1324  O1326   1.302   .     A
N1327  O1328   1.301   .     A
N1327  O1329   1.298   .     A
N1330  O1332   1.298   .     A
N1330  O1331   1.301   .     A
