data_str_m3_o10_o17_pcu_sym.17
_audit_creation_date              2020-01-03
_audit_creation_method            'Materials Studio'
_symmetry_space_group_name_H-M    'P1'
_symmetry_Int_Tables_number       1
_symmetry_cell_setting            triclinic
loop_
_symmetry_equiv_pos_as_xyz
  x,y,z
_cell_length_a                    24.1467
_cell_length_b                    26.6368
_cell_length_c                    30.3367
_cell_angle_alpha                 95.2649
_cell_angle_beta                  84.6007
_cell_angle_gamma                 92.0268
loop_
_atom_site_label
_atom_site_type_symbol
_atom_site_fract_x
_atom_site_fract_y
_atom_site_fract_z
_atom_site_U_iso_or_equiv
_atom_site_adp_type
_atom_site_occupancy
O1     O     0.12975   0.24619   0.25298   0.00000  Uiso   1.00
O2     O     0.20358   0.08714   0.24701   0.00000  Uiso   1.00
O3     O     0.22613   0.23721   0.24518   0.00000  Uiso   1.00
O4     O     0.10720   0.09613   0.25481   0.00000  Uiso   1.00
C5     C     0.18074   0.26395   0.24734   0.00000  Uiso   1.00
C6     C     0.15241   0.06925   0.25172   0.00000  Uiso   1.00
O7     O     0.11847   0.17117   0.31997   0.00000  Uiso   1.00
O8     O     0.21486   0.16216   0.18002   0.00000  Uiso   1.00
O9     O     0.21485   0.16219   0.31217   0.00000  Uiso   1.00
O10    O     0.11848   0.17115   0.18782   0.00000  Uiso   1.00
C11    C     0.16743   0.17094   0.33646   0.00000  Uiso   1.00
C12    C     0.16600   0.16293   0.16357   0.00000  Uiso   1.00
Zn13   Zn    0.10231   0.17266   0.25521   0.00000  Uiso   1.00
Zn14   Zn    0.23102   0.16067   0.24479   0.00000  Uiso   1.00
C15    C     0.13760   0.12332   0.08947   0.00000  Uiso   1.00
C16    C     0.19227   0.21459   0.41073   0.00000  Uiso   1.00
C17    C     0.16512   0.16208   0.11528   0.00000  Uiso   1.00
C18    C     0.16819   0.17332   0.38502   0.00000  Uiso   1.00
C19    C     0.19151   0.20264   0.09514   0.00000  Uiso   1.00
C20    C     0.14207   0.13294   0.40583   0.00000  Uiso   1.00
C21    C     0.19118   0.20584   0.04967   0.00000  Uiso   1.00
C22    C     0.13674   0.13363   0.45196   0.00000  Uiso   1.00
C23    C     0.16177   0.16951   0.02404   0.00000  Uiso   1.00
C24    C     0.16456   0.17149   0.47753   0.00000  Uiso   1.00
C25    C     0.13036   0.13075   0.04473   0.00000  Uiso   1.00
C26    C     0.19575   0.21062   0.45680   0.00000  Uiso   1.00
C27    C     0.22144   0.24431   0.02944   0.00000  Uiso   1.00
C28    C     0.10269   0.09766   0.47299   0.00000  Uiso   1.00
C29    C     0.22650   0.24566   0.48390   0.00000  Uiso   1.00
C30    C     0.09558   0.09880   0.01890   0.00000  Uiso   1.00
H31    H     0.24493   0.27247   0.04850   0.00000  Uiso   1.00
H32    H     0.07772   0.07054   0.45429   0.00000  Uiso   1.00
C33    C     0.18757   0.31687   0.24237   0.00000  Uiso   1.00
C34    C     0.14484   0.01634   0.25653   0.00000  Uiso   1.00
N35    N     0.31678   0.15265   0.23783   0.00000  Uiso   1.00
N36    N     0.01656   0.18068   0.26217   0.00000  Uiso   1.00
S37    S     0.13603   0.05993   0.10474   0.00000  Uiso   1.00
O38    O     0.07903   0.03543   0.10550   0.00000  Uiso   1.00
O39    O     0.17448   0.02945   0.07162   0.00000  Uiso   1.00
O40    O     0.15750   0.05788   0.15510   0.00000  Uiso   1.00
H41    H     0.14039   0.02634   0.16569   0.00000  Uiso   1.00
S42    S     0.20002   0.27554   0.39033   0.00000  Uiso   1.00
O43    O     0.16606   0.31215   0.42152   0.00000  Uiso   1.00
O44    O     0.25949   0.29441   0.38655   0.00000  Uiso   1.00
O45    O     0.17798   0.27489   0.34011   0.00000  Uiso   1.00
H46    H     0.19510   0.30603   0.32875   0.00000  Uiso   1.00
N47    N     0.22205   0.23941   0.12076   0.00000  Uiso   1.00
O48    O     0.27614   0.23929   0.11547   0.00000  Uiso   1.00
O49    O     0.19684   0.27964   0.13832   0.00000  Uiso   1.00
N50    N     0.12052   0.09089   0.37956   0.00000  Uiso   1.00
O51    O     0.06709   0.08415   0.37854   0.00000  Uiso   1.00
O52    O     0.15467   0.06165   0.35440   0.00000  Uiso   1.00
N53    N     0.27000   0.27785   0.46654   0.00000  Uiso   1.00
O54    O     0.31688   0.25811   0.45020   0.00000  Uiso   1.00
O55    O     0.26872   0.32609   0.47813   0.00000  Uiso   1.00
N56    N     0.04671   0.07435   0.03828   0.00000  Uiso   1.00
O57    O     0.01329   0.09975   0.06758   0.00000  Uiso   1.00
O58    O     0.03067   0.03006   0.02161   0.00000  Uiso   1.00
S59    S     0.25496   0.00012   0.21550   0.00000  Uiso   1.00
O60    O     0.24818   0.03145   0.17826   0.00000  Uiso   1.00
O61    O     0.28821   0.02980   0.24864   0.00000  Uiso   1.00
O62    O     0.29215   0.28413   0.19219   0.00000  Uiso   1.00
H63    H     0.31025   0.27042   0.21597   0.00000  Uiso   1.00
S64    S     0.07834   0.00104   0.28619   0.00000  Uiso   1.00
O65    O     0.04630   0.29641   0.25871   0.00000  Uiso   1.00
O66    O     0.08778   0.31385   0.32894   0.00000  Uiso   1.00
O67    O     0.03682   0.05050   0.29981   0.00000  Uiso   1.00
H68    H     0.00575   0.03782   0.31992   0.00000  Uiso   1.00
S69    S     0.00740   0.13579   0.18354   0.00000  Uiso   1.00
O70    O     0.29635   0.11111   0.15735   0.00000  Uiso   1.00
O71    O     0.02745   0.18188   0.16100   0.00000  Uiso   1.00
O72    O     0.05660   0.09332   0.18284   0.00000  Uiso   1.00
H73    H     0.03685   0.06266   0.19298   0.00000  Uiso   1.00
S74    S     0.32601   0.19956   0.31582   0.00000  Uiso   1.00
O75    O     0.28076   0.23592   0.31472   0.00000  Uiso   1.00
O76    O     0.30681   0.15432   0.34000   0.00000  Uiso   1.00
O77    O     0.04205   0.23002   0.34373   0.00000  Uiso   1.00
H78    H     0.03307   0.22297   0.37511   0.00000  Uiso   1.00
O79    O     0.46308   0.24619   0.25298   0.00000  Uiso   1.00
O80    O     0.53692   0.08714   0.24701   0.00000  Uiso   1.00
O81    O     0.55946   0.23721   0.24518   0.00000  Uiso   1.00
O82    O     0.44054   0.09613   0.25481   0.00000  Uiso   1.00
C83    C     0.51407   0.26395   0.24734   0.00000  Uiso   1.00
C84    C     0.48574   0.06925   0.25172   0.00000  Uiso   1.00
O85    O     0.45181   0.17117   0.31997   0.00000  Uiso   1.00
O86    O     0.54819   0.16216   0.18002   0.00000  Uiso   1.00
O87    O     0.54819   0.16219   0.31217   0.00000  Uiso   1.00
O88    O     0.45181   0.17115   0.18782   0.00000  Uiso   1.00
C89    C     0.50076   0.17094   0.33646   0.00000  Uiso   1.00
C90    C     0.49933   0.16293   0.16357   0.00000  Uiso   1.00
Zn91   Zn    0.43565   0.17266   0.25521   0.00000  Uiso   1.00
Zn92   Zn    0.56435   0.16067   0.24479   0.00000  Uiso   1.00
C93    C     0.47093   0.12332   0.08947   0.00000  Uiso   1.00
C94    C     0.52560   0.21459   0.41073   0.00000  Uiso   1.00
C95    C     0.49845   0.16208   0.11528   0.00000  Uiso   1.00
C96    C     0.50152   0.17332   0.38502   0.00000  Uiso   1.00
C97    C     0.52485   0.20264   0.09514   0.00000  Uiso   1.00
C98    C     0.47541   0.13294   0.40583   0.00000  Uiso   1.00
C99    C     0.52451   0.20584   0.04967   0.00000  Uiso   1.00
C100   C     0.47007   0.13363   0.45196   0.00000  Uiso   1.00
C101   C     0.49510   0.16951   0.02404   0.00000  Uiso   1.00
C102   C     0.49789   0.17149   0.47753   0.00000  Uiso   1.00
C103   C     0.46370   0.13075   0.04473   0.00000  Uiso   1.00
C104   C     0.52909   0.21062   0.45680   0.00000  Uiso   1.00
C105   C     0.55477   0.24431   0.02944   0.00000  Uiso   1.00
C106   C     0.43602   0.09766   0.47299   0.00000  Uiso   1.00
C107   C     0.55983   0.24566   0.48390   0.00000  Uiso   1.00
C108   C     0.42892   0.09880   0.01890   0.00000  Uiso   1.00
H109   H     0.57826   0.27247   0.04850   0.00000  Uiso   1.00
H110   H     0.41106   0.07054   0.45429   0.00000  Uiso   1.00
C111   C     0.52090   0.31687   0.24237   0.00000  Uiso   1.00
C112   C     0.47818   0.01634   0.25653   0.00000  Uiso   1.00
N113   N     0.65011   0.15265   0.23783   0.00000  Uiso   1.00
N114   N     0.34989   0.18068   0.26217   0.00000  Uiso   1.00
S115   S     0.46936   0.05993   0.10474   0.00000  Uiso   1.00
O116   O     0.41236   0.03543   0.10550   0.00000  Uiso   1.00
O117   O     0.50781   0.02945   0.07162   0.00000  Uiso   1.00
O118   O     0.49083   0.05788   0.15510   0.00000  Uiso   1.00
H119   H     0.47372   0.02634   0.16569   0.00000  Uiso   1.00
S120   S     0.53336   0.27554   0.39033   0.00000  Uiso   1.00
O121   O     0.49939   0.31215   0.42152   0.00000  Uiso   1.00
O122   O     0.59282   0.29441   0.38655   0.00000  Uiso   1.00
O123   O     0.51131   0.27489   0.34011   0.00000  Uiso   1.00
H124   H     0.52843   0.30603   0.32875   0.00000  Uiso   1.00
N125   N     0.55539   0.23941   0.12076   0.00000  Uiso   1.00
O126   O     0.60948   0.23929   0.11547   0.00000  Uiso   1.00
O127   O     0.53017   0.27964   0.13832   0.00000  Uiso   1.00
N128   N     0.45386   0.09089   0.37956   0.00000  Uiso   1.00
O129   O     0.40042   0.08415   0.37854   0.00000  Uiso   1.00
O130   O     0.48800   0.06165   0.35440   0.00000  Uiso   1.00
N131   N     0.60334   0.27785   0.46654   0.00000  Uiso   1.00
O132   O     0.65021   0.25811   0.45020   0.00000  Uiso   1.00
O133   O     0.60205   0.32609   0.47813   0.00000  Uiso   1.00
N134   N     0.38004   0.07435   0.03828   0.00000  Uiso   1.00
O135   O     0.34662   0.09975   0.06758   0.00000  Uiso   1.00
O136   O     0.36400   0.03006   0.02161   0.00000  Uiso   1.00
S137   S     0.58829   0.00012   0.21550   0.00000  Uiso   1.00
O138   O     0.58151   0.03145   0.17826   0.00000  Uiso   1.00
O139   O     0.62154   0.02980   0.24864   0.00000  Uiso   1.00
O140   O     0.62548   0.28413   0.19219   0.00000  Uiso   1.00
H141   H     0.64358   0.27042   0.21597   0.00000  Uiso   1.00
S142   S     0.41168   0.00104   0.28619   0.00000  Uiso   1.00
O143   O     0.37963   0.29641   0.25871   0.00000  Uiso   1.00
O144   O     0.42112   0.31385   0.32894   0.00000  Uiso   1.00
O145   O     0.37016   0.05050   0.29981   0.00000  Uiso   1.00
H146   H     0.33908   0.03782   0.31992   0.00000  Uiso   1.00
S147   S     0.34074   0.13579   0.18354   0.00000  Uiso   1.00
O148   O     0.62968   0.11111   0.15735   0.00000  Uiso   1.00
O149   O     0.36079   0.18188   0.16100   0.00000  Uiso   1.00
O150   O     0.38994   0.09332   0.18284   0.00000  Uiso   1.00
H151   H     0.37019   0.06266   0.19298   0.00000  Uiso   1.00
S152   S     0.65935   0.19956   0.31582   0.00000  Uiso   1.00
O153   O     0.61410   0.23592   0.31472   0.00000  Uiso   1.00
O154   O     0.64015   0.15432   0.34000   0.00000  Uiso   1.00
O155   O     0.37538   0.23002   0.34373   0.00000  Uiso   1.00
H156   H     0.36641   0.22297   0.37511   0.00000  Uiso   1.00
O157   O     0.79642   0.24619   0.25298   0.00000  Uiso   1.00
O158   O     0.87025   0.08714   0.24701   0.00000  Uiso   1.00
O159   O     0.89280   0.23721   0.24518   0.00000  Uiso   1.00
O160   O     0.77387   0.09613   0.25481   0.00000  Uiso   1.00
C161   C     0.84740   0.26395   0.24734   0.00000  Uiso   1.00
C162   C     0.81907   0.06925   0.25172   0.00000  Uiso   1.00
O163   O     0.78514   0.17117   0.31997   0.00000  Uiso   1.00
O164   O     0.88153   0.16216   0.18002   0.00000  Uiso   1.00
O165   O     0.88152   0.16219   0.31217   0.00000  Uiso   1.00
O166   O     0.78515   0.17115   0.18782   0.00000  Uiso   1.00
C167   C     0.83409   0.17094   0.33646   0.00000  Uiso   1.00
C168   C     0.83267   0.16293   0.16357   0.00000  Uiso   1.00
Zn169  Zn    0.76898   0.17266   0.25521   0.00000  Uiso   1.00
Zn170  Zn    0.89769   0.16067   0.24479   0.00000  Uiso   1.00
C171   C     0.80426   0.12332   0.08947   0.00000  Uiso   1.00
C172   C     0.85894   0.21459   0.41073   0.00000  Uiso   1.00
C173   C     0.83178   0.16208   0.11528   0.00000  Uiso   1.00
C174   C     0.83486   0.17332   0.38502   0.00000  Uiso   1.00
C175   C     0.85818   0.20264   0.09514   0.00000  Uiso   1.00
C176   C     0.80874   0.13294   0.40583   0.00000  Uiso   1.00
C177   C     0.85784   0.20584   0.04967   0.00000  Uiso   1.00
C178   C     0.80341   0.13363   0.45196   0.00000  Uiso   1.00
C179   C     0.82844   0.16951   0.02404   0.00000  Uiso   1.00
C180   C     0.83122   0.17149   0.47753   0.00000  Uiso   1.00
C181   C     0.79703   0.13075   0.04473   0.00000  Uiso   1.00
C182   C     0.86242   0.21062   0.45680   0.00000  Uiso   1.00
C183   C     0.88810   0.24431   0.02944   0.00000  Uiso   1.00
C184   C     0.76936   0.09766   0.47299   0.00000  Uiso   1.00
C185   C     0.89317   0.24566   0.48390   0.00000  Uiso   1.00
C186   C     0.76225   0.09880   0.01890   0.00000  Uiso   1.00
H187   H     0.91159   0.27247   0.04850   0.00000  Uiso   1.00
H188   H     0.74439   0.07054   0.45429   0.00000  Uiso   1.00
C189   C     0.85424   0.31687   0.24237   0.00000  Uiso   1.00
C190   C     0.81151   0.01634   0.25653   0.00000  Uiso   1.00
N191   N     0.98344   0.15265   0.23783   0.00000  Uiso   1.00
N192   N     0.68322   0.18068   0.26217   0.00000  Uiso   1.00
S193   S     0.80269   0.05993   0.10474   0.00000  Uiso   1.00
O194   O     0.74570   0.03543   0.10550   0.00000  Uiso   1.00
O195   O     0.84114   0.02945   0.07162   0.00000  Uiso   1.00
O196   O     0.82417   0.05788   0.15510   0.00000  Uiso   1.00
H197   H     0.80706   0.02634   0.16569   0.00000  Uiso   1.00
S198   S     0.86669   0.27554   0.39033   0.00000  Uiso   1.00
O199   O     0.83273   0.31215   0.42152   0.00000  Uiso   1.00
O200   O     0.92615   0.29441   0.38655   0.00000  Uiso   1.00
O201   O     0.84464   0.27489   0.34011   0.00000  Uiso   1.00
H202   H     0.86176   0.30603   0.32875   0.00000  Uiso   1.00
N203   N     0.88872   0.23941   0.12076   0.00000  Uiso   1.00
O204   O     0.94281   0.23929   0.11547   0.00000  Uiso   1.00
O205   O     0.86351   0.27964   0.13832   0.00000  Uiso   1.00
N206   N     0.78719   0.09089   0.37956   0.00000  Uiso   1.00
O207   O     0.73375   0.08415   0.37854   0.00000  Uiso   1.00
O208   O     0.82133   0.06165   0.35440   0.00000  Uiso   1.00
N209   N     0.93667   0.27785   0.46654   0.00000  Uiso   1.00
O210   O     0.98354   0.25811   0.45020   0.00000  Uiso   1.00
O211   O     0.93539   0.32609   0.47813   0.00000  Uiso   1.00
N212   N     0.71338   0.07435   0.03828   0.00000  Uiso   1.00
O213   O     0.67996   0.09975   0.06758   0.00000  Uiso   1.00
O214   O     0.69733   0.03006   0.02161   0.00000  Uiso   1.00
S215   S     0.92162   0.00012   0.21550   0.00000  Uiso   1.00
O216   O     0.91485   0.03145   0.17826   0.00000  Uiso   1.00
O217   O     0.95487   0.02980   0.24864   0.00000  Uiso   1.00
O218   O     0.95881   0.28413   0.19219   0.00000  Uiso   1.00
H219   H     0.97691   0.27042   0.21597   0.00000  Uiso   1.00
S220   S     0.74501   0.00104   0.28619   0.00000  Uiso   1.00
O221   O     0.71296   0.29641   0.25871   0.00000  Uiso   1.00
O222   O     0.75445   0.31385   0.32894   0.00000  Uiso   1.00
O223   O     0.70349   0.05050   0.29981   0.00000  Uiso   1.00
H224   H     0.67242   0.03782   0.31992   0.00000  Uiso   1.00
S225   S     0.67407   0.13579   0.18354   0.00000  Uiso   1.00
O226   O     0.96301   0.11111   0.15735   0.00000  Uiso   1.00
O227   O     0.69412   0.18188   0.16100   0.00000  Uiso   1.00
O228   O     0.72327   0.09332   0.18284   0.00000  Uiso   1.00
H229   H     0.70352   0.06266   0.19298   0.00000  Uiso   1.00
S230   S     0.99268   0.19956   0.31582   0.00000  Uiso   1.00
O231   O     0.94743   0.23592   0.31472   0.00000  Uiso   1.00
O232   O     0.97348   0.15432   0.34000   0.00000  Uiso   1.00
O233   O     0.70872   0.23002   0.34373   0.00000  Uiso   1.00
H234   H     0.69974   0.22297   0.37511   0.00000  Uiso   1.00
O235   O     0.12975   0.57952   0.25298   0.00000  Uiso   1.00
O236   O     0.20358   0.42048   0.24701   0.00000  Uiso   1.00
O237   O     0.22613   0.57054   0.24518   0.00000  Uiso   1.00
O238   O     0.10720   0.42946   0.25481   0.00000  Uiso   1.00
C239   C     0.18074   0.59728   0.24734   0.00000  Uiso   1.00
C240   C     0.15241   0.40258   0.25172   0.00000  Uiso   1.00
O241   O     0.11847   0.50450   0.31997   0.00000  Uiso   1.00
O242   O     0.21486   0.49550   0.18002   0.00000  Uiso   1.00
O243   O     0.21485   0.49552   0.31217   0.00000  Uiso   1.00
O244   O     0.11848   0.50448   0.18782   0.00000  Uiso   1.00
C245   C     0.16743   0.50428   0.33646   0.00000  Uiso   1.00
C246   C     0.16600   0.49627   0.16357   0.00000  Uiso   1.00
Zn247  Zn    0.10231   0.50600   0.25521   0.00000  Uiso   1.00
Zn248  Zn    0.23102   0.49400   0.24479   0.00000  Uiso   1.00
C249   C     0.13760   0.45665   0.08947   0.00000  Uiso   1.00
C250   C     0.19227   0.54793   0.41073   0.00000  Uiso   1.00
C251   C     0.16512   0.49542   0.11528   0.00000  Uiso   1.00
C252   C     0.16819   0.50665   0.38502   0.00000  Uiso   1.00
C253   C     0.19151   0.53598   0.09514   0.00000  Uiso   1.00
C254   C     0.14207   0.46628   0.40583   0.00000  Uiso   1.00
C255   C     0.19118   0.53917   0.04967   0.00000  Uiso   1.00
C256   C     0.13674   0.46697   0.45196   0.00000  Uiso   1.00
C257   C     0.16177   0.50285   0.02404   0.00000  Uiso   1.00
C258   C     0.16456   0.50482   0.47753   0.00000  Uiso   1.00
C259   C     0.13036   0.46408   0.04473   0.00000  Uiso   1.00
C260   C     0.19575   0.54395   0.45680   0.00000  Uiso   1.00
C261   C     0.22144   0.57764   0.02944   0.00000  Uiso   1.00
C262   C     0.10269   0.43099   0.47299   0.00000  Uiso   1.00
C263   C     0.22650   0.57899   0.48390   0.00000  Uiso   1.00
C264   C     0.09558   0.43213   0.01890   0.00000  Uiso   1.00
H265   H     0.24493   0.60581   0.04850   0.00000  Uiso   1.00
H266   H     0.07772   0.40387   0.45429   0.00000  Uiso   1.00
C267   C     0.18757   0.65021   0.24237   0.00000  Uiso   1.00
C268   C     0.14484   0.34967   0.25653   0.00000  Uiso   1.00
N269   N     0.31678   0.48598   0.23783   0.00000  Uiso   1.00
N270   N     0.01656   0.51402   0.26217   0.00000  Uiso   1.00
S271   S     0.13603   0.39326   0.10474   0.00000  Uiso   1.00
O272   O     0.07903   0.36876   0.10550   0.00000  Uiso   1.00
O273   O     0.17448   0.36279   0.07162   0.00000  Uiso   1.00
O274   O     0.15750   0.39122   0.15510   0.00000  Uiso   1.00
H275   H     0.14039   0.35967   0.16569   0.00000  Uiso   1.00
S276   S     0.20002   0.60887   0.39033   0.00000  Uiso   1.00
O277   O     0.16606   0.64549   0.42152   0.00000  Uiso   1.00
O278   O     0.25949   0.62775   0.38655   0.00000  Uiso   1.00
O279   O     0.17798   0.60823   0.34011   0.00000  Uiso   1.00
H280   H     0.19510   0.63936   0.32875   0.00000  Uiso   1.00
N281   N     0.22205   0.57274   0.12076   0.00000  Uiso   1.00
O282   O     0.27614   0.57262   0.11547   0.00000  Uiso   1.00
O283   O     0.19684   0.61297   0.13832   0.00000  Uiso   1.00
N284   N     0.12052   0.42423   0.37956   0.00000  Uiso   1.00
O285   O     0.06709   0.41748   0.37854   0.00000  Uiso   1.00
O286   O     0.15467   0.39499   0.35440   0.00000  Uiso   1.00
N287   N     0.27000   0.61118   0.46654   0.00000  Uiso   1.00
O288   O     0.31688   0.59145   0.45020   0.00000  Uiso   1.00
O289   O     0.26872   0.65943   0.47813   0.00000  Uiso   1.00
N290   N     0.04671   0.40769   0.03828   0.00000  Uiso   1.00
O291   O     0.01329   0.43308   0.06758   0.00000  Uiso   1.00
O292   O     0.03067   0.36339   0.02161   0.00000  Uiso   1.00
S293   S     0.25496   0.33345   0.21550   0.00000  Uiso   1.00
O294   O     0.24818   0.36478   0.17826   0.00000  Uiso   1.00
O295   O     0.28821   0.36313   0.24864   0.00000  Uiso   1.00
O296   O     0.29215   0.61746   0.19219   0.00000  Uiso   1.00
H297   H     0.31025   0.60375   0.21597   0.00000  Uiso   1.00
S298   S     0.07834   0.33437   0.28619   0.00000  Uiso   1.00
O299   O     0.04630   0.62974   0.25871   0.00000  Uiso   1.00
O300   O     0.08778   0.64718   0.32894   0.00000  Uiso   1.00
O301   O     0.03682   0.38384   0.29981   0.00000  Uiso   1.00
H302   H     0.00575   0.37115   0.31992   0.00000  Uiso   1.00
S303   S     0.00740   0.46913   0.18354   0.00000  Uiso   1.00
O304   O     0.29635   0.44444   0.15735   0.00000  Uiso   1.00
O305   O     0.02745   0.51521   0.16100   0.00000  Uiso   1.00
O306   O     0.05660   0.42666   0.18284   0.00000  Uiso   1.00
H307   H     0.03685   0.39599   0.19298   0.00000  Uiso   1.00
S308   S     0.32601   0.53289   0.31582   0.00000  Uiso   1.00
O309   O     0.28076   0.56926   0.31472   0.00000  Uiso   1.00
O310   O     0.30681   0.48766   0.34000   0.00000  Uiso   1.00
O311   O     0.04205   0.56335   0.34373   0.00000  Uiso   1.00
H312   H     0.03307   0.55630   0.37511   0.00000  Uiso   1.00
O313   O     0.46308   0.57952   0.25298   0.00000  Uiso   1.00
O314   O     0.53692   0.42048   0.24701   0.00000  Uiso   1.00
O315   O     0.55946   0.57054   0.24518   0.00000  Uiso   1.00
O316   O     0.44054   0.42946   0.25481   0.00000  Uiso   1.00
C317   C     0.51407   0.59728   0.24734   0.00000  Uiso   1.00
C318   C     0.48574   0.40258   0.25172   0.00000  Uiso   1.00
O319   O     0.45181   0.50450   0.31997   0.00000  Uiso   1.00
O320   O     0.54819   0.49550   0.18002   0.00000  Uiso   1.00
O321   O     0.54819   0.49552   0.31217   0.00000  Uiso   1.00
O322   O     0.45181   0.50448   0.18782   0.00000  Uiso   1.00
C323   C     0.50076   0.50428   0.33646   0.00000  Uiso   1.00
C324   C     0.49933   0.49627   0.16357   0.00000  Uiso   1.00
Zn325  Zn    0.43565   0.50600   0.25521   0.00000  Uiso   1.00
Zn326  Zn    0.56435   0.49400   0.24479   0.00000  Uiso   1.00
C327   C     0.47093   0.45665   0.08947   0.00000  Uiso   1.00
C328   C     0.52560   0.54793   0.41073   0.00000  Uiso   1.00
C329   C     0.49845   0.49542   0.11528   0.00000  Uiso   1.00
C330   C     0.50152   0.50665   0.38502   0.00000  Uiso   1.00
C331   C     0.52485   0.53598   0.09514   0.00000  Uiso   1.00
C332   C     0.47541   0.46628   0.40583   0.00000  Uiso   1.00
C333   C     0.52451   0.53917   0.04967   0.00000  Uiso   1.00
C334   C     0.47007   0.46697   0.45196   0.00000  Uiso   1.00
C335   C     0.49510   0.50285   0.02404   0.00000  Uiso   1.00
C336   C     0.49789   0.50482   0.47753   0.00000  Uiso   1.00
C337   C     0.46370   0.46408   0.04473   0.00000  Uiso   1.00
C338   C     0.52909   0.54395   0.45680   0.00000  Uiso   1.00
C339   C     0.55477   0.57764   0.02944   0.00000  Uiso   1.00
C340   C     0.43602   0.43099   0.47299   0.00000  Uiso   1.00
C341   C     0.55983   0.57899   0.48390   0.00000  Uiso   1.00
C342   C     0.42892   0.43213   0.01890   0.00000  Uiso   1.00
H343   H     0.57826   0.60581   0.04850   0.00000  Uiso   1.00
H344   H     0.41106   0.40387   0.45429   0.00000  Uiso   1.00
C345   C     0.52090   0.65021   0.24237   0.00000  Uiso   1.00
C346   C     0.47818   0.34967   0.25653   0.00000  Uiso   1.00
N347   N     0.65011   0.48598   0.23783   0.00000  Uiso   1.00
N348   N     0.34989   0.51402   0.26217   0.00000  Uiso   1.00
S349   S     0.46936   0.39326   0.10474   0.00000  Uiso   1.00
O350   O     0.41236   0.36876   0.10550   0.00000  Uiso   1.00
O351   O     0.50781   0.36279   0.07162   0.00000  Uiso   1.00
O352   O     0.49083   0.39122   0.15510   0.00000  Uiso   1.00
H353   H     0.47372   0.35967   0.16569   0.00000  Uiso   1.00
S354   S     0.53336   0.60887   0.39033   0.00000  Uiso   1.00
O355   O     0.49939   0.64549   0.42152   0.00000  Uiso   1.00
O356   O     0.59282   0.62775   0.38655   0.00000  Uiso   1.00
O357   O     0.51131   0.60823   0.34011   0.00000  Uiso   1.00
H358   H     0.52843   0.63936   0.32875   0.00000  Uiso   1.00
N359   N     0.55539   0.57274   0.12076   0.00000  Uiso   1.00
O360   O     0.60948   0.57262   0.11547   0.00000  Uiso   1.00
O361   O     0.53017   0.61297   0.13832   0.00000  Uiso   1.00
N362   N     0.45386   0.42423   0.37956   0.00000  Uiso   1.00
O363   O     0.40042   0.41748   0.37854   0.00000  Uiso   1.00
O364   O     0.48800   0.39499   0.35440   0.00000  Uiso   1.00
N365   N     0.60334   0.61118   0.46654   0.00000  Uiso   1.00
O366   O     0.65021   0.59145   0.45020   0.00000  Uiso   1.00
O367   O     0.60205   0.65943   0.47813   0.00000  Uiso   1.00
N368   N     0.38004   0.40769   0.03828   0.00000  Uiso   1.00
O369   O     0.34662   0.43308   0.06758   0.00000  Uiso   1.00
O370   O     0.36400   0.36339   0.02161   0.00000  Uiso   1.00
S371   S     0.58829   0.33345   0.21550   0.00000  Uiso   1.00
O372   O     0.58151   0.36478   0.17826   0.00000  Uiso   1.00
O373   O     0.62154   0.36313   0.24864   0.00000  Uiso   1.00
O374   O     0.62548   0.61746   0.19219   0.00000  Uiso   1.00
H375   H     0.64358   0.60375   0.21597   0.00000  Uiso   1.00
S376   S     0.41168   0.33437   0.28619   0.00000  Uiso   1.00
O377   O     0.37963   0.62974   0.25871   0.00000  Uiso   1.00
O378   O     0.42112   0.64718   0.32894   0.00000  Uiso   1.00
O379   O     0.37016   0.38384   0.29981   0.00000  Uiso   1.00
H380   H     0.33908   0.37115   0.31992   0.00000  Uiso   1.00
S381   S     0.34074   0.46913   0.18354   0.00000  Uiso   1.00
O382   O     0.62968   0.44444   0.15735   0.00000  Uiso   1.00
O383   O     0.36079   0.51521   0.16100   0.00000  Uiso   1.00
O384   O     0.38994   0.42666   0.18284   0.00000  Uiso   1.00
H385   H     0.37019   0.39599   0.19298   0.00000  Uiso   1.00
S386   S     0.65935   0.53289   0.31582   0.00000  Uiso   1.00
O387   O     0.61410   0.56926   0.31472   0.00000  Uiso   1.00
O388   O     0.64015   0.48766   0.34000   0.00000  Uiso   1.00
O389   O     0.37538   0.56335   0.34373   0.00000  Uiso   1.00
H390   H     0.36641   0.55630   0.37511   0.00000  Uiso   1.00
O391   O     0.79642   0.57952   0.25298   0.00000  Uiso   1.00
O392   O     0.87025   0.42048   0.24701   0.00000  Uiso   1.00
O393   O     0.89280   0.57054   0.24518   0.00000  Uiso   1.00
O394   O     0.77387   0.42946   0.25481   0.00000  Uiso   1.00
C395   C     0.84740   0.59728   0.24734   0.00000  Uiso   1.00
C396   C     0.81907   0.40258   0.25172   0.00000  Uiso   1.00
O397   O     0.78514   0.50450   0.31997   0.00000  Uiso   1.00
O398   O     0.88153   0.49550   0.18002   0.00000  Uiso   1.00
O399   O     0.88152   0.49552   0.31217   0.00000  Uiso   1.00
O400   O     0.78515   0.50448   0.18782   0.00000  Uiso   1.00
C401   C     0.83409   0.50428   0.33646   0.00000  Uiso   1.00
C402   C     0.83267   0.49627   0.16357   0.00000  Uiso   1.00
Zn403  Zn    0.76898   0.50600   0.25521   0.00000  Uiso   1.00
Zn404  Zn    0.89769   0.49400   0.24479   0.00000  Uiso   1.00
C405   C     0.80426   0.45665   0.08947   0.00000  Uiso   1.00
C406   C     0.85894   0.54793   0.41073   0.00000  Uiso   1.00
C407   C     0.83178   0.49542   0.11528   0.00000  Uiso   1.00
C408   C     0.83486   0.50665   0.38502   0.00000  Uiso   1.00
C409   C     0.85818   0.53598   0.09514   0.00000  Uiso   1.00
C410   C     0.80874   0.46628   0.40583   0.00000  Uiso   1.00
C411   C     0.85784   0.53917   0.04967   0.00000  Uiso   1.00
C412   C     0.80341   0.46697   0.45196   0.00000  Uiso   1.00
C413   C     0.82844   0.50285   0.02404   0.00000  Uiso   1.00
C414   C     0.83122   0.50482   0.47753   0.00000  Uiso   1.00
C415   C     0.79703   0.46408   0.04473   0.00000  Uiso   1.00
C416   C     0.86242   0.54395   0.45680   0.00000  Uiso   1.00
C417   C     0.88810   0.57764   0.02944   0.00000  Uiso   1.00
C418   C     0.76936   0.43099   0.47299   0.00000  Uiso   1.00
C419   C     0.89317   0.57899   0.48390   0.00000  Uiso   1.00
C420   C     0.76225   0.43213   0.01890   0.00000  Uiso   1.00
H421   H     0.91159   0.60581   0.04850   0.00000  Uiso   1.00
H422   H     0.74439   0.40387   0.45429   0.00000  Uiso   1.00
C423   C     0.85424   0.65021   0.24237   0.00000  Uiso   1.00
C424   C     0.81151   0.34967   0.25653   0.00000  Uiso   1.00
N425   N     0.98344   0.48598   0.23783   0.00000  Uiso   1.00
N426   N     0.68322   0.51402   0.26217   0.00000  Uiso   1.00
S427   S     0.80269   0.39326   0.10474   0.00000  Uiso   1.00
O428   O     0.74570   0.36876   0.10550   0.00000  Uiso   1.00
O429   O     0.84114   0.36279   0.07162   0.00000  Uiso   1.00
O430   O     0.82417   0.39122   0.15510   0.00000  Uiso   1.00
H431   H     0.80706   0.35967   0.16569   0.00000  Uiso   1.00
S432   S     0.86669   0.60887   0.39033   0.00000  Uiso   1.00
O433   O     0.83273   0.64549   0.42152   0.00000  Uiso   1.00
O434   O     0.92615   0.62775   0.38655   0.00000  Uiso   1.00
O435   O     0.84464   0.60823   0.34011   0.00000  Uiso   1.00
H436   H     0.86176   0.63936   0.32875   0.00000  Uiso   1.00
N437   N     0.88872   0.57274   0.12076   0.00000  Uiso   1.00
O438   O     0.94281   0.57262   0.11547   0.00000  Uiso   1.00
O439   O     0.86351   0.61297   0.13832   0.00000  Uiso   1.00
N440   N     0.78719   0.42423   0.37956   0.00000  Uiso   1.00
O441   O     0.73375   0.41748   0.37854   0.00000  Uiso   1.00
O442   O     0.82133   0.39499   0.35440   0.00000  Uiso   1.00
N443   N     0.93667   0.61118   0.46654   0.00000  Uiso   1.00
O444   O     0.98354   0.59145   0.45020   0.00000  Uiso   1.00
O445   O     0.93539   0.65943   0.47813   0.00000  Uiso   1.00
N446   N     0.71338   0.40769   0.03828   0.00000  Uiso   1.00
O447   O     0.67996   0.43308   0.06758   0.00000  Uiso   1.00
O448   O     0.69733   0.36339   0.02161   0.00000  Uiso   1.00
S449   S     0.92162   0.33345   0.21550   0.00000  Uiso   1.00
O450   O     0.91485   0.36478   0.17826   0.00000  Uiso   1.00
O451   O     0.95487   0.36313   0.24864   0.00000  Uiso   1.00
O452   O     0.95881   0.61746   0.19219   0.00000  Uiso   1.00
H453   H     0.97691   0.60375   0.21597   0.00000  Uiso   1.00
S454   S     0.74501   0.33437   0.28619   0.00000  Uiso   1.00
O455   O     0.71296   0.62974   0.25871   0.00000  Uiso   1.00
O456   O     0.75445   0.64718   0.32894   0.00000  Uiso   1.00
O457   O     0.70349   0.38384   0.29981   0.00000  Uiso   1.00
H458   H     0.67242   0.37115   0.31992   0.00000  Uiso   1.00
S459   S     0.67407   0.46913   0.18354   0.00000  Uiso   1.00
O460   O     0.96301   0.44444   0.15735   0.00000  Uiso   1.00
O461   O     0.69412   0.51521   0.16100   0.00000  Uiso   1.00
O462   O     0.72327   0.42666   0.18284   0.00000  Uiso   1.00
H463   H     0.70352   0.39599   0.19298   0.00000  Uiso   1.00
S464   S     0.99268   0.53289   0.31582   0.00000  Uiso   1.00
O465   O     0.94743   0.56926   0.31472   0.00000  Uiso   1.00
O466   O     0.97348   0.48766   0.34000   0.00000  Uiso   1.00
O467   O     0.70872   0.56335   0.34373   0.00000  Uiso   1.00
H468   H     0.69974   0.55630   0.37511   0.00000  Uiso   1.00
O469   O     0.12975   0.91286   0.25298   0.00000  Uiso   1.00
O470   O     0.20358   0.75381   0.24701   0.00000  Uiso   1.00
O471   O     0.22613   0.90387   0.24518   0.00000  Uiso   1.00
O472   O     0.10720   0.76279   0.25481   0.00000  Uiso   1.00
C473   C     0.18074   0.93061   0.24734   0.00000  Uiso   1.00
C474   C     0.15241   0.73591   0.25172   0.00000  Uiso   1.00
O475   O     0.11847   0.83784   0.31997   0.00000  Uiso   1.00
O476   O     0.21486   0.82883   0.18002   0.00000  Uiso   1.00
O477   O     0.21485   0.82885   0.31217   0.00000  Uiso   1.00
O478   O     0.11848   0.83781   0.18782   0.00000  Uiso   1.00
C479   C     0.16743   0.83761   0.33646   0.00000  Uiso   1.00
C480   C     0.16600   0.82960   0.16357   0.00000  Uiso   1.00
Zn481  Zn    0.10231   0.83933   0.25521   0.00000  Uiso   1.00
Zn482  Zn    0.23102   0.82734   0.24479   0.00000  Uiso   1.00
C483   C     0.13760   0.78999   0.08947   0.00000  Uiso   1.00
C484   C     0.19227   0.88126   0.41073   0.00000  Uiso   1.00
C485   C     0.16512   0.82875   0.11528   0.00000  Uiso   1.00
C486   C     0.16819   0.83999   0.38502   0.00000  Uiso   1.00
C487   C     0.19151   0.86931   0.09514   0.00000  Uiso   1.00
C488   C     0.14207   0.79961   0.40583   0.00000  Uiso   1.00
C489   C     0.19118   0.87251   0.04967   0.00000  Uiso   1.00
C490   C     0.13674   0.80030   0.45196   0.00000  Uiso   1.00
C491   C     0.16177   0.83618   0.02404   0.00000  Uiso   1.00
C492   C     0.16456   0.83815   0.47753   0.00000  Uiso   1.00
C493   C     0.13036   0.79741   0.04473   0.00000  Uiso   1.00
C494   C     0.19575   0.87729   0.45680   0.00000  Uiso   1.00
C495   C     0.22144   0.91098   0.02944   0.00000  Uiso   1.00
C496   C     0.10269   0.76433   0.47299   0.00000  Uiso   1.00
C497   C     0.22650   0.91233   0.48390   0.00000  Uiso   1.00
C498   C     0.09558   0.76547   0.01890   0.00000  Uiso   1.00
H499   H     0.24493   0.93914   0.04850   0.00000  Uiso   1.00
H500   H     0.07772   0.73720   0.45429   0.00000  Uiso   1.00
C501   C     0.18757   0.98354   0.24237   0.00000  Uiso   1.00
C502   C     0.14484   0.68301   0.25653   0.00000  Uiso   1.00
N503   N     0.31678   0.81932   0.23783   0.00000  Uiso   1.00
N504   N     0.01656   0.84735   0.26217   0.00000  Uiso   1.00
S505   S     0.13603   0.72659   0.10474   0.00000  Uiso   1.00
O506   O     0.07903   0.70209   0.10550   0.00000  Uiso   1.00
O507   O     0.17448   0.69612   0.07162   0.00000  Uiso   1.00
O508   O     0.15750   0.72455   0.15510   0.00000  Uiso   1.00
H509   H     0.14039   0.69300   0.16569   0.00000  Uiso   1.00
S510   S     0.20002   0.94221   0.39033   0.00000  Uiso   1.00
O511   O     0.16606   0.97882   0.42152   0.00000  Uiso   1.00
O512   O     0.25949   0.96108   0.38655   0.00000  Uiso   1.00
O513   O     0.17798   0.94156   0.34011   0.00000  Uiso   1.00
H514   H     0.19510   0.97269   0.32875   0.00000  Uiso   1.00
N515   N     0.22205   0.90608   0.12076   0.00000  Uiso   1.00
O516   O     0.27614   0.90595   0.11547   0.00000  Uiso   1.00
O517   O     0.19684   0.94631   0.13832   0.00000  Uiso   1.00
N518   N     0.12052   0.75756   0.37956   0.00000  Uiso   1.00
O519   O     0.06709   0.75081   0.37854   0.00000  Uiso   1.00
O520   O     0.15467   0.72832   0.35440   0.00000  Uiso   1.00
N521   N     0.27000   0.94451   0.46654   0.00000  Uiso   1.00
O522   O     0.31688   0.92478   0.45020   0.00000  Uiso   1.00
O523   O     0.26872   0.99276   0.47813   0.00000  Uiso   1.00
N524   N     0.04671   0.74102   0.03828   0.00000  Uiso   1.00
O525   O     0.01329   0.76642   0.06758   0.00000  Uiso   1.00
O526   O     0.03067   0.69672   0.02161   0.00000  Uiso   1.00
S527   S     0.25496   0.66679   0.21550   0.00000  Uiso   1.00
O528   O     0.24818   0.69811   0.17826   0.00000  Uiso   1.00
O529   O     0.28821   0.69647   0.24864   0.00000  Uiso   1.00
O530   O     0.29215   0.95079   0.19219   0.00000  Uiso   1.00
H531   H     0.31025   0.93709   0.21597   0.00000  Uiso   1.00
S532   S     0.07834   0.66771   0.28619   0.00000  Uiso   1.00
O533   O     0.04630   0.96307   0.25871   0.00000  Uiso   1.00
O534   O     0.08778   0.98051   0.32894   0.00000  Uiso   1.00
O535   O     0.03682   0.71717   0.29981   0.00000  Uiso   1.00
H536   H     0.00575   0.70449   0.31992   0.00000  Uiso   1.00
S537   S     0.00740   0.80246   0.18354   0.00000  Uiso   1.00
O538   O     0.29635   0.77778   0.15735   0.00000  Uiso   1.00
O539   O     0.02745   0.84855   0.16100   0.00000  Uiso   1.00
O540   O     0.05660   0.75999   0.18284   0.00000  Uiso   1.00
H541   H     0.03685   0.72932   0.19298   0.00000  Uiso   1.00
S542   S     0.32601   0.86623   0.31582   0.00000  Uiso   1.00
O543   O     0.28076   0.90259   0.31472   0.00000  Uiso   1.00
O544   O     0.30681   0.82099   0.34000   0.00000  Uiso   1.00
O545   O     0.04205   0.89668   0.34373   0.00000  Uiso   1.00
H546   H     0.03307   0.88964   0.37511   0.00000  Uiso   1.00
O547   O     0.46308   0.91286   0.25298   0.00000  Uiso   1.00
O548   O     0.53692   0.75381   0.24701   0.00000  Uiso   1.00
O549   O     0.55946   0.90387   0.24518   0.00000  Uiso   1.00
O550   O     0.44054   0.76279   0.25481   0.00000  Uiso   1.00
C551   C     0.51407   0.93061   0.24734   0.00000  Uiso   1.00
C552   C     0.48574   0.73591   0.25172   0.00000  Uiso   1.00
O553   O     0.45181   0.83784   0.31997   0.00000  Uiso   1.00
O554   O     0.54819   0.82883   0.18002   0.00000  Uiso   1.00
O555   O     0.54819   0.82885   0.31217   0.00000  Uiso   1.00
O556   O     0.45181   0.83781   0.18782   0.00000  Uiso   1.00
C557   C     0.50076   0.83761   0.33646   0.00000  Uiso   1.00
C558   C     0.49933   0.82960   0.16357   0.00000  Uiso   1.00
Zn559  Zn    0.43565   0.83933   0.25521   0.00000  Uiso   1.00
Zn560  Zn    0.56435   0.82734   0.24479   0.00000  Uiso   1.00
C561   C     0.47093   0.78999   0.08947   0.00000  Uiso   1.00
C562   C     0.52560   0.88126   0.41073   0.00000  Uiso   1.00
C563   C     0.49845   0.82875   0.11528   0.00000  Uiso   1.00
C564   C     0.50152   0.83999   0.38502   0.00000  Uiso   1.00
C565   C     0.52485   0.86931   0.09514   0.00000  Uiso   1.00
C566   C     0.47541   0.79961   0.40583   0.00000  Uiso   1.00
C567   C     0.52451   0.87251   0.04967   0.00000  Uiso   1.00
C568   C     0.47007   0.80030   0.45196   0.00000  Uiso   1.00
C569   C     0.49510   0.83618   0.02404   0.00000  Uiso   1.00
C570   C     0.49789   0.83815   0.47753   0.00000  Uiso   1.00
C571   C     0.46370   0.79741   0.04473   0.00000  Uiso   1.00
C572   C     0.52909   0.87729   0.45680   0.00000  Uiso   1.00
C573   C     0.55477   0.91098   0.02944   0.00000  Uiso   1.00
C574   C     0.43602   0.76433   0.47299   0.00000  Uiso   1.00
C575   C     0.55983   0.91233   0.48390   0.00000  Uiso   1.00
C576   C     0.42892   0.76547   0.01890   0.00000  Uiso   1.00
H577   H     0.57826   0.93914   0.04850   0.00000  Uiso   1.00
H578   H     0.41106   0.73720   0.45429   0.00000  Uiso   1.00
C579   C     0.52090   0.98354   0.24237   0.00000  Uiso   1.00
C580   C     0.47818   0.68301   0.25653   0.00000  Uiso   1.00
N581   N     0.65011   0.81932   0.23783   0.00000  Uiso   1.00
N582   N     0.34989   0.84735   0.26217   0.00000  Uiso   1.00
S583   S     0.46936   0.72659   0.10474   0.00000  Uiso   1.00
O584   O     0.41236   0.70209   0.10550   0.00000  Uiso   1.00
O585   O     0.50781   0.69612   0.07162   0.00000  Uiso   1.00
O586   O     0.49083   0.72455   0.15510   0.00000  Uiso   1.00
H587   H     0.47372   0.69300   0.16569   0.00000  Uiso   1.00
S588   S     0.53336   0.94221   0.39033   0.00000  Uiso   1.00
O589   O     0.49939   0.97882   0.42152   0.00000  Uiso   1.00
O590   O     0.59282   0.96108   0.38655   0.00000  Uiso   1.00
O591   O     0.51131   0.94156   0.34011   0.00000  Uiso   1.00
H592   H     0.52843   0.97269   0.32875   0.00000  Uiso   1.00
N593   N     0.55539   0.90608   0.12076   0.00000  Uiso   1.00
O594   O     0.60948   0.90595   0.11547   0.00000  Uiso   1.00
O595   O     0.53017   0.94631   0.13832   0.00000  Uiso   1.00
N596   N     0.45386   0.75756   0.37956   0.00000  Uiso   1.00
O597   O     0.40042   0.75081   0.37854   0.00000  Uiso   1.00
O598   O     0.48800   0.72832   0.35440   0.00000  Uiso   1.00
N599   N     0.60334   0.94451   0.46654   0.00000  Uiso   1.00
O600   O     0.65021   0.92478   0.45020   0.00000  Uiso   1.00
O601   O     0.60205   0.99276   0.47813   0.00000  Uiso   1.00
N602   N     0.38004   0.74102   0.03828   0.00000  Uiso   1.00
O603   O     0.34662   0.76642   0.06758   0.00000  Uiso   1.00
O604   O     0.36400   0.69672   0.02161   0.00000  Uiso   1.00
S605   S     0.58829   0.66679   0.21550   0.00000  Uiso   1.00
O606   O     0.58151   0.69811   0.17826   0.00000  Uiso   1.00
O607   O     0.62154   0.69647   0.24864   0.00000  Uiso   1.00
O608   O     0.62548   0.95079   0.19219   0.00000  Uiso   1.00
H609   H     0.64358   0.93709   0.21597   0.00000  Uiso   1.00
S610   S     0.41168   0.66771   0.28619   0.00000  Uiso   1.00
O611   O     0.37963   0.96307   0.25871   0.00000  Uiso   1.00
O612   O     0.42112   0.98051   0.32894   0.00000  Uiso   1.00
O613   O     0.37016   0.71717   0.29981   0.00000  Uiso   1.00
H614   H     0.33908   0.70449   0.31992   0.00000  Uiso   1.00
S615   S     0.34074   0.80246   0.18354   0.00000  Uiso   1.00
O616   O     0.62968   0.77778   0.15735   0.00000  Uiso   1.00
O617   O     0.36079   0.84855   0.16100   0.00000  Uiso   1.00
O618   O     0.38994   0.75999   0.18284   0.00000  Uiso   1.00
H619   H     0.37019   0.72932   0.19298   0.00000  Uiso   1.00
S620   S     0.65935   0.86623   0.31582   0.00000  Uiso   1.00
O621   O     0.61410   0.90259   0.31472   0.00000  Uiso   1.00
O622   O     0.64015   0.82099   0.34000   0.00000  Uiso   1.00
O623   O     0.37538   0.89668   0.34373   0.00000  Uiso   1.00
H624   H     0.36641   0.88964   0.37511   0.00000  Uiso   1.00
O625   O     0.79642   0.91286   0.25298   0.00000  Uiso   1.00
O626   O     0.87025   0.75381   0.24701   0.00000  Uiso   1.00
O627   O     0.89280   0.90387   0.24518   0.00000  Uiso   1.00
O628   O     0.77387   0.76279   0.25481   0.00000  Uiso   1.00
C629   C     0.84740   0.93061   0.24734   0.00000  Uiso   1.00
C630   C     0.81907   0.73591   0.25172   0.00000  Uiso   1.00
O631   O     0.78514   0.83784   0.31997   0.00000  Uiso   1.00
O632   O     0.88153   0.82883   0.18002   0.00000  Uiso   1.00
O633   O     0.88152   0.82885   0.31217   0.00000  Uiso   1.00
O634   O     0.78515   0.83781   0.18782   0.00000  Uiso   1.00
C635   C     0.83409   0.83761   0.33646   0.00000  Uiso   1.00
C636   C     0.83267   0.82960   0.16357   0.00000  Uiso   1.00
Zn637  Zn    0.76898   0.83933   0.25521   0.00000  Uiso   1.00
Zn638  Zn    0.89769   0.82734   0.24479   0.00000  Uiso   1.00
C639   C     0.80426   0.78999   0.08947   0.00000  Uiso   1.00
C640   C     0.85894   0.88126   0.41073   0.00000  Uiso   1.00
C641   C     0.83178   0.82875   0.11528   0.00000  Uiso   1.00
C642   C     0.83486   0.83999   0.38502   0.00000  Uiso   1.00
C643   C     0.85818   0.86931   0.09514   0.00000  Uiso   1.00
C644   C     0.80874   0.79961   0.40583   0.00000  Uiso   1.00
C645   C     0.85784   0.87251   0.04967   0.00000  Uiso   1.00
C646   C     0.80341   0.80030   0.45196   0.00000  Uiso   1.00
C647   C     0.82844   0.83618   0.02404   0.00000  Uiso   1.00
C648   C     0.83122   0.83815   0.47753   0.00000  Uiso   1.00
C649   C     0.79703   0.79741   0.04473   0.00000  Uiso   1.00
C650   C     0.86242   0.87729   0.45680   0.00000  Uiso   1.00
C651   C     0.88810   0.91098   0.02944   0.00000  Uiso   1.00
C652   C     0.76936   0.76433   0.47299   0.00000  Uiso   1.00
C653   C     0.89317   0.91233   0.48390   0.00000  Uiso   1.00
C654   C     0.76225   0.76547   0.01890   0.00000  Uiso   1.00
H655   H     0.91159   0.93914   0.04850   0.00000  Uiso   1.00
H656   H     0.74439   0.73720   0.45429   0.00000  Uiso   1.00
C657   C     0.85424   0.98354   0.24237   0.00000  Uiso   1.00
C658   C     0.81151   0.68301   0.25653   0.00000  Uiso   1.00
N659   N     0.98344   0.81932   0.23783   0.00000  Uiso   1.00
N660   N     0.68322   0.84735   0.26217   0.00000  Uiso   1.00
S661   S     0.80269   0.72659   0.10474   0.00000  Uiso   1.00
O662   O     0.74570   0.70209   0.10550   0.00000  Uiso   1.00
O663   O     0.84114   0.69612   0.07162   0.00000  Uiso   1.00
O664   O     0.82417   0.72455   0.15510   0.00000  Uiso   1.00
H665   H     0.80706   0.69300   0.16569   0.00000  Uiso   1.00
S666   S     0.86669   0.94221   0.39033   0.00000  Uiso   1.00
O667   O     0.83273   0.97882   0.42152   0.00000  Uiso   1.00
O668   O     0.92615   0.96108   0.38655   0.00000  Uiso   1.00
O669   O     0.84464   0.94156   0.34011   0.00000  Uiso   1.00
H670   H     0.86176   0.97269   0.32875   0.00000  Uiso   1.00
N671   N     0.88872   0.90608   0.12076   0.00000  Uiso   1.00
O672   O     0.94281   0.90595   0.11547   0.00000  Uiso   1.00
O673   O     0.86351   0.94631   0.13832   0.00000  Uiso   1.00
N674   N     0.78719   0.75756   0.37956   0.00000  Uiso   1.00
O675   O     0.73375   0.75081   0.37854   0.00000  Uiso   1.00
O676   O     0.82133   0.72832   0.35440   0.00000  Uiso   1.00
N677   N     0.93667   0.94451   0.46654   0.00000  Uiso   1.00
O678   O     0.98354   0.92478   0.45020   0.00000  Uiso   1.00
O679   O     0.93539   0.99276   0.47813   0.00000  Uiso   1.00
N680   N     0.71338   0.74102   0.03828   0.00000  Uiso   1.00
O681   O     0.67996   0.76642   0.06758   0.00000  Uiso   1.00
O682   O     0.69733   0.69672   0.02161   0.00000  Uiso   1.00
S683   S     0.92162   0.66679   0.21550   0.00000  Uiso   1.00
O684   O     0.91485   0.69811   0.17826   0.00000  Uiso   1.00
O685   O     0.95487   0.69647   0.24864   0.00000  Uiso   1.00
O686   O     0.95881   0.95079   0.19219   0.00000  Uiso   1.00
H687   H     0.97691   0.93709   0.21597   0.00000  Uiso   1.00
S688   S     0.74501   0.66771   0.28619   0.00000  Uiso   1.00
O689   O     0.71296   0.96307   0.25871   0.00000  Uiso   1.00
O690   O     0.75445   0.98051   0.32894   0.00000  Uiso   1.00
O691   O     0.70349   0.71717   0.29981   0.00000  Uiso   1.00
H692   H     0.67242   0.70449   0.31992   0.00000  Uiso   1.00
S693   S     0.67407   0.80246   0.18354   0.00000  Uiso   1.00
O694   O     0.96301   0.77778   0.15735   0.00000  Uiso   1.00
O695   O     0.69412   0.84855   0.16100   0.00000  Uiso   1.00
O696   O     0.72327   0.75999   0.18284   0.00000  Uiso   1.00
H697   H     0.70352   0.72932   0.19298   0.00000  Uiso   1.00
S698   S     0.99268   0.86623   0.31582   0.00000  Uiso   1.00
O699   O     0.94743   0.90259   0.31472   0.00000  Uiso   1.00
O700   O     0.97348   0.82099   0.34000   0.00000  Uiso   1.00
O701   O     0.70872   0.89668   0.34373   0.00000  Uiso   1.00
H702   H     0.69974   0.88964   0.37511   0.00000  Uiso   1.00
O703   O     0.12975   0.24619   0.75298   0.00000  Uiso   1.00
O704   O     0.20358   0.08714   0.74701   0.00000  Uiso   1.00
O705   O     0.22613   0.23721   0.74518   0.00000  Uiso   1.00
O706   O     0.10720   0.09613   0.75481   0.00000  Uiso   1.00
C707   C     0.18074   0.26395   0.74734   0.00000  Uiso   1.00
C708   C     0.15241   0.06925   0.75172   0.00000  Uiso   1.00
O709   O     0.11847   0.17117   0.81997   0.00000  Uiso   1.00
O710   O     0.21486   0.16216   0.68002   0.00000  Uiso   1.00
O711   O     0.21485   0.16219   0.81217   0.00000  Uiso   1.00
O712   O     0.11848   0.17115   0.68782   0.00000  Uiso   1.00
C713   C     0.16743   0.17094   0.83646   0.00000  Uiso   1.00
C714   C     0.16600   0.16293   0.66357   0.00000  Uiso   1.00
Zn715  Zn    0.10231   0.17266   0.75521   0.00000  Uiso   1.00
Zn716  Zn    0.23102   0.16067   0.74479   0.00000  Uiso   1.00
C717   C     0.13760   0.12332   0.58947   0.00000  Uiso   1.00
C718   C     0.19227   0.21459   0.91073   0.00000  Uiso   1.00
C719   C     0.16512   0.16208   0.61528   0.00000  Uiso   1.00
C720   C     0.16819   0.17332   0.88502   0.00000  Uiso   1.00
C721   C     0.19151   0.20264   0.59514   0.00000  Uiso   1.00
C722   C     0.14207   0.13294   0.90583   0.00000  Uiso   1.00
C723   C     0.19118   0.20584   0.54967   0.00000  Uiso   1.00
C724   C     0.13674   0.13363   0.95196   0.00000  Uiso   1.00
C725   C     0.16177   0.16951   0.52404   0.00000  Uiso   1.00
C726   C     0.16456   0.17149   0.97753   0.00000  Uiso   1.00
C727   C     0.13036   0.13075   0.54473   0.00000  Uiso   1.00
C728   C     0.19575   0.21062   0.95680   0.00000  Uiso   1.00
C729   C     0.22144   0.24431   0.52944   0.00000  Uiso   1.00
C730   C     0.10269   0.09766   0.97299   0.00000  Uiso   1.00
C731   C     0.22650   0.24566   0.98390   0.00000  Uiso   1.00
C732   C     0.09558   0.09880   0.51890   0.00000  Uiso   1.00
H733   H     0.24493   0.27247   0.54850   0.00000  Uiso   1.00
H734   H     0.07772   0.07054   0.95429   0.00000  Uiso   1.00
C735   C     0.18757   0.31687   0.74237   0.00000  Uiso   1.00
C736   C     0.14484   0.01634   0.75653   0.00000  Uiso   1.00
N737   N     0.31678   0.15265   0.73783   0.00000  Uiso   1.00
N738   N     0.01656   0.18068   0.76217   0.00000  Uiso   1.00
S739   S     0.13603   0.05993   0.60474   0.00000  Uiso   1.00
O740   O     0.07903   0.03543   0.60550   0.00000  Uiso   1.00
O741   O     0.17448   0.02945   0.57162   0.00000  Uiso   1.00
O742   O     0.15750   0.05788   0.65510   0.00000  Uiso   1.00
H743   H     0.14039   0.02634   0.66569   0.00000  Uiso   1.00
S744   S     0.20002   0.27554   0.89033   0.00000  Uiso   1.00
O745   O     0.16606   0.31215   0.92152   0.00000  Uiso   1.00
O746   O     0.25949   0.29441   0.88655   0.00000  Uiso   1.00
O747   O     0.17798   0.27489   0.84011   0.00000  Uiso   1.00
H748   H     0.19510   0.30603   0.82875   0.00000  Uiso   1.00
N749   N     0.22205   0.23941   0.62076   0.00000  Uiso   1.00
O750   O     0.27614   0.23929   0.61547   0.00000  Uiso   1.00
O751   O     0.19684   0.27964   0.63832   0.00000  Uiso   1.00
N752   N     0.12052   0.09089   0.87956   0.00000  Uiso   1.00
O753   O     0.06709   0.08415   0.87854   0.00000  Uiso   1.00
O754   O     0.15467   0.06165   0.85440   0.00000  Uiso   1.00
N755   N     0.27000   0.27785   0.96654   0.00000  Uiso   1.00
O756   O     0.31688   0.25811   0.95020   0.00000  Uiso   1.00
O757   O     0.26872   0.32609   0.97813   0.00000  Uiso   1.00
N758   N     0.04671   0.07435   0.53828   0.00000  Uiso   1.00
O759   O     0.01329   0.09975   0.56758   0.00000  Uiso   1.00
O760   O     0.03067   0.03006   0.52161   0.00000  Uiso   1.00
S761   S     0.25496   0.00012   0.71550   0.00000  Uiso   1.00
O762   O     0.24818   0.03145   0.67826   0.00000  Uiso   1.00
O763   O     0.28821   0.02980   0.74864   0.00000  Uiso   1.00
O764   O     0.29215   0.28413   0.69219   0.00000  Uiso   1.00
H765   H     0.31025   0.27042   0.71597   0.00000  Uiso   1.00
S766   S     0.07834   0.00104   0.78619   0.00000  Uiso   1.00
O767   O     0.04630   0.29641   0.75871   0.00000  Uiso   1.00
O768   O     0.08778   0.31385   0.82894   0.00000  Uiso   1.00
O769   O     0.03682   0.05050   0.79981   0.00000  Uiso   1.00
H770   H     0.00575   0.03782   0.81992   0.00000  Uiso   1.00
S771   S     0.00740   0.13579   0.68354   0.00000  Uiso   1.00
O772   O     0.29635   0.11111   0.65735   0.00000  Uiso   1.00
O773   O     0.02745   0.18188   0.66100   0.00000  Uiso   1.00
O774   O     0.05660   0.09332   0.68284   0.00000  Uiso   1.00
H775   H     0.03685   0.06266   0.69298   0.00000  Uiso   1.00
S776   S     0.32601   0.19956   0.81582   0.00000  Uiso   1.00
O777   O     0.28076   0.23592   0.81472   0.00000  Uiso   1.00
O778   O     0.30681   0.15432   0.84000   0.00000  Uiso   1.00
O779   O     0.04205   0.23002   0.84373   0.00000  Uiso   1.00
H780   H     0.03307   0.22297   0.87511   0.00000  Uiso   1.00
O781   O     0.46308   0.24619   0.75298   0.00000  Uiso   1.00
O782   O     0.53692   0.08714   0.74701   0.00000  Uiso   1.00
O783   O     0.55946   0.23721   0.74518   0.00000  Uiso   1.00
O784   O     0.44054   0.09613   0.75481   0.00000  Uiso   1.00
C785   C     0.51407   0.26395   0.74734   0.00000  Uiso   1.00
C786   C     0.48574   0.06925   0.75172   0.00000  Uiso   1.00
O787   O     0.45181   0.17117   0.81997   0.00000  Uiso   1.00
O788   O     0.54819   0.16216   0.68002   0.00000  Uiso   1.00
O789   O     0.54819   0.16219   0.81217   0.00000  Uiso   1.00
O790   O     0.45181   0.17115   0.68782   0.00000  Uiso   1.00
C791   C     0.50076   0.17094   0.83646   0.00000  Uiso   1.00
C792   C     0.49933   0.16293   0.66357   0.00000  Uiso   1.00
Zn793  Zn    0.43565   0.17266   0.75521   0.00000  Uiso   1.00
Zn794  Zn    0.56435   0.16067   0.74479   0.00000  Uiso   1.00
C795   C     0.47093   0.12332   0.58947   0.00000  Uiso   1.00
C796   C     0.52560   0.21459   0.91073   0.00000  Uiso   1.00
C797   C     0.49845   0.16208   0.61528   0.00000  Uiso   1.00
C798   C     0.50152   0.17332   0.88502   0.00000  Uiso   1.00
C799   C     0.52485   0.20264   0.59514   0.00000  Uiso   1.00
C800   C     0.47541   0.13294   0.90583   0.00000  Uiso   1.00
C801   C     0.52451   0.20584   0.54967   0.00000  Uiso   1.00
C802   C     0.47007   0.13363   0.95196   0.00000  Uiso   1.00
C803   C     0.49510   0.16951   0.52404   0.00000  Uiso   1.00
C804   C     0.49789   0.17149   0.97753   0.00000  Uiso   1.00
C805   C     0.46370   0.13075   0.54473   0.00000  Uiso   1.00
C806   C     0.52909   0.21062   0.95680   0.00000  Uiso   1.00
C807   C     0.55477   0.24431   0.52944   0.00000  Uiso   1.00
C808   C     0.43602   0.09766   0.97299   0.00000  Uiso   1.00
C809   C     0.55983   0.24566   0.98390   0.00000  Uiso   1.00
C810   C     0.42892   0.09880   0.51890   0.00000  Uiso   1.00
H811   H     0.57826   0.27247   0.54850   0.00000  Uiso   1.00
H812   H     0.41106   0.07054   0.95429   0.00000  Uiso   1.00
C813   C     0.52090   0.31687   0.74237   0.00000  Uiso   1.00
C814   C     0.47818   0.01634   0.75653   0.00000  Uiso   1.00
N815   N     0.65011   0.15265   0.73783   0.00000  Uiso   1.00
N816   N     0.34989   0.18068   0.76217   0.00000  Uiso   1.00
S817   S     0.46936   0.05993   0.60474   0.00000  Uiso   1.00
O818   O     0.41236   0.03543   0.60550   0.00000  Uiso   1.00
O819   O     0.50781   0.02945   0.57162   0.00000  Uiso   1.00
O820   O     0.49083   0.05788   0.65510   0.00000  Uiso   1.00
H821   H     0.47372   0.02634   0.66569   0.00000  Uiso   1.00
S822   S     0.53336   0.27554   0.89033   0.00000  Uiso   1.00
O823   O     0.49939   0.31215   0.92152   0.00000  Uiso   1.00
O824   O     0.59282   0.29441   0.88655   0.00000  Uiso   1.00
O825   O     0.51131   0.27489   0.84011   0.00000  Uiso   1.00
H826   H     0.52843   0.30603   0.82875   0.00000  Uiso   1.00
N827   N     0.55539   0.23941   0.62076   0.00000  Uiso   1.00
O828   O     0.60948   0.23929   0.61547   0.00000  Uiso   1.00
O829   O     0.53017   0.27964   0.63832   0.00000  Uiso   1.00
N830   N     0.45386   0.09089   0.87956   0.00000  Uiso   1.00
O831   O     0.40042   0.08415   0.87854   0.00000  Uiso   1.00
O832   O     0.48800   0.06165   0.85440   0.00000  Uiso   1.00
N833   N     0.60334   0.27785   0.96654   0.00000  Uiso   1.00
O834   O     0.65021   0.25811   0.95020   0.00000  Uiso   1.00
O835   O     0.60205   0.32609   0.97813   0.00000  Uiso   1.00
N836   N     0.38004   0.07435   0.53828   0.00000  Uiso   1.00
O837   O     0.34662   0.09975   0.56758   0.00000  Uiso   1.00
O838   O     0.36400   0.03006   0.52161   0.00000  Uiso   1.00
S839   S     0.58829   0.00012   0.71550   0.00000  Uiso   1.00
O840   O     0.58151   0.03145   0.67826   0.00000  Uiso   1.00
O841   O     0.62154   0.02980   0.74864   0.00000  Uiso   1.00
O842   O     0.62548   0.28413   0.69219   0.00000  Uiso   1.00
H843   H     0.64358   0.27042   0.71597   0.00000  Uiso   1.00
S844   S     0.41168   0.00104   0.78619   0.00000  Uiso   1.00
O845   O     0.37963   0.29641   0.75871   0.00000  Uiso   1.00
O846   O     0.42112   0.31385   0.82894   0.00000  Uiso   1.00
O847   O     0.37016   0.05050   0.79981   0.00000  Uiso   1.00
H848   H     0.33908   0.03782   0.81992   0.00000  Uiso   1.00
S849   S     0.34074   0.13579   0.68354   0.00000  Uiso   1.00
O850   O     0.62968   0.11111   0.65735   0.00000  Uiso   1.00
O851   O     0.36079   0.18188   0.66100   0.00000  Uiso   1.00
O852   O     0.38994   0.09332   0.68284   0.00000  Uiso   1.00
H853   H     0.37019   0.06266   0.69298   0.00000  Uiso   1.00
S854   S     0.65935   0.19956   0.81582   0.00000  Uiso   1.00
O855   O     0.61410   0.23592   0.81472   0.00000  Uiso   1.00
O856   O     0.64015   0.15432   0.84000   0.00000  Uiso   1.00
O857   O     0.37538   0.23002   0.84373   0.00000  Uiso   1.00
H858   H     0.36641   0.22297   0.87511   0.00000  Uiso   1.00
O859   O     0.79642   0.24619   0.75298   0.00000  Uiso   1.00
O860   O     0.87025   0.08714   0.74701   0.00000  Uiso   1.00
O861   O     0.89280   0.23721   0.74518   0.00000  Uiso   1.00
O862   O     0.77387   0.09613   0.75481   0.00000  Uiso   1.00
C863   C     0.84740   0.26395   0.74734   0.00000  Uiso   1.00
C864   C     0.81907   0.06925   0.75172   0.00000  Uiso   1.00
O865   O     0.78514   0.17117   0.81997   0.00000  Uiso   1.00
O866   O     0.88153   0.16216   0.68002   0.00000  Uiso   1.00
O867   O     0.88152   0.16219   0.81217   0.00000  Uiso   1.00
O868   O     0.78515   0.17115   0.68782   0.00000  Uiso   1.00
C869   C     0.83409   0.17094   0.83646   0.00000  Uiso   1.00
C870   C     0.83267   0.16293   0.66357   0.00000  Uiso   1.00
Zn871  Zn    0.76898   0.17266   0.75521   0.00000  Uiso   1.00
Zn872  Zn    0.89769   0.16067   0.74479   0.00000  Uiso   1.00
C873   C     0.80426   0.12332   0.58947   0.00000  Uiso   1.00
C874   C     0.85894   0.21459   0.91073   0.00000  Uiso   1.00
C875   C     0.83178   0.16208   0.61528   0.00000  Uiso   1.00
C876   C     0.83486   0.17332   0.88502   0.00000  Uiso   1.00
C877   C     0.85818   0.20264   0.59514   0.00000  Uiso   1.00
C878   C     0.80874   0.13294   0.90583   0.00000  Uiso   1.00
C879   C     0.85784   0.20584   0.54967   0.00000  Uiso   1.00
C880   C     0.80341   0.13363   0.95196   0.00000  Uiso   1.00
C881   C     0.82844   0.16951   0.52404   0.00000  Uiso   1.00
C882   C     0.83122   0.17149   0.97753   0.00000  Uiso   1.00
C883   C     0.79703   0.13075   0.54473   0.00000  Uiso   1.00
C884   C     0.86242   0.21062   0.95680   0.00000  Uiso   1.00
C885   C     0.88810   0.24431   0.52944   0.00000  Uiso   1.00
C886   C     0.76936   0.09766   0.97299   0.00000  Uiso   1.00
C887   C     0.89317   0.24566   0.98390   0.00000  Uiso   1.00
C888   C     0.76225   0.09880   0.51890   0.00000  Uiso   1.00
H889   H     0.91159   0.27247   0.54850   0.00000  Uiso   1.00
H890   H     0.74439   0.07054   0.95429   0.00000  Uiso   1.00
C891   C     0.85424   0.31687   0.74237   0.00000  Uiso   1.00
C892   C     0.81151   0.01634   0.75653   0.00000  Uiso   1.00
N893   N     0.98344   0.15265   0.73783   0.00000  Uiso   1.00
N894   N     0.68322   0.18068   0.76217   0.00000  Uiso   1.00
S895   S     0.80269   0.05993   0.60474   0.00000  Uiso   1.00
O896   O     0.74570   0.03543   0.60550   0.00000  Uiso   1.00
O897   O     0.84114   0.02945   0.57162   0.00000  Uiso   1.00
O898   O     0.82417   0.05788   0.65510   0.00000  Uiso   1.00
H899   H     0.80706   0.02634   0.66569   0.00000  Uiso   1.00
S900   S     0.86669   0.27554   0.89033   0.00000  Uiso   1.00
O901   O     0.83273   0.31215   0.92152   0.00000  Uiso   1.00
O902   O     0.92615   0.29441   0.88655   0.00000  Uiso   1.00
O903   O     0.84464   0.27489   0.84011   0.00000  Uiso   1.00
H904   H     0.86176   0.30603   0.82875   0.00000  Uiso   1.00
N905   N     0.88872   0.23941   0.62076   0.00000  Uiso   1.00
O906   O     0.94281   0.23929   0.61547   0.00000  Uiso   1.00
O907   O     0.86351   0.27964   0.63832   0.00000  Uiso   1.00
N908   N     0.78719   0.09089   0.87956   0.00000  Uiso   1.00
O909   O     0.73375   0.08415   0.87854   0.00000  Uiso   1.00
O910   O     0.82133   0.06165   0.85440   0.00000  Uiso   1.00
N911   N     0.93667   0.27785   0.96654   0.00000  Uiso   1.00
O912   O     0.98354   0.25811   0.95020   0.00000  Uiso   1.00
O913   O     0.93539   0.32609   0.97813   0.00000  Uiso   1.00
N914   N     0.71338   0.07435   0.53828   0.00000  Uiso   1.00
O915   O     0.67996   0.09975   0.56758   0.00000  Uiso   1.00
O916   O     0.69733   0.03006   0.52161   0.00000  Uiso   1.00
S917   S     0.92162   0.00012   0.71550   0.00000  Uiso   1.00
O918   O     0.91485   0.03145   0.67826   0.00000  Uiso   1.00
O919   O     0.95487   0.02980   0.74864   0.00000  Uiso   1.00
O920   O     0.95881   0.28413   0.69219   0.00000  Uiso   1.00
H921   H     0.97691   0.27042   0.71597   0.00000  Uiso   1.00
S922   S     0.74501   0.00104   0.78619   0.00000  Uiso   1.00
O923   O     0.71296   0.29641   0.75871   0.00000  Uiso   1.00
O924   O     0.75445   0.31385   0.82894   0.00000  Uiso   1.00
O925   O     0.70349   0.05050   0.79981   0.00000  Uiso   1.00
H926   H     0.67242   0.03782   0.81992   0.00000  Uiso   1.00
S927   S     0.67407   0.13579   0.68354   0.00000  Uiso   1.00
O928   O     0.96301   0.11111   0.65735   0.00000  Uiso   1.00
O929   O     0.69412   0.18188   0.66100   0.00000  Uiso   1.00
O930   O     0.72327   0.09332   0.68284   0.00000  Uiso   1.00
H931   H     0.70352   0.06266   0.69298   0.00000  Uiso   1.00
S932   S     0.99268   0.19956   0.81582   0.00000  Uiso   1.00
O933   O     0.94743   0.23592   0.81472   0.00000  Uiso   1.00
O934   O     0.97348   0.15432   0.84000   0.00000  Uiso   1.00
O935   O     0.70872   0.23002   0.84373   0.00000  Uiso   1.00
H936   H     0.69974   0.22297   0.87511   0.00000  Uiso   1.00
O937   O     0.12975   0.57952   0.75298   0.00000  Uiso   1.00
O938   O     0.20358   0.42048   0.74701   0.00000  Uiso   1.00
O939   O     0.22613   0.57054   0.74518   0.00000  Uiso   1.00
O940   O     0.10720   0.42946   0.75481   0.00000  Uiso   1.00
C941   C     0.18074   0.59728   0.74734   0.00000  Uiso   1.00
C942   C     0.15241   0.40258   0.75172   0.00000  Uiso   1.00
O943   O     0.11847   0.50450   0.81997   0.00000  Uiso   1.00
O944   O     0.21486   0.49550   0.68002   0.00000  Uiso   1.00
O945   O     0.21485   0.49552   0.81217   0.00000  Uiso   1.00
O946   O     0.11848   0.50448   0.68782   0.00000  Uiso   1.00
C947   C     0.16743   0.50428   0.83646   0.00000  Uiso   1.00
C948   C     0.16600   0.49627   0.66357   0.00000  Uiso   1.00
Zn949  Zn    0.10231   0.50600   0.75521   0.00000  Uiso   1.00
Zn950  Zn    0.23102   0.49400   0.74479   0.00000  Uiso   1.00
C951   C     0.13760   0.45665   0.58947   0.00000  Uiso   1.00
C952   C     0.19227   0.54793   0.91073   0.00000  Uiso   1.00
C953   C     0.16512   0.49542   0.61528   0.00000  Uiso   1.00
C954   C     0.16819   0.50665   0.88502   0.00000  Uiso   1.00
C955   C     0.19151   0.53598   0.59514   0.00000  Uiso   1.00
C956   C     0.14207   0.46628   0.90583   0.00000  Uiso   1.00
C957   C     0.19118   0.53917   0.54967   0.00000  Uiso   1.00
C958   C     0.13674   0.46697   0.95196   0.00000  Uiso   1.00
C959   C     0.16177   0.50285   0.52404   0.00000  Uiso   1.00
C960   C     0.16456   0.50482   0.97753   0.00000  Uiso   1.00
C961   C     0.13036   0.46408   0.54473   0.00000  Uiso   1.00
C962   C     0.19575   0.54395   0.95680   0.00000  Uiso   1.00
C963   C     0.22144   0.57764   0.52944   0.00000  Uiso   1.00
C964   C     0.10269   0.43099   0.97299   0.00000  Uiso   1.00
C965   C     0.22650   0.57899   0.98390   0.00000  Uiso   1.00
C966   C     0.09558   0.43213   0.51890   0.00000  Uiso   1.00
H967   H     0.24493   0.60581   0.54850   0.00000  Uiso   1.00
H968   H     0.07772   0.40387   0.95429   0.00000  Uiso   1.00
C969   C     0.18757   0.65021   0.74237   0.00000  Uiso   1.00
C970   C     0.14484   0.34967   0.75653   0.00000  Uiso   1.00
N971   N     0.31678   0.48598   0.73783   0.00000  Uiso   1.00
N972   N     0.01656   0.51402   0.76217   0.00000  Uiso   1.00
S973   S     0.13603   0.39326   0.60474   0.00000  Uiso   1.00
O974   O     0.07903   0.36876   0.60550   0.00000  Uiso   1.00
O975   O     0.17448   0.36279   0.57162   0.00000  Uiso   1.00
O976   O     0.15750   0.39122   0.65510   0.00000  Uiso   1.00
H977   H     0.14039   0.35967   0.66569   0.00000  Uiso   1.00
S978   S     0.20002   0.60887   0.89033   0.00000  Uiso   1.00
O979   O     0.16606   0.64549   0.92152   0.00000  Uiso   1.00
O980   O     0.25949   0.62775   0.88655   0.00000  Uiso   1.00
O981   O     0.17798   0.60823   0.84011   0.00000  Uiso   1.00
H982   H     0.19510   0.63936   0.82875   0.00000  Uiso   1.00
N983   N     0.22205   0.57274   0.62076   0.00000  Uiso   1.00
O984   O     0.27614   0.57262   0.61547   0.00000  Uiso   1.00
O985   O     0.19684   0.61297   0.63832   0.00000  Uiso   1.00
N986   N     0.12052   0.42423   0.87956   0.00000  Uiso   1.00
O987   O     0.06709   0.41748   0.87854   0.00000  Uiso   1.00
O988   O     0.15467   0.39499   0.85440   0.00000  Uiso   1.00
N989   N     0.27000   0.61118   0.96654   0.00000  Uiso   1.00
O990   O     0.31688   0.59145   0.95020   0.00000  Uiso   1.00
O991   O     0.26872   0.65943   0.97813   0.00000  Uiso   1.00
N992   N     0.04671   0.40769   0.53828   0.00000  Uiso   1.00
O993   O     0.01329   0.43308   0.56758   0.00000  Uiso   1.00
O994   O     0.03067   0.36339   0.52161   0.00000  Uiso   1.00
S995   S     0.25496   0.33345   0.71550   0.00000  Uiso   1.00
O996   O     0.24818   0.36478   0.67826   0.00000  Uiso   1.00
O997   O     0.28821   0.36313   0.74864   0.00000  Uiso   1.00
O998   O     0.29215   0.61746   0.69219   0.00000  Uiso   1.00
H999   H     0.31025   0.60375   0.71597   0.00000  Uiso   1.00
S1000  S     0.07834   0.33437   0.78619   0.00000  Uiso   1.00
O1001  O     0.04630   0.62974   0.75871   0.00000  Uiso   1.00
O1002  O     0.08778   0.64718   0.82894   0.00000  Uiso   1.00
O1003  O     0.03682   0.38384   0.79981   0.00000  Uiso   1.00
H1004  H     0.00575   0.37115   0.81992   0.00000  Uiso   1.00
S1005  S     0.00740   0.46913   0.68354   0.00000  Uiso   1.00
O1006  O     0.29635   0.44444   0.65735   0.00000  Uiso   1.00
O1007  O     0.02745   0.51521   0.66100   0.00000  Uiso   1.00
O1008  O     0.05660   0.42666   0.68284   0.00000  Uiso   1.00
H1009  H     0.03685   0.39599   0.69298   0.00000  Uiso   1.00
S1010  S     0.32601   0.53289   0.81582   0.00000  Uiso   1.00
O1011  O     0.28076   0.56926   0.81472   0.00000  Uiso   1.00
O1012  O     0.30681   0.48766   0.84000   0.00000  Uiso   1.00
O1013  O     0.04205   0.56335   0.84373   0.00000  Uiso   1.00
H1014  H     0.03307   0.55630   0.87511   0.00000  Uiso   1.00
O1015  O     0.46308   0.57952   0.75298   0.00000  Uiso   1.00
O1016  O     0.53692   0.42048   0.74701   0.00000  Uiso   1.00
O1017  O     0.55946   0.57054   0.74518   0.00000  Uiso   1.00
O1018  O     0.44054   0.42946   0.75481   0.00000  Uiso   1.00
C1019  C     0.51407   0.59728   0.74734   0.00000  Uiso   1.00
C1020  C     0.48574   0.40258   0.75172   0.00000  Uiso   1.00
O1021  O     0.45181   0.50450   0.81997   0.00000  Uiso   1.00
O1022  O     0.54819   0.49550   0.68002   0.00000  Uiso   1.00
O1023  O     0.54819   0.49552   0.81217   0.00000  Uiso   1.00
O1024  O     0.45181   0.50448   0.68782   0.00000  Uiso   1.00
C1025  C     0.50076   0.50428   0.83646   0.00000  Uiso   1.00
C1026  C     0.49933   0.49627   0.66357   0.00000  Uiso   1.00
Zn1027 Zn    0.43565   0.50600   0.75521   0.00000  Uiso   1.00
Zn1028 Zn    0.56435   0.49400   0.74479   0.00000  Uiso   1.00
C1029  C     0.47093   0.45665   0.58947   0.00000  Uiso   1.00
C1030  C     0.52560   0.54793   0.91073   0.00000  Uiso   1.00
C1031  C     0.49845   0.49542   0.61528   0.00000  Uiso   1.00
C1032  C     0.50152   0.50665   0.88502   0.00000  Uiso   1.00
C1033  C     0.52485   0.53598   0.59514   0.00000  Uiso   1.00
C1034  C     0.47541   0.46628   0.90583   0.00000  Uiso   1.00
C1035  C     0.52451   0.53917   0.54967   0.00000  Uiso   1.00
C1036  C     0.47007   0.46697   0.95196   0.00000  Uiso   1.00
C1037  C     0.49510   0.50285   0.52404   0.00000  Uiso   1.00
C1038  C     0.49789   0.50482   0.97753   0.00000  Uiso   1.00
C1039  C     0.46370   0.46408   0.54473   0.00000  Uiso   1.00
C1040  C     0.52909   0.54395   0.95680   0.00000  Uiso   1.00
C1041  C     0.55477   0.57764   0.52944   0.00000  Uiso   1.00
C1042  C     0.43602   0.43099   0.97299   0.00000  Uiso   1.00
C1043  C     0.55983   0.57899   0.98390   0.00000  Uiso   1.00
C1044  C     0.42892   0.43213   0.51890   0.00000  Uiso   1.00
H1045  H     0.57826   0.60581   0.54850   0.00000  Uiso   1.00
H1046  H     0.41106   0.40387   0.95429   0.00000  Uiso   1.00
C1047  C     0.52090   0.65021   0.74237   0.00000  Uiso   1.00
C1048  C     0.47818   0.34967   0.75653   0.00000  Uiso   1.00
N1049  N     0.65011   0.48598   0.73783   0.00000  Uiso   1.00
N1050  N     0.34989   0.51402   0.76217   0.00000  Uiso   1.00
S1051  S     0.46936   0.39326   0.60474   0.00000  Uiso   1.00
O1052  O     0.41236   0.36876   0.60550   0.00000  Uiso   1.00
O1053  O     0.50781   0.36279   0.57162   0.00000  Uiso   1.00
O1054  O     0.49083   0.39122   0.65510   0.00000  Uiso   1.00
H1055  H     0.47372   0.35967   0.66569   0.00000  Uiso   1.00
S1056  S     0.53336   0.60887   0.89033   0.00000  Uiso   1.00
O1057  O     0.49939   0.64549   0.92152   0.00000  Uiso   1.00
O1058  O     0.59282   0.62775   0.88655   0.00000  Uiso   1.00
O1059  O     0.51131   0.60823   0.84011   0.00000  Uiso   1.00
H1060  H     0.52843   0.63936   0.82875   0.00000  Uiso   1.00
N1061  N     0.55539   0.57274   0.62076   0.00000  Uiso   1.00
O1062  O     0.60948   0.57262   0.61547   0.00000  Uiso   1.00
O1063  O     0.53017   0.61297   0.63832   0.00000  Uiso   1.00
N1064  N     0.45386   0.42423   0.87956   0.00000  Uiso   1.00
O1065  O     0.40042   0.41748   0.87854   0.00000  Uiso   1.00
O1066  O     0.48800   0.39499   0.85440   0.00000  Uiso   1.00
N1067  N     0.60334   0.61118   0.96654   0.00000  Uiso   1.00
O1068  O     0.65021   0.59145   0.95020   0.00000  Uiso   1.00
O1069  O     0.60205   0.65943   0.97813   0.00000  Uiso   1.00
N1070  N     0.38004   0.40769   0.53828   0.00000  Uiso   1.00
O1071  O     0.34662   0.43308   0.56758   0.00000  Uiso   1.00
O1072  O     0.36400   0.36339   0.52161   0.00000  Uiso   1.00
S1073  S     0.58829   0.33345   0.71550   0.00000  Uiso   1.00
O1074  O     0.58151   0.36478   0.67826   0.00000  Uiso   1.00
O1075  O     0.62154   0.36313   0.74864   0.00000  Uiso   1.00
O1076  O     0.62548   0.61746   0.69219   0.00000  Uiso   1.00
H1077  H     0.64358   0.60375   0.71597   0.00000  Uiso   1.00
S1078  S     0.41168   0.33437   0.78619   0.00000  Uiso   1.00
O1079  O     0.37963   0.62974   0.75871   0.00000  Uiso   1.00
O1080  O     0.42112   0.64718   0.82894   0.00000  Uiso   1.00
O1081  O     0.37016   0.38384   0.79981   0.00000  Uiso   1.00
H1082  H     0.33908   0.37115   0.81992   0.00000  Uiso   1.00
S1083  S     0.34074   0.46913   0.68354   0.00000  Uiso   1.00
O1084  O     0.62968   0.44444   0.65735   0.00000  Uiso   1.00
O1085  O     0.36079   0.51521   0.66100   0.00000  Uiso   1.00
O1086  O     0.38994   0.42666   0.68284   0.00000  Uiso   1.00
H1087  H     0.37019   0.39599   0.69298   0.00000  Uiso   1.00
S1088  S     0.65935   0.53289   0.81582   0.00000  Uiso   1.00
O1089  O     0.61410   0.56926   0.81472   0.00000  Uiso   1.00
O1090  O     0.64015   0.48766   0.84000   0.00000  Uiso   1.00
O1091  O     0.37538   0.56335   0.84373   0.00000  Uiso   1.00
H1092  H     0.36641   0.55630   0.87511   0.00000  Uiso   1.00
O1093  O     0.79642   0.57952   0.75298   0.00000  Uiso   1.00
O1094  O     0.87025   0.42048   0.74701   0.00000  Uiso   1.00
O1095  O     0.89280   0.57054   0.74518   0.00000  Uiso   1.00
O1096  O     0.77387   0.42946   0.75481   0.00000  Uiso   1.00
C1097  C     0.84740   0.59728   0.74734   0.00000  Uiso   1.00
C1098  C     0.81907   0.40258   0.75172   0.00000  Uiso   1.00
O1099  O     0.78514   0.50450   0.81997   0.00000  Uiso   1.00
O1100  O     0.88153   0.49550   0.68002   0.00000  Uiso   1.00
O1101  O     0.88152   0.49552   0.81217   0.00000  Uiso   1.00
O1102  O     0.78515   0.50448   0.68782   0.00000  Uiso   1.00
C1103  C     0.83409   0.50428   0.83646   0.00000  Uiso   1.00
C1104  C     0.83267   0.49627   0.66357   0.00000  Uiso   1.00
Zn1105 Zn    0.76898   0.50600   0.75521   0.00000  Uiso   1.00
Zn1106 Zn    0.89769   0.49400   0.74479   0.00000  Uiso   1.00
C1107  C     0.80426   0.45665   0.58947   0.00000  Uiso   1.00
C1108  C     0.85894   0.54793   0.91073   0.00000  Uiso   1.00
C1109  C     0.83178   0.49542   0.61528   0.00000  Uiso   1.00
C1110  C     0.83486   0.50665   0.88502   0.00000  Uiso   1.00
C1111  C     0.85818   0.53598   0.59514   0.00000  Uiso   1.00
C1112  C     0.80874   0.46628   0.90583   0.00000  Uiso   1.00
C1113  C     0.85784   0.53917   0.54967   0.00000  Uiso   1.00
C1114  C     0.80341   0.46697   0.95196   0.00000  Uiso   1.00
C1115  C     0.82844   0.50285   0.52404   0.00000  Uiso   1.00
C1116  C     0.83122   0.50482   0.97753   0.00000  Uiso   1.00
C1117  C     0.79703   0.46408   0.54473   0.00000  Uiso   1.00
C1118  C     0.86242   0.54395   0.95680   0.00000  Uiso   1.00
C1119  C     0.88810   0.57764   0.52944   0.00000  Uiso   1.00
C1120  C     0.76936   0.43099   0.97299   0.00000  Uiso   1.00
C1121  C     0.89317   0.57899   0.98390   0.00000  Uiso   1.00
C1122  C     0.76225   0.43213   0.51890   0.00000  Uiso   1.00
H1123  H     0.91159   0.60581   0.54850   0.00000  Uiso   1.00
H1124  H     0.74439   0.40387   0.95429   0.00000  Uiso   1.00
C1125  C     0.85424   0.65021   0.74237   0.00000  Uiso   1.00
C1126  C     0.81151   0.34967   0.75653   0.00000  Uiso   1.00
N1127  N     0.98344   0.48598   0.73783   0.00000  Uiso   1.00
N1128  N     0.68322   0.51402   0.76217   0.00000  Uiso   1.00
S1129  S     0.80269   0.39326   0.60474   0.00000  Uiso   1.00
O1130  O     0.74570   0.36876   0.60550   0.00000  Uiso   1.00
O1131  O     0.84114   0.36279   0.57162   0.00000  Uiso   1.00
O1132  O     0.82417   0.39122   0.65510   0.00000  Uiso   1.00
H1133  H     0.80706   0.35967   0.66569   0.00000  Uiso   1.00
S1134  S     0.86669   0.60887   0.89033   0.00000  Uiso   1.00
O1135  O     0.83273   0.64549   0.92152   0.00000  Uiso   1.00
O1136  O     0.92615   0.62775   0.88655   0.00000  Uiso   1.00
O1137  O     0.84464   0.60823   0.84011   0.00000  Uiso   1.00
H1138  H     0.86176   0.63936   0.82875   0.00000  Uiso   1.00
N1139  N     0.88872   0.57274   0.62076   0.00000  Uiso   1.00
O1140  O     0.94281   0.57262   0.61547   0.00000  Uiso   1.00
O1141  O     0.86351   0.61297   0.63832   0.00000  Uiso   1.00
N1142  N     0.78719   0.42423   0.87956   0.00000  Uiso   1.00
O1143  O     0.73375   0.41748   0.87854   0.00000  Uiso   1.00
O1144  O     0.82133   0.39499   0.85440   0.00000  Uiso   1.00
N1145  N     0.93667   0.61118   0.96654   0.00000  Uiso   1.00
O1146  O     0.98354   0.59145   0.95020   0.00000  Uiso   1.00
O1147  O     0.93539   0.65943   0.97813   0.00000  Uiso   1.00
N1148  N     0.71338   0.40769   0.53828   0.00000  Uiso   1.00
O1149  O     0.67996   0.43308   0.56758   0.00000  Uiso   1.00
O1150  O     0.69733   0.36339   0.52161   0.00000  Uiso   1.00
S1151  S     0.92162   0.33345   0.71550   0.00000  Uiso   1.00
O1152  O     0.91485   0.36478   0.67826   0.00000  Uiso   1.00
O1153  O     0.95487   0.36313   0.74864   0.00000  Uiso   1.00
O1154  O     0.95881   0.61746   0.69219   0.00000  Uiso   1.00
H1155  H     0.97691   0.60375   0.71597   0.00000  Uiso   1.00
S1156  S     0.74501   0.33437   0.78619   0.00000  Uiso   1.00
O1157  O     0.71296   0.62974   0.75871   0.00000  Uiso   1.00
O1158  O     0.75445   0.64718   0.82894   0.00000  Uiso   1.00
O1159  O     0.70349   0.38384   0.79981   0.00000  Uiso   1.00
H1160  H     0.67242   0.37115   0.81992   0.00000  Uiso   1.00
S1161  S     0.67407   0.46913   0.68354   0.00000  Uiso   1.00
O1162  O     0.96301   0.44444   0.65735   0.00000  Uiso   1.00
O1163  O     0.69412   0.51521   0.66100   0.00000  Uiso   1.00
O1164  O     0.72327   0.42666   0.68284   0.00000  Uiso   1.00
H1165  H     0.70352   0.39599   0.69298   0.00000  Uiso   1.00
S1166  S     0.99268   0.53289   0.81582   0.00000  Uiso   1.00
O1167  O     0.94743   0.56926   0.81472   0.00000  Uiso   1.00
O1168  O     0.97348   0.48766   0.84000   0.00000  Uiso   1.00
O1169  O     0.70872   0.56335   0.84373   0.00000  Uiso   1.00
H1170  H     0.69974   0.55630   0.87511   0.00000  Uiso   1.00
O1171  O     0.12975   0.91286   0.75298   0.00000  Uiso   1.00
O1172  O     0.20358   0.75381   0.74701   0.00000  Uiso   1.00
O1173  O     0.22613   0.90387   0.74518   0.00000  Uiso   1.00
O1174  O     0.10720   0.76279   0.75481   0.00000  Uiso   1.00
C1175  C     0.18074   0.93061   0.74734   0.00000  Uiso   1.00
C1176  C     0.15241   0.73591   0.75172   0.00000  Uiso   1.00
O1177  O     0.11847   0.83784   0.81997   0.00000  Uiso   1.00
O1178  O     0.21486   0.82883   0.68002   0.00000  Uiso   1.00
O1179  O     0.21485   0.82885   0.81217   0.00000  Uiso   1.00
O1180  O     0.11848   0.83781   0.68782   0.00000  Uiso   1.00
C1181  C     0.16743   0.83761   0.83646   0.00000  Uiso   1.00
C1182  C     0.16600   0.82960   0.66357   0.00000  Uiso   1.00
Zn1183 Zn    0.10231   0.83933   0.75521   0.00000  Uiso   1.00
Zn1184 Zn    0.23102   0.82734   0.74479   0.00000  Uiso   1.00
C1185  C     0.13760   0.78999   0.58947   0.00000  Uiso   1.00
C1186  C     0.19227   0.88126   0.91073   0.00000  Uiso   1.00
C1187  C     0.16512   0.82875   0.61528   0.00000  Uiso   1.00
C1188  C     0.16819   0.83999   0.88502   0.00000  Uiso   1.00
C1189  C     0.19151   0.86931   0.59514   0.00000  Uiso   1.00
C1190  C     0.14207   0.79961   0.90583   0.00000  Uiso   1.00
C1191  C     0.19118   0.87251   0.54967   0.00000  Uiso   1.00
C1192  C     0.13674   0.80030   0.95196   0.00000  Uiso   1.00
C1193  C     0.16177   0.83618   0.52404   0.00000  Uiso   1.00
C1194  C     0.16456   0.83815   0.97753   0.00000  Uiso   1.00
C1195  C     0.13036   0.79741   0.54473   0.00000  Uiso   1.00
C1196  C     0.19575   0.87729   0.95680   0.00000  Uiso   1.00
C1197  C     0.22144   0.91098   0.52944   0.00000  Uiso   1.00
C1198  C     0.10269   0.76433   0.97299   0.00000  Uiso   1.00
C1199  C     0.22650   0.91233   0.98390   0.00000  Uiso   1.00
C1200  C     0.09558   0.76547   0.51890   0.00000  Uiso   1.00
H1201  H     0.24493   0.93914   0.54850   0.00000  Uiso   1.00
H1202  H     0.07772   0.73720   0.95429   0.00000  Uiso   1.00
C1203  C     0.18757   0.98354   0.74237   0.00000  Uiso   1.00
C1204  C     0.14484   0.68301   0.75653   0.00000  Uiso   1.00
N1205  N     0.31678   0.81932   0.73783   0.00000  Uiso   1.00
N1206  N     0.01656   0.84735   0.76217   0.00000  Uiso   1.00
S1207  S     0.13603   0.72659   0.60474   0.00000  Uiso   1.00
O1208  O     0.07903   0.70209   0.60550   0.00000  Uiso   1.00
O1209  O     0.17448   0.69612   0.57162   0.00000  Uiso   1.00
O1210  O     0.15750   0.72455   0.65510   0.00000  Uiso   1.00
H1211  H     0.14039   0.69300   0.66569   0.00000  Uiso   1.00
S1212  S     0.20002   0.94221   0.89033   0.00000  Uiso   1.00
O1213  O     0.16606   0.97882   0.92152   0.00000  Uiso   1.00
O1214  O     0.25949   0.96108   0.88655   0.00000  Uiso   1.00
O1215  O     0.17798   0.94156   0.84011   0.00000  Uiso   1.00
H1216  H     0.19510   0.97269   0.82875   0.00000  Uiso   1.00
N1217  N     0.22205   0.90608   0.62076   0.00000  Uiso   1.00
O1218  O     0.27614   0.90595   0.61547   0.00000  Uiso   1.00
O1219  O     0.19684   0.94631   0.63832   0.00000  Uiso   1.00
N1220  N     0.12052   0.75756   0.87956   0.00000  Uiso   1.00
O1221  O     0.06709   0.75081   0.87854   0.00000  Uiso   1.00
O1222  O     0.15467   0.72832   0.85440   0.00000  Uiso   1.00
N1223  N     0.27000   0.94451   0.96654   0.00000  Uiso   1.00
O1224  O     0.31688   0.92478   0.95020   0.00000  Uiso   1.00
O1225  O     0.26872   0.99276   0.97813   0.00000  Uiso   1.00
N1226  N     0.04671   0.74102   0.53828   0.00000  Uiso   1.00
O1227  O     0.01329   0.76642   0.56758   0.00000  Uiso   1.00
O1228  O     0.03067   0.69672   0.52161   0.00000  Uiso   1.00
S1229  S     0.25496   0.66679   0.71550   0.00000  Uiso   1.00
O1230  O     0.24818   0.69811   0.67826   0.00000  Uiso   1.00
O1231  O     0.28821   0.69647   0.74864   0.00000  Uiso   1.00
O1232  O     0.29215   0.95079   0.69219   0.00000  Uiso   1.00
H1233  H     0.31025   0.93709   0.71597   0.00000  Uiso   1.00
S1234  S     0.07834   0.66771   0.78619   0.00000  Uiso   1.00
O1235  O     0.04630   0.96307   0.75871   0.00000  Uiso   1.00
O1236  O     0.08778   0.98051   0.82894   0.00000  Uiso   1.00
O1237  O     0.03682   0.71717   0.79981   0.00000  Uiso   1.00
H1238  H     0.00575   0.70449   0.81992   0.00000  Uiso   1.00
S1239  S     0.00740   0.80246   0.68354   0.00000  Uiso   1.00
O1240  O     0.29635   0.77778   0.65735   0.00000  Uiso   1.00
O1241  O     0.02745   0.84855   0.66100   0.00000  Uiso   1.00
O1242  O     0.05660   0.75999   0.68284   0.00000  Uiso   1.00
H1243  H     0.03685   0.72932   0.69298   0.00000  Uiso   1.00
S1244  S     0.32601   0.86623   0.81582   0.00000  Uiso   1.00
O1245  O     0.28076   0.90259   0.81472   0.00000  Uiso   1.00
O1246  O     0.30681   0.82099   0.84000   0.00000  Uiso   1.00
O1247  O     0.04205   0.89668   0.84373   0.00000  Uiso   1.00
H1248  H     0.03307   0.88964   0.87511   0.00000  Uiso   1.00
O1249  O     0.46308   0.91286   0.75298   0.00000  Uiso   1.00
O1250  O     0.53692   0.75381   0.74701   0.00000  Uiso   1.00
O1251  O     0.55946   0.90387   0.74518   0.00000  Uiso   1.00
O1252  O     0.44054   0.76279   0.75481   0.00000  Uiso   1.00
C1253  C     0.51407   0.93061   0.74734   0.00000  Uiso   1.00
C1254  C     0.48574   0.73591   0.75172   0.00000  Uiso   1.00
O1255  O     0.45181   0.83784   0.81997   0.00000  Uiso   1.00
O1256  O     0.54819   0.82883   0.68002   0.00000  Uiso   1.00
O1257  O     0.54819   0.82885   0.81217   0.00000  Uiso   1.00
O1258  O     0.45181   0.83781   0.68782   0.00000  Uiso   1.00
C1259  C     0.50076   0.83761   0.83646   0.00000  Uiso   1.00
C1260  C     0.49933   0.82960   0.66357   0.00000  Uiso   1.00
Zn1261 Zn    0.43565   0.83933   0.75521   0.00000  Uiso   1.00
Zn1262 Zn    0.56435   0.82734   0.74479   0.00000  Uiso   1.00
C1263  C     0.47093   0.78999   0.58947   0.00000  Uiso   1.00
C1264  C     0.52560   0.88126   0.91073   0.00000  Uiso   1.00
C1265  C     0.49845   0.82875   0.61528   0.00000  Uiso   1.00
C1266  C     0.50152   0.83999   0.88502   0.00000  Uiso   1.00
C1267  C     0.52485   0.86931   0.59514   0.00000  Uiso   1.00
C1268  C     0.47541   0.79961   0.90583   0.00000  Uiso   1.00
C1269  C     0.52451   0.87251   0.54967   0.00000  Uiso   1.00
C1270  C     0.47007   0.80030   0.95196   0.00000  Uiso   1.00
C1271  C     0.49510   0.83618   0.52404   0.00000  Uiso   1.00
C1272  C     0.49789   0.83815   0.97753   0.00000  Uiso   1.00
C1273  C     0.46370   0.79741   0.54473   0.00000  Uiso   1.00
C1274  C     0.52909   0.87729   0.95680   0.00000  Uiso   1.00
C1275  C     0.55477   0.91098   0.52944   0.00000  Uiso   1.00
C1276  C     0.43602   0.76433   0.97299   0.00000  Uiso   1.00
C1277  C     0.55983   0.91233   0.98390   0.00000  Uiso   1.00
C1278  C     0.42892   0.76547   0.51890   0.00000  Uiso   1.00
H1279  H     0.57826   0.93914   0.54850   0.00000  Uiso   1.00
H1280  H     0.41106   0.73720   0.95429   0.00000  Uiso   1.00
C1281  C     0.52090   0.98354   0.74237   0.00000  Uiso   1.00
C1282  C     0.47818   0.68301   0.75653   0.00000  Uiso   1.00
N1283  N     0.65011   0.81932   0.73783   0.00000  Uiso   1.00
N1284  N     0.34989   0.84735   0.76217   0.00000  Uiso   1.00
S1285  S     0.46936   0.72659   0.60474   0.00000  Uiso   1.00
O1286  O     0.41236   0.70209   0.60550   0.00000  Uiso   1.00
O1287  O     0.50781   0.69612   0.57162   0.00000  Uiso   1.00
O1288  O     0.49083   0.72455   0.65510   0.00000  Uiso   1.00
H1289  H     0.47372   0.69300   0.66569   0.00000  Uiso   1.00
S1290  S     0.53336   0.94221   0.89033   0.00000  Uiso   1.00
O1291  O     0.49939   0.97882   0.92152   0.00000  Uiso   1.00
O1292  O     0.59282   0.96108   0.88655   0.00000  Uiso   1.00
O1293  O     0.51131   0.94156   0.84011   0.00000  Uiso   1.00
H1294  H     0.52843   0.97269   0.82875   0.00000  Uiso   1.00
N1295  N     0.55539   0.90608   0.62076   0.00000  Uiso   1.00
O1296  O     0.60948   0.90595   0.61547   0.00000  Uiso   1.00
O1297  O     0.53017   0.94631   0.63832   0.00000  Uiso   1.00
N1298  N     0.45386   0.75756   0.87956   0.00000  Uiso   1.00
O1299  O     0.40042   0.75081   0.87854   0.00000  Uiso   1.00
O1300  O     0.48800   0.72832   0.85440   0.00000  Uiso   1.00
N1301  N     0.60334   0.94451   0.96654   0.00000  Uiso   1.00
O1302  O     0.65021   0.92478   0.95020   0.00000  Uiso   1.00
O1303  O     0.60205   0.99276   0.97813   0.00000  Uiso   1.00
N1304  N     0.38004   0.74102   0.53828   0.00000  Uiso   1.00
O1305  O     0.34662   0.76642   0.56758   0.00000  Uiso   1.00
O1306  O     0.36400   0.69672   0.52161   0.00000  Uiso   1.00
S1307  S     0.58829   0.66679   0.71550   0.00000  Uiso   1.00
O1308  O     0.58151   0.69811   0.67826   0.00000  Uiso   1.00
O1309  O     0.62154   0.69647   0.74864   0.00000  Uiso   1.00
O1310  O     0.62548   0.95079   0.69219   0.00000  Uiso   1.00
H1311  H     0.64358   0.93709   0.71597   0.00000  Uiso   1.00
S1312  S     0.41168   0.66771   0.78619   0.00000  Uiso   1.00
O1313  O     0.37963   0.96307   0.75871   0.00000  Uiso   1.00
O1314  O     0.42112   0.98051   0.82894   0.00000  Uiso   1.00
O1315  O     0.37016   0.71717   0.79981   0.00000  Uiso   1.00
H1316  H     0.33908   0.70449   0.81992   0.00000  Uiso   1.00
S1317  S     0.34074   0.80246   0.68354   0.00000  Uiso   1.00
O1318  O     0.62968   0.77778   0.65735   0.00000  Uiso   1.00
O1319  O     0.36079   0.84855   0.66100   0.00000  Uiso   1.00
O1320  O     0.38994   0.75999   0.68284   0.00000  Uiso   1.00
H1321  H     0.37019   0.72932   0.69298   0.00000  Uiso   1.00
S1322  S     0.65935   0.86623   0.81582   0.00000  Uiso   1.00
O1323  O     0.61410   0.90259   0.81472   0.00000  Uiso   1.00
O1324  O     0.64015   0.82099   0.84000   0.00000  Uiso   1.00
O1325  O     0.37538   0.89668   0.84373   0.00000  Uiso   1.00
H1326  H     0.36641   0.88964   0.87511   0.00000  Uiso   1.00
O1327  O     0.79642   0.91286   0.75298   0.00000  Uiso   1.00
O1328  O     0.87025   0.75381   0.74701   0.00000  Uiso   1.00
O1329  O     0.89280   0.90387   0.74518   0.00000  Uiso   1.00
O1330  O     0.77387   0.76279   0.75481   0.00000  Uiso   1.00
C1331  C     0.84740   0.93061   0.74734   0.00000  Uiso   1.00
C1332  C     0.81907   0.73591   0.75172   0.00000  Uiso   1.00
O1333  O     0.78514   0.83784   0.81997   0.00000  Uiso   1.00
O1334  O     0.88153   0.82883   0.68002   0.00000  Uiso   1.00
O1335  O     0.88152   0.82885   0.81217   0.00000  Uiso   1.00
O1336  O     0.78515   0.83781   0.68782   0.00000  Uiso   1.00
C1337  C     0.83409   0.83761   0.83646   0.00000  Uiso   1.00
C1338  C     0.83267   0.82960   0.66357   0.00000  Uiso   1.00
Zn1339 Zn    0.76898   0.83933   0.75521   0.00000  Uiso   1.00
Zn1340 Zn    0.89769   0.82734   0.74479   0.00000  Uiso   1.00
C1341  C     0.80426   0.78999   0.58947   0.00000  Uiso   1.00
C1342  C     0.85894   0.88126   0.91073   0.00000  Uiso   1.00
C1343  C     0.83178   0.82875   0.61528   0.00000  Uiso   1.00
C1344  C     0.83486   0.83999   0.88502   0.00000  Uiso   1.00
C1345  C     0.85818   0.86931   0.59514   0.00000  Uiso   1.00
C1346  C     0.80874   0.79961   0.90583   0.00000  Uiso   1.00
C1347  C     0.85784   0.87251   0.54967   0.00000  Uiso   1.00
C1348  C     0.80341   0.80030   0.95196   0.00000  Uiso   1.00
C1349  C     0.82844   0.83618   0.52404   0.00000  Uiso   1.00
C1350  C     0.83122   0.83815   0.97753   0.00000  Uiso   1.00
C1351  C     0.79703   0.79741   0.54473   0.00000  Uiso   1.00
C1352  C     0.86242   0.87729   0.95680   0.00000  Uiso   1.00
C1353  C     0.88810   0.91098   0.52944   0.00000  Uiso   1.00
C1354  C     0.76936   0.76433   0.97299   0.00000  Uiso   1.00
C1355  C     0.89317   0.91233   0.98390   0.00000  Uiso   1.00
C1356  C     0.76225   0.76547   0.51890   0.00000  Uiso   1.00
H1357  H     0.91159   0.93914   0.54850   0.00000  Uiso   1.00
H1358  H     0.74439   0.73720   0.95429   0.00000  Uiso   1.00
C1359  C     0.85424   0.98354   0.74237   0.00000  Uiso   1.00
C1360  C     0.81151   0.68301   0.75653   0.00000  Uiso   1.00
N1361  N     0.98344   0.81932   0.73783   0.00000  Uiso   1.00
N1362  N     0.68322   0.84735   0.76217   0.00000  Uiso   1.00
S1363  S     0.80269   0.72659   0.60474   0.00000  Uiso   1.00
O1364  O     0.74570   0.70209   0.60550   0.00000  Uiso   1.00
O1365  O     0.84114   0.69612   0.57162   0.00000  Uiso   1.00
O1366  O     0.82417   0.72455   0.65510   0.00000  Uiso   1.00
H1367  H     0.80706   0.69300   0.66569   0.00000  Uiso   1.00
S1368  S     0.86669   0.94221   0.89033   0.00000  Uiso   1.00
O1369  O     0.83273   0.97882   0.92152   0.00000  Uiso   1.00
O1370  O     0.92615   0.96108   0.88655   0.00000  Uiso   1.00
O1371  O     0.84464   0.94156   0.84011   0.00000  Uiso   1.00
H1372  H     0.86176   0.97269   0.82875   0.00000  Uiso   1.00
N1373  N     0.88872   0.90608   0.62076   0.00000  Uiso   1.00
O1374  O     0.94281   0.90595   0.61547   0.00000  Uiso   1.00
O1375  O     0.86351   0.94631   0.63832   0.00000  Uiso   1.00
N1376  N     0.78719   0.75756   0.87956   0.00000  Uiso   1.00
O1377  O     0.73375   0.75081   0.87854   0.00000  Uiso   1.00
O1378  O     0.82133   0.72832   0.85440   0.00000  Uiso   1.00
N1379  N     0.93667   0.94451   0.96654   0.00000  Uiso   1.00
O1380  O     0.98354   0.92478   0.95020   0.00000  Uiso   1.00
O1381  O     0.93539   0.99276   0.97813   0.00000  Uiso   1.00
N1382  N     0.71338   0.74102   0.53828   0.00000  Uiso   1.00
O1383  O     0.67996   0.76642   0.56758   0.00000  Uiso   1.00
O1384  O     0.69733   0.69672   0.52161   0.00000  Uiso   1.00
S1385  S     0.92162   0.66679   0.71550   0.00000  Uiso   1.00
O1386  O     0.91485   0.69811   0.67826   0.00000  Uiso   1.00
O1387  O     0.95487   0.69647   0.74864   0.00000  Uiso   1.00
O1388  O     0.95881   0.95079   0.69219   0.00000  Uiso   1.00
H1389  H     0.97691   0.93709   0.71597   0.00000  Uiso   1.00
S1390  S     0.74501   0.66771   0.78619   0.00000  Uiso   1.00
O1391  O     0.71296   0.96307   0.75871   0.00000  Uiso   1.00
O1392  O     0.75445   0.98051   0.82894   0.00000  Uiso   1.00
O1393  O     0.70349   0.71717   0.79981   0.00000  Uiso   1.00
H1394  H     0.67242   0.70449   0.81992   0.00000  Uiso   1.00
S1395  S     0.67407   0.80246   0.68354   0.00000  Uiso   1.00
O1396  O     0.96301   0.77778   0.65735   0.00000  Uiso   1.00
O1397  O     0.69412   0.84855   0.66100   0.00000  Uiso   1.00
O1398  O     0.72327   0.75999   0.68284   0.00000  Uiso   1.00
H1399  H     0.70352   0.72932   0.69298   0.00000  Uiso   1.00
S1400  S     0.99268   0.86623   0.81582   0.00000  Uiso   1.00
O1401  O     0.94743   0.90259   0.81472   0.00000  Uiso   1.00
O1402  O     0.97348   0.82099   0.84000   0.00000  Uiso   1.00
O1403  O     0.70872   0.89668   0.84373   0.00000  Uiso   1.00
H1404  H     0.69974   0.88964   0.87511   0.00000  Uiso   1.00
loop_
_geom_bond_atom_site_label_1
_geom_bond_atom_site_label_2
_geom_bond_distance
_geom_bond_site_symmetry_2
_ccdc_geom_bond_type
O1     C5      1.305   .     A
O1     Zn13    2.050   .     S
O2     C6      1.309   .     A
O2     Zn14    2.050   .     S
O3     Zn14    2.045   .     S
O3     C5      1.321   .     A
O4     Zn13    2.045   .     S
O4     C6      1.318   .     A
C5     C33     1.434   .     S
C6     C34     1.434   .     S
O7     C11     1.327   .     A
O7     Zn13    2.043   .     S
O8     C12     1.325   .     A
O8     Zn14    2.043   .     S
O9     Zn14    2.042   .     S
O9     C11     1.318   .     A
O10    C12     1.317   .     A
O10    Zn13    2.042   .     S
C11    C18     1.471   .     S
C12    C17     1.465   .     S
Zn13   N36     2.078   .     S
Zn14   N35     2.078   .     S
C15    C25     1.417   .     A
C15    S37     1.790   .     S
C15    C17     1.422   .     A
C16    C26     1.422   .     A
C16    S42     1.787   .     S
C16    C18     1.428   .     A
C17    C19     1.395   .     A
C18    C20     1.398   .     A
C19    C21     1.390   .     A
C19    N47     1.423   .     S
C20    N50     1.426   .     S
C20    C22     1.392   .     A
C21    C27     1.392   .     A
C21    C23     1.401   .     A
C22    C28     1.400   .     A
C22    C24     1.406   .     A
C23    C25     1.417   .     A
C23    C726    1.412   1_554 S
C24    C26     1.423   .     A
C24    C725    1.412   .     S
C25    C30     1.412   .     A
C26    C29     1.422   .     A
C27    H31     1.082   .     S
C27    C731    1.379   1_554 S
C28    H32     1.080   .     S
C28    C732    1.385   .     S
C29    N53     1.425   .     S
C29    C729    1.379   .     S
C30    N56     1.431   .     S
C30    C730    1.385   1_554 S
C33    C268    1.387   .     S
C33    S293    1.809   .     S
C34    S64     1.818   .     S
C34    C501    1.387   1_545 S
N35    N114    1.308   .     S
N35    S147    1.718   .     S
N36    N191    1.308   1_455 S
N36    S230    1.711   1_455 S
S37    O40     1.665   .     S
S37    O38     1.501   .     D
S37    O39     1.503   .     D
O40    H41     0.990   .     S
S42    O44     1.502   .     D
S42    O45     1.659   .     S
S42    O43     1.503   .     D
O45    H46     0.989   .     S
N47    O49     1.297   .     A
N47    O48     1.301   .     A
N50    O52     1.299   .     A
N50    O51     1.299   .     A
N53    O55     1.302   .     A
N53    O54     1.301   .     A
N56    O57     1.301   .     A
N56    O58     1.301   .     A
S59    O60     1.489   .     D
S59    O61     1.497   .     D
S59    C501    1.809   1_545 S
S59    O530    1.681   1_545 S
O62    H63     0.982   .     S
O62    S293    1.681   .     S
S64    O67     1.682   .     S
S64    O533    1.493   1_545 S
S64    O534    1.492   1_545 S
O65    S298    1.493   .     S
O66    S298    1.492   .     S
O67    H68     0.991   .     S
S69    O71     1.503   .     D
S69    O72     1.667   .     S
S69    N191    1.718   1_455 S
S69    O226    1.492   1_455 S
O70    S147    1.492   .     S
O72    H73     0.990   .     S
S74    O76     1.504   .     D
S74    O75     1.490   .     D
S74    N114    1.711   .     S
S74    O155    1.671   .     S
O77    H78     0.990   .     S
O77    S230    1.671   1_455 S
O79    C83     1.305   .     A
O79    Zn91    2.050   .     S
O80    C84     1.309   .     A
O80    Zn92    2.050   .     S
O81    Zn92    2.045   .     S
O81    C83     1.321   .     A
O82    Zn91    2.045   .     S
O82    C84     1.318   .     A
C83    C111    1.434   .     S
C84    C112    1.434   .     S
O85    C89     1.327   .     A
O85    Zn91    2.043   .     S
O86    C90     1.325   .     A
O86    Zn92    2.043   .     S
O87    Zn92    2.042   .     S
O87    C89     1.318   .     A
O88    C90     1.317   .     A
O88    Zn91    2.042   .     S
C89    C96     1.471   .     S
C90    C95     1.465   .     S
Zn91   N114    2.078   .     S
Zn92   N113    2.078   .     S
C93    C103    1.417   .     A
C93    S115    1.790   .     S
C93    C95     1.422   .     A
C94    C104    1.422   .     A
C94    S120    1.787   .     S
C94    C96     1.428   .     A
C95    C97     1.395   .     A
C96    C98     1.398   .     A
C97    C99     1.390   .     A
C97    N125    1.423   .     S
C98    N128    1.426   .     S
C98    C100    1.392   .     A
C99    C105    1.392   .     A
C99    C101    1.401   .     A
C100   C106    1.400   .     A
C100   C102    1.406   .     A
C101   C103    1.417   .     A
C101   C804    1.412   1_554 S
C102   C104    1.423   .     A
C102   C803    1.412   .     S
C103   C108    1.412   .     A
C104   C107    1.422   .     A
C105   H109    1.082   .     S
C105   C809    1.379   1_554 S
C106   H110    1.080   .     S
C106   C810    1.385   .     S
C107   N131    1.425   .     S
C107   C807    1.379   .     S
C108   N134    1.431   .     S
C108   C808    1.385   1_554 S
C111   C346    1.387   .     S
C111   S371    1.809   .     S
C112   S142    1.818   .     S
C112   C579    1.387   1_545 S
N113   N192    1.308   .     S
N113   S225    1.718   .     S
S115   O118    1.665   .     S
S115   O116    1.501   .     D
S115   O117    1.503   .     D
O118   H119    0.990   .     S
S120   O122    1.502   .     D
S120   O123    1.659   .     S
S120   O121    1.503   .     D
O123   H124    0.989   .     S
N125   O127    1.297   .     A
N125   O126    1.301   .     A
N128   O130    1.299   .     A
N128   O129    1.299   .     A
N131   O133    1.302   .     A
N131   O132    1.301   .     A
N134   O135    1.301   .     A
N134   O136    1.301   .     A
S137   O138    1.489   .     D
S137   O139    1.497   .     D
S137   C579    1.809   1_545 S
S137   O608    1.681   1_545 S
O140   H141    0.982   .     S
O140   S371    1.681   .     S
S142   O145    1.682   .     S
S142   O611    1.493   1_545 S
S142   O612    1.492   1_545 S
O143   S376    1.493   .     S
O144   S376    1.492   .     S
O145   H146    0.991   .     S
S147   O149    1.503   .     D
S147   O150    1.667   .     S
O148   S225    1.492   .     S
O150   H151    0.990   .     S
S152   O154    1.504   .     D
S152   O153    1.490   .     D
S152   N192    1.711   .     S
S152   O233    1.671   .     S
O155   H156    0.990   .     S
O157   C161    1.305   .     A
O157   Zn169   2.050   .     S
O158   C162    1.309   .     A
O158   Zn170   2.050   .     S
O159   Zn170   2.045   .     S
O159   C161    1.321   .     A
O160   Zn169   2.045   .     S
O160   C162    1.318   .     A
C161   C189    1.434   .     S
C162   C190    1.434   .     S
O163   C167    1.327   .     A
O163   Zn169   2.043   .     S
O164   C168    1.325   .     A
O164   Zn170   2.043   .     S
O165   Zn170   2.042   .     S
O165   C167    1.318   .     A
O166   C168    1.317   .     A
O166   Zn169   2.042   .     S
C167   C174    1.471   .     S
C168   C173    1.465   .     S
Zn169  N192    2.078   .     S
Zn170  N191    2.078   .     S
C171   C181    1.417   .     A
C171   S193    1.790   .     S
C171   C173    1.422   .     A
C172   C182    1.422   .     A
C172   S198    1.787   .     S
C172   C174    1.428   .     A
C173   C175    1.395   .     A
C174   C176    1.398   .     A
C175   C177    1.390   .     A
C175   N203    1.423   .     S
C176   N206    1.426   .     S
C176   C178    1.392   .     A
C177   C183    1.392   .     A
C177   C179    1.401   .     A
C178   C184    1.400   .     A
C178   C180    1.406   .     A
C179   C181    1.417   .     A
C179   C882    1.412   1_554 S
C180   C182    1.423   .     A
C180   C881    1.412   .     S
C181   C186    1.412   .     A
C182   C185    1.422   .     A
C183   H187    1.082   .     S
C183   C887    1.379   1_554 S
C184   H188    1.080   .     S
C184   C888    1.385   .     S
C185   N209    1.425   .     S
C185   C885    1.379   .     S
C186   N212    1.431   .     S
C186   C886    1.385   1_554 S
C189   C424    1.387   .     S
C189   S449    1.809   .     S
C190   S220    1.818   .     S
C190   C657    1.387   1_545 S
N191   N36     1.308   1_655 S
N191   S69     1.718   1_655 S
S193   O196    1.665   .     S
S193   O194    1.501   .     D
S193   O195    1.503   .     D
O196   H197    0.990   .     S
S198   O200    1.502   .     D
S198   O201    1.659   .     S
S198   O199    1.503   .     D
O201   H202    0.989   .     S
N203   O205    1.297   .     A
N203   O204    1.301   .     A
N206   O208    1.299   .     A
N206   O207    1.299   .     A
N209   O211    1.302   .     A
N209   O210    1.301   .     A
N212   O213    1.301   .     A
N212   O214    1.301   .     A
S215   O216    1.489   .     D
S215   O217    1.497   .     D
S215   C657    1.809   1_545 S
S215   O686    1.681   1_545 S
O218   H219    0.982   .     S
O218   S449    1.681   .     S
S220   O223    1.682   .     S
S220   O689    1.493   1_545 S
S220   O690    1.492   1_545 S
O221   S454    1.493   .     S
O222   S454    1.492   .     S
O223   H224    0.991   .     S
S225   O227    1.503   .     D
S225   O228    1.667   .     S
O226   S69     1.492   1_655 S
O228   H229    0.990   .     S
S230   O232    1.504   .     D
S230   O231    1.490   .     D
S230   N36     1.711   1_655 S
S230   O77     1.671   1_655 S
O233   H234    0.990   .     S
O235   C239    1.305   .     A
O235   Zn247   2.050   .     S
O236   C240    1.309   .     A
O236   Zn248   2.050   .     S
O237   Zn248   2.045   .     S
O237   C239    1.321   .     A
O238   Zn247   2.045   .     S
O238   C240    1.318   .     A
C239   C267    1.434   .     S
C240   C268    1.434   .     S
O241   C245    1.327   .     A
O241   Zn247   2.043   .     S
O242   C246    1.325   .     A
O242   Zn248   2.043   .     S
O243   Zn248   2.042   .     S
O243   C245    1.318   .     A
O244   C246    1.317   .     A
O244   Zn247   2.042   .     S
C245   C252    1.471   .     S
C246   C251    1.465   .     S
Zn247  N270    2.078   .     S
Zn248  N269    2.078   .     S
C249   C259    1.417   .     A
C249   S271    1.790   .     S
C249   C251    1.422   .     A
C250   C260    1.422   .     A
C250   S276    1.787   .     S
C250   C252    1.428   .     A
C251   C253    1.395   .     A
C252   C254    1.398   .     A
C253   C255    1.390   .     A
C253   N281    1.423   .     S
C254   N284    1.426   .     S
C254   C256    1.392   .     A
C255   C261    1.392   .     A
C255   C257    1.401   .     A
C256   C262    1.400   .     A
C256   C258    1.406   .     A
C257   C259    1.417   .     A
C257   C960    1.412   1_554 S
C258   C260    1.423   .     A
C258   C959    1.412   .     S
C259   C264    1.412   .     A
C260   C263    1.422   .     A
C261   H265    1.082   .     S
C261   C965    1.379   1_554 S
C262   H266    1.080   .     S
C262   C966    1.385   .     S
C263   N287    1.425   .     S
C263   C963    1.379   .     S
C264   N290    1.431   .     S
C264   C964    1.385   1_554 S
C267   C502    1.387   .     S
C267   S527    1.809   .     S
C268   S298    1.818   .     S
N269   N348    1.308   .     S
N269   S381    1.718   .     S
N270   N425    1.308   1_455 S
N270   S464    1.711   1_455 S
S271   O274    1.665   .     S
S271   O272    1.501   .     D
S271   O273    1.503   .     D
O274   H275    0.990   .     S
S276   O278    1.502   .     D
S276   O279    1.659   .     S
S276   O277    1.503   .     D
O279   H280    0.989   .     S
N281   O283    1.297   .     A
N281   O282    1.301   .     A
N284   O286    1.299   .     A
N284   O285    1.299   .     A
N287   O289    1.302   .     A
N287   O288    1.301   .     A
N290   O291    1.301   .     A
N290   O292    1.301   .     A
S293   O294    1.489   .     D
S293   O295    1.497   .     D
O296   H297    0.982   .     S
O296   S527    1.681   .     S
S298   O301    1.682   .     S
O299   S532    1.493   .     S
O300   S532    1.492   .     S
O301   H302    0.991   .     S
S303   O305    1.503   .     D
S303   O306    1.667   .     S
S303   N425    1.718   1_455 S
S303   O460    1.492   1_455 S
O304   S381    1.492   .     S
O306   H307    0.990   .     S
S308   O310    1.504   .     D
S308   O309    1.490   .     D
S308   N348    1.711   .     S
S308   O389    1.671   .     S
O311   H312    0.990   .     S
O311   S464    1.671   1_455 S
O313   C317    1.305   .     A
O313   Zn325   2.050   .     S
O314   C318    1.309   .     A
O314   Zn326   2.050   .     S
O315   Zn326   2.045   .     S
O315   C317    1.321   .     A
O316   Zn325   2.045   .     S
O316   C318    1.318   .     A
C317   C345    1.434   .     S
C318   C346    1.434   .     S
O319   C323    1.327   .     A
O319   Zn325   2.043   .     S
O320   C324    1.325   .     A
O320   Zn326   2.043   .     S
O321   Zn326   2.042   .     S
O321   C323    1.318   .     A
O322   C324    1.317   .     A
O322   Zn325   2.042   .     S
C323   C330    1.471   .     S
C324   C329    1.465   .     S
Zn325  N348    2.078   .     S
Zn326  N347    2.078   .     S
C327   C337    1.417   .     A
C327   S349    1.790   .     S
C327   C329    1.422   .     A
C328   C338    1.422   .     A
C328   S354    1.787   .     S
C328   C330    1.428   .     A
C329   C331    1.395   .     A
C330   C332    1.398   .     A
C331   C333    1.390   .     A
C331   N359    1.423   .     S
C332   N362    1.426   .     S
C332   C334    1.392   .     A
C333   C339    1.392   .     A
C333   C335    1.401   .     A
C334   C340    1.400   .     A
C334   C336    1.406   .     A
C335   C337    1.417   .     A
C335   C1038   1.412   1_554 S
C336   C338    1.423   .     A
C336   C1037   1.412   .     S
C337   C342    1.412   .     A
C338   C341    1.422   .     A
C339   H343    1.082   .     S
C339   C1043   1.379   1_554 S
C340   H344    1.080   .     S
C340   C1044   1.385   .     S
C341   N365    1.425   .     S
C341   C1041   1.379   .     S
C342   N368    1.431   .     S
C342   C1042   1.385   1_554 S
C345   C580    1.387   .     S
C345   S605    1.809   .     S
C346   S376    1.818   .     S
N347   N426    1.308   .     S
N347   S459    1.718   .     S
S349   O352    1.665   .     S
S349   O350    1.501   .     D
S349   O351    1.503   .     D
O352   H353    0.990   .     S
S354   O356    1.502   .     D
S354   O357    1.659   .     S
S354   O355    1.503   .     D
O357   H358    0.989   .     S
N359   O361    1.297   .     A
N359   O360    1.301   .     A
N362   O364    1.299   .     A
N362   O363    1.299   .     A
N365   O367    1.302   .     A
N365   O366    1.301   .     A
N368   O369    1.301   .     A
N368   O370    1.301   .     A
S371   O372    1.489   .     D
S371   O373    1.497   .     D
O374   H375    0.982   .     S
O374   S605    1.681   .     S
S376   O379    1.682   .     S
O377   S610    1.493   .     S
O378   S610    1.492   .     S
O379   H380    0.991   .     S
S381   O383    1.503   .     D
S381   O384    1.667   .     S
O382   S459    1.492   .     S
O384   H385    0.990   .     S
S386   O388    1.504   .     D
S386   O387    1.490   .     D
S386   N426    1.711   .     S
S386   O467    1.671   .     S
O389   H390    0.990   .     S
O391   C395    1.305   .     A
O391   Zn403   2.050   .     S
O392   C396    1.309   .     A
O392   Zn404   2.050   .     S
O393   Zn404   2.045   .     S
O393   C395    1.321   .     A
O394   Zn403   2.045   .     S
O394   C396    1.318   .     A
C395   C423    1.434   .     S
C396   C424    1.434   .     S
O397   C401    1.327   .     A
O397   Zn403   2.043   .     S
O398   C402    1.325   .     A
O398   Zn404   2.043   .     S
O399   Zn404   2.042   .     S
O399   C401    1.318   .     A
O400   C402    1.317   .     A
O400   Zn403   2.042   .     S
C401   C408    1.471   .     S
C402   C407    1.465   .     S
Zn403  N426    2.078   .     S
Zn404  N425    2.078   .     S
C405   C415    1.417   .     A
C405   S427    1.790   .     S
C405   C407    1.422   .     A
C406   C416    1.422   .     A
C406   S432    1.787   .     S
C406   C408    1.428   .     A
C407   C409    1.395   .     A
C408   C410    1.398   .     A
C409   C411    1.390   .     A
C409   N437    1.423   .     S
C410   N440    1.426   .     S
C410   C412    1.392   .     A
C411   C417    1.392   .     A
C411   C413    1.401   .     A
C412   C418    1.400   .     A
C412   C414    1.406   .     A
C413   C415    1.417   .     A
C413   C1116   1.412   1_554 S
C414   C416    1.423   .     A
C414   C1115   1.412   .     S
C415   C420    1.412   .     A
C416   C419    1.422   .     A
C417   H421    1.082   .     S
C417   C1121   1.379   1_554 S
C418   H422    1.080   .     S
C418   C1122   1.385   .     S
C419   N443    1.425   .     S
C419   C1119   1.379   .     S
C420   N446    1.431   .     S
C420   C1120   1.385   1_554 S
C423   C658    1.387   .     S
C423   S683    1.809   .     S
C424   S454    1.818   .     S
N425   N270    1.308   1_655 S
N425   S303    1.718   1_655 S
S427   O430    1.665   .     S
S427   O428    1.501   .     D
S427   O429    1.503   .     D
O430   H431    0.990   .     S
S432   O434    1.502   .     D
S432   O435    1.659   .     S
S432   O433    1.503   .     D
O435   H436    0.989   .     S
N437   O439    1.297   .     A
N437   O438    1.301   .     A
N440   O442    1.299   .     A
N440   O441    1.299   .     A
N443   O445    1.302   .     A
N443   O444    1.301   .     A
N446   O447    1.301   .     A
N446   O448    1.301   .     A
S449   O450    1.489   .     D
S449   O451    1.497   .     D
O452   H453    0.982   .     S
O452   S683    1.681   .     S
S454   O457    1.682   .     S
O455   S688    1.493   .     S
O456   S688    1.492   .     S
O457   H458    0.991   .     S
S459   O461    1.503   .     D
S459   O462    1.667   .     S
O460   S303    1.492   1_655 S
O462   H463    0.990   .     S
S464   O466    1.504   .     D
S464   O465    1.490   .     D
S464   N270    1.711   1_655 S
S464   O311    1.671   1_655 S
O467   H468    0.990   .     S
O469   C473    1.305   .     A
O469   Zn481   2.050   .     S
O470   C474    1.309   .     A
O470   Zn482   2.050   .     S
O471   Zn482   2.045   .     S
O471   C473    1.321   .     A
O472   Zn481   2.045   .     S
O472   C474    1.318   .     A
C473   C501    1.434   .     S
C474   C502    1.434   .     S
O475   C479    1.327   .     A
O475   Zn481   2.043   .     S
O476   C480    1.325   .     A
O476   Zn482   2.043   .     S
O477   Zn482   2.042   .     S
O477   C479    1.318   .     A
O478   C480    1.317   .     A
O478   Zn481   2.042   .     S
C479   C486    1.471   .     S
C480   C485    1.465   .     S
Zn481  N504    2.078   .     S
Zn482  N503    2.078   .     S
C483   C493    1.417   .     A
C483   S505    1.790   .     S
C483   C485    1.422   .     A
C484   C494    1.422   .     A
C484   S510    1.787   .     S
C484   C486    1.428   .     A
C485   C487    1.395   .     A
C486   C488    1.398   .     A
C487   C489    1.390   .     A
C487   N515    1.423   .     S
C488   N518    1.426   .     S
C488   C490    1.392   .     A
C489   C495    1.392   .     A
C489   C491    1.401   .     A
C490   C496    1.400   .     A
C490   C492    1.406   .     A
C491   C493    1.417   .     A
C491   C1194   1.412   1_554 S
C492   C494    1.423   .     A
C492   C1193   1.412   .     S
C493   C498    1.412   .     A
C494   C497    1.422   .     A
C495   H499    1.082   .     S
C495   C1199   1.379   1_554 S
C496   H500    1.080   .     S
C496   C1200   1.385   .     S
C497   N521    1.425   .     S
C497   C1197   1.379   .     S
C498   N524    1.431   .     S
C498   C1198   1.385   1_554 S
C501   C34     1.387   1_565 S
C501   S59     1.809   1_565 S
C502   S532    1.818   .     S
N503   N582    1.308   .     S
N503   S615    1.718   .     S
N504   N659    1.308   1_455 S
N504   S698    1.711   1_455 S
S505   O508    1.665   .     S
S505   O506    1.501   .     D
S505   O507    1.503   .     D
O508   H509    0.990   .     S
S510   O512    1.502   .     D
S510   O513    1.659   .     S
S510   O511    1.503   .     D
O513   H514    0.989   .     S
N515   O517    1.297   .     A
N515   O516    1.301   .     A
N518   O520    1.299   .     A
N518   O519    1.299   .     A
N521   O523    1.302   .     A
N521   O522    1.301   .     A
N524   O525    1.301   .     A
N524   O526    1.301   .     A
S527   O528    1.489   .     D
S527   O529    1.497   .     D
O530   H531    0.982   .     S
O530   S59     1.681   1_565 S
S532   O535    1.682   .     S
O533   S64     1.493   1_565 S
O534   S64     1.492   1_565 S
O535   H536    0.991   .     S
S537   O539    1.503   .     D
S537   O540    1.667   .     S
S537   N659    1.718   1_455 S
S537   O694    1.492   1_455 S
O538   S615    1.492   .     S
O540   H541    0.990   .     S
S542   O544    1.504   .     D
S542   O543    1.490   .     D
S542   N582    1.711   .     S
S542   O623    1.671   .     S
O545   H546    0.990   .     S
O545   S698    1.671   1_455 S
O547   C551    1.305   .     A
O547   Zn559   2.050   .     S
O548   C552    1.309   .     A
O548   Zn560   2.050   .     S
O549   Zn560   2.045   .     S
O549   C551    1.321   .     A
O550   Zn559   2.045   .     S
O550   C552    1.318   .     A
C551   C579    1.434   .     S
C552   C580    1.434   .     S
O553   C557    1.327   .     A
O553   Zn559   2.043   .     S
O554   C558    1.325   .     A
O554   Zn560   2.043   .     S
O555   Zn560   2.042   .     S
O555   C557    1.318   .     A
O556   C558    1.317   .     A
O556   Zn559   2.042   .     S
C557   C564    1.471   .     S
C558   C563    1.465   .     S
Zn559  N582    2.078   .     S
Zn560  N581    2.078   .     S
C561   C571    1.417   .     A
C561   S583    1.790   .     S
C561   C563    1.422   .     A
C562   C572    1.422   .     A
C562   S588    1.787   .     S
C562   C564    1.428   .     A
C563   C565    1.395   .     A
C564   C566    1.398   .     A
C565   C567    1.390   .     A
C565   N593    1.423   .     S
C566   N596    1.426   .     S
C566   C568    1.392   .     A
C567   C573    1.392   .     A
C567   C569    1.401   .     A
C568   C574    1.400   .     A
C568   C570    1.406   .     A
C569   C571    1.417   .     A
C569   C1272   1.412   1_554 S
C570   C572    1.423   .     A
C570   C1271   1.412   .     S
C571   C576    1.412   .     A
C572   C575    1.422   .     A
C573   H577    1.082   .     S
C573   C1277   1.379   1_554 S
C574   H578    1.080   .     S
C574   C1278   1.385   .     S
C575   N599    1.425   .     S
C575   C1275   1.379   .     S
C576   N602    1.431   .     S
C576   C1276   1.385   1_554 S
C579   C112    1.387   1_565 S
C579   S137    1.809   1_565 S
C580   S610    1.818   .     S
N581   N660    1.308   .     S
N581   S693    1.718   .     S
S583   O586    1.665   .     S
S583   O584    1.501   .     D
S583   O585    1.503   .     D
O586   H587    0.990   .     S
S588   O590    1.502   .     D
S588   O591    1.659   .     S
S588   O589    1.503   .     D
O591   H592    0.989   .     S
N593   O595    1.297   .     A
N593   O594    1.301   .     A
N596   O598    1.299   .     A
N596   O597    1.299   .     A
N599   O601    1.302   .     A
N599   O600    1.301   .     A
N602   O603    1.301   .     A
N602   O604    1.301   .     A
S605   O606    1.489   .     D
S605   O607    1.497   .     D
O608   H609    0.982   .     S
O608   S137    1.681   1_565 S
S610   O613    1.682   .     S
O611   S142    1.493   1_565 S
O612   S142    1.492   1_565 S
O613   H614    0.991   .     S
S615   O617    1.503   .     D
S615   O618    1.667   .     S
O616   S693    1.492   .     S
O618   H619    0.990   .     S
S620   O622    1.504   .     D
S620   O621    1.490   .     D
S620   N660    1.711   .     S
S620   O701    1.671   .     S
O623   H624    0.990   .     S
O625   C629    1.305   .     A
O625   Zn637   2.050   .     S
O626   C630    1.309   .     A
O626   Zn638   2.050   .     S
O627   Zn638   2.045   .     S
O627   C629    1.321   .     A
O628   Zn637   2.045   .     S
O628   C630    1.318   .     A
C629   C657    1.434   .     S
C630   C658    1.434   .     S
O631   C635    1.327   .     A
O631   Zn637   2.043   .     S
O632   C636    1.325   .     A
O632   Zn638   2.043   .     S
O633   Zn638   2.042   .     S
O633   C635    1.318   .     A
O634   C636    1.317   .     A
O634   Zn637   2.042   .     S
C635   C642    1.471   .     S
C636   C641    1.465   .     S
Zn637  N660    2.078   .     S
Zn638  N659    2.078   .     S
C639   C649    1.417   .     A
C639   S661    1.790   .     S
C639   C641    1.422   .     A
C640   C650    1.422   .     A
C640   S666    1.787   .     S
C640   C642    1.428   .     A
C641   C643    1.395   .     A
C642   C644    1.398   .     A
C643   C645    1.390   .     A
C643   N671    1.423   .     S
C644   N674    1.426   .     S
C644   C646    1.392   .     A
C645   C651    1.392   .     A
C645   C647    1.401   .     A
C646   C652    1.400   .     A
C646   C648    1.406   .     A
C647   C649    1.417   .     A
C647   C1350   1.412   1_554 S
C648   C650    1.423   .     A
C648   C1349   1.412   .     S
C649   C654    1.412   .     A
C650   C653    1.422   .     A
C651   H655    1.082   .     S
C651   C1355   1.379   1_554 S
C652   H656    1.080   .     S
C652   C1356   1.385   .     S
C653   N677    1.425   .     S
C653   C1353   1.379   .     S
C654   N680    1.431   .     S
C654   C1354   1.385   1_554 S
C657   C190    1.387   1_565 S
C657   S215    1.809   1_565 S
C658   S688    1.818   .     S
N659   N504    1.308   1_655 S
N659   S537    1.718   1_655 S
S661   O664    1.665   .     S
S661   O662    1.501   .     D
S661   O663    1.503   .     D
O664   H665    0.990   .     S
S666   O668    1.502   .     D
S666   O669    1.659   .     S
S666   O667    1.503   .     D
O669   H670    0.989   .     S
N671   O673    1.297   .     A
N671   O672    1.301   .     A
N674   O676    1.299   .     A
N674   O675    1.299   .     A
N677   O679    1.302   .     A
N677   O678    1.301   .     A
N680   O681    1.301   .     A
N680   O682    1.301   .     A
S683   O684    1.489   .     D
S683   O685    1.497   .     D
O686   H687    0.982   .     S
O686   S215    1.681   1_565 S
S688   O691    1.682   .     S
O689   S220    1.493   1_565 S
O690   S220    1.492   1_565 S
O691   H692    0.991   .     S
S693   O695    1.503   .     D
S693   O696    1.667   .     S
O694   S537    1.492   1_655 S
O696   H697    0.990   .     S
S698   O700    1.504   .     D
S698   O699    1.490   .     D
S698   N504    1.711   1_655 S
S698   O545    1.671   1_655 S
O701   H702    0.990   .     S
O703   C707    1.305   .     A
O703   Zn715   2.050   .     S
O704   C708    1.309   .     A
O704   Zn716   2.050   .     S
O705   Zn716   2.045   .     S
O705   C707    1.321   .     A
O706   Zn715   2.045   .     S
O706   C708    1.318   .     A
C707   C735    1.434   .     S
C708   C736    1.434   .     S
O709   C713    1.327   .     A
O709   Zn715   2.043   .     S
O710   C714    1.325   .     A
O710   Zn716   2.043   .     S
O711   Zn716   2.042   .     S
O711   C713    1.318   .     A
O712   C714    1.317   .     A
O712   Zn715   2.042   .     S
C713   C720    1.471   .     S
C714   C719    1.465   .     S
Zn715  N738    2.078   .     S
Zn716  N737    2.078   .     S
C717   C727    1.417   .     A
C717   S739    1.790   .     S
C717   C719    1.422   .     A
C718   C728    1.422   .     A
C718   S744    1.787   .     S
C718   C720    1.428   .     A
C719   C721    1.395   .     A
C720   C722    1.398   .     A
C721   C723    1.390   .     A
C721   N749    1.423   .     S
C722   N752    1.426   .     S
C722   C724    1.392   .     A
C723   C729    1.392   .     A
C723   C725    1.401   .     A
C724   C730    1.400   .     A
C724   C726    1.406   .     A
C725   C727    1.417   .     A
C726   C728    1.423   .     A
C726   C23     1.412   1_556 S
C727   C732    1.412   .     A
C728   C731    1.422   .     A
C729   H733    1.082   .     S
C730   H734    1.080   .     S
C730   C30     1.385   1_556 S
C731   N755    1.425   .     S
C731   C27     1.379   1_556 S
C732   N758    1.431   .     S
C735   C970    1.387   .     S
C735   S995    1.809   .     S
C736   S766    1.818   .     S
C736   C1203   1.387   1_545 S
N737   N816    1.308   .     S
N737   S849    1.718   .     S
N738   N893    1.308   1_455 S
N738   S932    1.711   1_455 S
S739   O742    1.665   .     S
S739   O740    1.501   .     D
S739   O741    1.503   .     D
O742   H743    0.990   .     S
S744   O746    1.502   .     D
S744   O747    1.659   .     S
S744   O745    1.503   .     D
O747   H748    0.989   .     S
N749   O751    1.297   .     A
N749   O750    1.301   .     A
N752   O754    1.299   .     A
N752   O753    1.299   .     A
N755   O757    1.302   .     A
N755   O756    1.301   .     A
N758   O759    1.301   .     A
N758   O760    1.301   .     A
S761   O762    1.489   .     D
S761   O763    1.497   .     D
S761   C1203   1.809   1_545 S
S761   O1232   1.681   1_545 S
O764   H765    0.982   .     S
O764   S995    1.681   .     S
S766   O769    1.682   .     S
S766   O1235   1.493   1_545 S
S766   O1236   1.492   1_545 S
O767   S1000   1.493   .     S
O768   S1000   1.492   .     S
O769   H770    0.991   .     S
S771   O773    1.503   .     D
S771   O774    1.667   .     S
S771   N893    1.718   1_455 S
S771   O928    1.492   1_455 S
O772   S849    1.492   .     S
O774   H775    0.990   .     S
S776   O778    1.504   .     D
S776   O777    1.490   .     D
S776   N816    1.711   .     S
S776   O857    1.671   .     S
O779   H780    0.990   .     S
O779   S932    1.671   1_455 S
O781   C785    1.305   .     A
O781   Zn793   2.050   .     S
O782   C786    1.309   .     A
O782   Zn794   2.050   .     S
O783   Zn794   2.045   .     S
O783   C785    1.321   .     A
O784   Zn793   2.045   .     S
O784   C786    1.318   .     A
C785   C813    1.434   .     S
C786   C814    1.434   .     S
O787   C791    1.327   .     A
O787   Zn793   2.043   .     S
O788   C792    1.325   .     A
O788   Zn794   2.043   .     S
O789   Zn794   2.042   .     S
O789   C791    1.318   .     A
O790   C792    1.317   .     A
O790   Zn793   2.042   .     S
C791   C798    1.471   .     S
C792   C797    1.465   .     S
Zn793  N816    2.078   .     S
Zn794  N815    2.078   .     S
C795   C805    1.417   .     A
C795   S817    1.790   .     S
C795   C797    1.422   .     A
C796   C806    1.422   .     A
C796   S822    1.787   .     S
C796   C798    1.428   .     A
C797   C799    1.395   .     A
C798   C800    1.398   .     A
C799   C801    1.390   .     A
C799   N827    1.423   .     S
C800   N830    1.426   .     S
C800   C802    1.392   .     A
C801   C807    1.392   .     A
C801   C803    1.401   .     A
C802   C808    1.400   .     A
C802   C804    1.406   .     A
C803   C805    1.417   .     A
C804   C806    1.423   .     A
C804   C101    1.412   1_556 S
C805   C810    1.412   .     A
C806   C809    1.422   .     A
C807   H811    1.082   .     S
C808   H812    1.080   .     S
C808   C108    1.385   1_556 S
C809   N833    1.425   .     S
C809   C105    1.379   1_556 S
C810   N836    1.431   .     S
C813   C1048   1.387   .     S
C813   S1073   1.809   .     S
C814   S844    1.818   .     S
C814   C1281   1.387   1_545 S
N815   N894    1.308   .     S
N815   S927    1.718   .     S
S817   O820    1.665   .     S
S817   O818    1.501   .     D
S817   O819    1.503   .     D
O820   H821    0.990   .     S
S822   O824    1.502   .     D
S822   O825    1.659   .     S
S822   O823    1.503   .     D
O825   H826    0.989   .     S
N827   O829    1.297   .     A
N827   O828    1.301   .     A
N830   O832    1.299   .     A
N830   O831    1.299   .     A
N833   O835    1.302   .     A
N833   O834    1.301   .     A
N836   O837    1.301   .     A
N836   O838    1.301   .     A
S839   O840    1.489   .     D
S839   O841    1.497   .     D
S839   C1281   1.809   1_545 S
S839   O1310   1.681   1_545 S
O842   H843    0.982   .     S
O842   S1073   1.681   .     S
S844   O847    1.682   .     S
S844   O1313   1.493   1_545 S
S844   O1314   1.492   1_545 S
O845   S1078   1.493   .     S
O846   S1078   1.492   .     S
O847   H848    0.991   .     S
S849   O851    1.503   .     D
S849   O852    1.667   .     S
O850   S927    1.492   .     S
O852   H853    0.990   .     S
S854   O856    1.504   .     D
S854   O855    1.490   .     D
S854   N894    1.711   .     S
S854   O935    1.671   .     S
O857   H858    0.990   .     S
O859   C863    1.305   .     A
O859   Zn871   2.050   .     S
O860   C864    1.309   .     A
O860   Zn872   2.050   .     S
O861   Zn872   2.045   .     S
O861   C863    1.321   .     A
O862   Zn871   2.045   .     S
O862   C864    1.318   .     A
C863   C891    1.434   .     S
C864   C892    1.434   .     S
O865   C869    1.327   .     A
O865   Zn871   2.043   .     S
O866   C870    1.325   .     A
O866   Zn872   2.043   .     S
O867   Zn872   2.042   .     S
O867   C869    1.318   .     A
O868   C870    1.317   .     A
O868   Zn871   2.042   .     S
C869   C876    1.471   .     S
C870   C875    1.465   .     S
Zn871  N894    2.078   .     S
Zn872  N893    2.078   .     S
C873   C883    1.417   .     A
C873   S895    1.790   .     S
C873   C875    1.422   .     A
C874   C884    1.422   .     A
C874   S900    1.787   .     S
C874   C876    1.428   .     A
C875   C877    1.395   .     A
C876   C878    1.398   .     A
C877   C879    1.390   .     A
C877   N905    1.423   .     S
C878   N908    1.426   .     S
C878   C880    1.392   .     A
C879   C885    1.392   .     A
C879   C881    1.401   .     A
C880   C886    1.400   .     A
C880   C882    1.406   .     A
C881   C883    1.417   .     A
C882   C884    1.423   .     A
C882   C179    1.412   1_556 S
C883   C888    1.412   .     A
C884   C887    1.422   .     A
C885   H889    1.082   .     S
C886   H890    1.080   .     S
C886   C186    1.385   1_556 S
C887   N911    1.425   .     S
C887   C183    1.379   1_556 S
C888   N914    1.431   .     S
C891   C1126   1.387   .     S
C891   S1151   1.809   .     S
C892   S922    1.818   .     S
C892   C1359   1.387   1_545 S
N893   N738    1.308   1_655 S
N893   S771    1.718   1_655 S
S895   O898    1.665   .     S
S895   O896    1.501   .     D
S895   O897    1.503   .     D
O898   H899    0.990   .     S
S900   O902    1.502   .     D
S900   O903    1.659   .     S
S900   O901    1.503   .     D
O903   H904    0.989   .     S
N905   O907    1.297   .     A
N905   O906    1.301   .     A
N908   O910    1.299   .     A
N908   O909    1.299   .     A
N911   O913    1.302   .     A
N911   O912    1.301   .     A
N914   O915    1.301   .     A
N914   O916    1.301   .     A
S917   O918    1.489   .     D
S917   O919    1.497   .     D
S917   C1359   1.809   1_545 S
S917   O1388   1.681   1_545 S
O920   H921    0.982   .     S
O920   S1151   1.681   .     S
S922   O925    1.682   .     S
S922   O1391   1.493   1_545 S
S922   O1392   1.492   1_545 S
O923   S1156   1.493   .     S
O924   S1156   1.492   .     S
O925   H926    0.991   .     S
S927   O929    1.503   .     D
S927   O930    1.667   .     S
O928   S771    1.492   1_655 S
O930   H931    0.990   .     S
S932   O934    1.504   .     D
S932   O933    1.490   .     D
S932   N738    1.711   1_655 S
S932   O779    1.671   1_655 S
O935   H936    0.990   .     S
O937   C941    1.305   .     A
O937   Zn949   2.050   .     S
O938   C942    1.309   .     A
O938   Zn950   2.050   .     S
O939   Zn950   2.045   .     S
O939   C941    1.321   .     A
O940   Zn949   2.045   .     S
O940   C942    1.318   .     A
C941   C969    1.434   .     S
C942   C970    1.434   .     S
O943   C947    1.327   .     A
O943   Zn949   2.043   .     S
O944   C948    1.325   .     A
O944   Zn950   2.043   .     S
O945   Zn950   2.042   .     S
O945   C947    1.318   .     A
O946   C948    1.317   .     A
O946   Zn949   2.042   .     S
C947   C954    1.471   .     S
C948   C953    1.465   .     S
Zn949  N972    2.078   .     S
Zn950  N971    2.078   .     S
C951   C961    1.417   .     A
C951   S973    1.790   .     S
C951   C953    1.422   .     A
C952   C962    1.422   .     A
C952   S978    1.787   .     S
C952   C954    1.428   .     A
C953   C955    1.395   .     A
C954   C956    1.398   .     A
C955   C957    1.390   .     A
C955   N983    1.423   .     S
C956   N986    1.426   .     S
C956   C958    1.392   .     A
C957   C963    1.392   .     A
C957   C959    1.401   .     A
C958   C964    1.400   .     A
C958   C960    1.406   .     A
C959   C961    1.417   .     A
C960   C962    1.423   .     A
C960   C257    1.412   1_556 S
C961   C966    1.412   .     A
C962   C965    1.422   .     A
C963   H967    1.082   .     S
C964   H968    1.080   .     S
C964   C264    1.385   1_556 S
C965   N989    1.425   .     S
C965   C261    1.379   1_556 S
C966   N992    1.431   .     S
C969   C1204   1.387   .     S
C969   S1229   1.809   .     S
C970   S1000   1.818   .     S
N971   N1050   1.308   .     S
N971   S1083   1.718   .     S
N972   N1127   1.308   1_455 S
N972   S1166   1.711   1_455 S
S973   O976    1.665   .     S
S973   O974    1.501   .     D
S973   O975    1.503   .     D
O976   H977    0.990   .     S
S978   O980    1.502   .     D
S978   O981    1.659   .     S
S978   O979    1.503   .     D
O981   H982    0.989   .     S
N983   O985    1.297   .     A
N983   O984    1.301   .     A
N986   O988    1.299   .     A
N986   O987    1.299   .     A
N989   O991    1.302   .     A
N989   O990    1.301   .     A
N992   O993    1.301   .     A
N992   O994    1.301   .     A
S995   O996    1.489   .     D
S995   O997    1.497   .     D
O998   H999    0.982   .     S
O998   S1229   1.681   .     S
S1000  O1003   1.682   .     S
O1001  S1234   1.493   .     S
O1002  S1234   1.492   .     S
O1003  H1004   0.991   .     S
S1005  O1007   1.503   .     D
S1005  O1008   1.667   .     S
S1005  N1127   1.718   1_455 S
S1005  O1162   1.492   1_455 S
O1006  S1083   1.492   .     S
O1008  H1009   0.990   .     S
S1010  O1012   1.504   .     D
S1010  O1011   1.490   .     D
S1010  N1050   1.711   .     S
S1010  O1091   1.671   .     S
O1013  H1014   0.990   .     S
O1013  S1166   1.671   1_455 S
O1015  C1019   1.305   .     A
O1015  Zn1027  2.050   .     S
O1016  C1020   1.309   .     A
O1016  Zn1028  2.050   .     S
O1017  Zn1028  2.045   .     S
O1017  C1019   1.321   .     A
O1018  Zn1027  2.045   .     S
O1018  C1020   1.318   .     A
C1019  C1047   1.434   .     S
C1020  C1048   1.434   .     S
O1021  C1025   1.327   .     A
O1021  Zn1027  2.043   .     S
O1022  C1026   1.325   .     A
O1022  Zn1028  2.043   .     S
O1023  Zn1028  2.042   .     S
O1023  C1025   1.318   .     A
O1024  C1026   1.317   .     A
O1024  Zn1027  2.042   .     S
C1025  C1032   1.471   .     S
C1026  C1031   1.465   .     S
Zn1027 N1050   2.078   .     S
Zn1028 N1049   2.078   .     S
C1029  C1039   1.417   .     A
C1029  S1051   1.790   .     S
C1029  C1031   1.422   .     A
C1030  C1040   1.422   .     A
C1030  S1056   1.787   .     S
C1030  C1032   1.428   .     A
C1031  C1033   1.395   .     A
C1032  C1034   1.398   .     A
C1033  C1035   1.390   .     A
C1033  N1061   1.423   .     S
C1034  N1064   1.426   .     S
C1034  C1036   1.392   .     A
C1035  C1041   1.392   .     A
C1035  C1037   1.401   .     A
C1036  C1042   1.400   .     A
C1036  C1038   1.406   .     A
C1037  C1039   1.417   .     A
C1038  C1040   1.423   .     A
C1038  C335    1.412   1_556 S
C1039  C1044   1.412   .     A
C1040  C1043   1.422   .     A
C1041  H1045   1.082   .     S
C1042  H1046   1.080   .     S
C1042  C342    1.385   1_556 S
C1043  N1067   1.425   .     S
C1043  C339    1.379   1_556 S
C1044  N1070   1.431   .     S
C1047  C1282   1.387   .     S
C1047  S1307   1.809   .     S
C1048  S1078   1.818   .     S
N1049  N1128   1.308   .     S
N1049  S1161   1.718   .     S
S1051  O1054   1.665   .     S
S1051  O1052   1.501   .     D
S1051  O1053   1.503   .     D
O1054  H1055   0.990   .     S
S1056  O1058   1.502   .     D
S1056  O1059   1.659   .     S
S1056  O1057   1.503   .     D
O1059  H1060   0.989   .     S
N1061  O1063   1.297   .     A
N1061  O1062   1.301   .     A
N1064  O1066   1.299   .     A
N1064  O1065   1.299   .     A
N1067  O1069   1.302   .     A
N1067  O1068   1.301   .     A
N1070  O1071   1.301   .     A
N1070  O1072   1.301   .     A
S1073  O1074   1.489   .     D
S1073  O1075   1.497   .     D
O1076  H1077   0.982   .     S
O1076  S1307   1.681   .     S
S1078  O1081   1.682   .     S
O1079  S1312   1.493   .     S
O1080  S1312   1.492   .     S
O1081  H1082   0.991   .     S
S1083  O1085   1.503   .     D
S1083  O1086   1.667   .     S
O1084  S1161   1.492   .     S
O1086  H1087   0.990   .     S
S1088  O1090   1.504   .     D
S1088  O1089   1.490   .     D
S1088  N1128   1.711   .     S
S1088  O1169   1.671   .     S
O1091  H1092   0.990   .     S
O1093  C1097   1.305   .     A
O1093  Zn1105  2.050   .     S
O1094  C1098   1.309   .     A
O1094  Zn1106  2.050   .     S
O1095  Zn1106  2.045   .     S
O1095  C1097   1.321   .     A
O1096  Zn1105  2.045   .     S
O1096  C1098   1.318   .     A
C1097  C1125   1.434   .     S
C1098  C1126   1.434   .     S
O1099  C1103   1.327   .     A
O1099  Zn1105  2.043   .     S
O1100  C1104   1.325   .     A
O1100  Zn1106  2.043   .     S
O1101  Zn1106  2.042   .     S
O1101  C1103   1.318   .     A
O1102  C1104   1.317   .     A
O1102  Zn1105  2.042   .     S
C1103  C1110   1.471   .     S
C1104  C1109   1.465   .     S
Zn1105 N1128   2.078   .     S
Zn1106 N1127   2.078   .     S
C1107  C1117   1.417   .     A
C1107  S1129   1.790   .     S
C1107  C1109   1.422   .     A
C1108  C1118   1.422   .     A
C1108  S1134   1.787   .     S
C1108  C1110   1.428   .     A
C1109  C1111   1.395   .     A
C1110  C1112   1.398   .     A
C1111  C1113   1.390   .     A
C1111  N1139   1.423   .     S
C1112  N1142   1.426   .     S
C1112  C1114   1.392   .     A
C1113  C1119   1.392   .     A
C1113  C1115   1.401   .     A
C1114  C1120   1.400   .     A
C1114  C1116   1.406   .     A
C1115  C1117   1.417   .     A
C1116  C1118   1.423   .     A
C1116  C413    1.412   1_556 S
C1117  C1122   1.412   .     A
C1118  C1121   1.422   .     A
C1119  H1123   1.082   .     S
C1120  H1124   1.080   .     S
C1120  C420    1.385   1_556 S
C1121  N1145   1.425   .     S
C1121  C417    1.379   1_556 S
C1122  N1148   1.431   .     S
C1125  C1360   1.387   .     S
C1125  S1385   1.809   .     S
C1126  S1156   1.818   .     S
N1127  N972    1.308   1_655 S
N1127  S1005   1.718   1_655 S
S1129  O1132   1.665   .     S
S1129  O1130   1.501   .     D
S1129  O1131   1.503   .     D
O1132  H1133   0.990   .     S
S1134  O1136   1.502   .     D
S1134  O1137   1.659   .     S
S1134  O1135   1.503   .     D
O1137  H1138   0.989   .     S
N1139  O1141   1.297   .     A
N1139  O1140   1.301   .     A
N1142  O1144   1.299   .     A
N1142  O1143   1.299   .     A
N1145  O1147   1.302   .     A
N1145  O1146   1.301   .     A
N1148  O1149   1.301   .     A
N1148  O1150   1.301   .     A
S1151  O1152   1.489   .     D
S1151  O1153   1.497   .     D
O1154  H1155   0.982   .     S
O1154  S1385   1.681   .     S
S1156  O1159   1.682   .     S
O1157  S1390   1.493   .     S
O1158  S1390   1.492   .     S
O1159  H1160   0.991   .     S
S1161  O1163   1.503   .     D
S1161  O1164   1.667   .     S
O1162  S1005   1.492   1_655 S
O1164  H1165   0.990   .     S
S1166  O1168   1.504   .     D
S1166  O1167   1.490   .     D
S1166  N972    1.711   1_655 S
S1166  O1013   1.671   1_655 S
O1169  H1170   0.990   .     S
O1171  C1175   1.305   .     A
O1171  Zn1183  2.050   .     S
O1172  C1176   1.309   .     A
O1172  Zn1184  2.050   .     S
O1173  Zn1184  2.045   .     S
O1173  C1175   1.321   .     A
O1174  Zn1183  2.045   .     S
O1174  C1176   1.318   .     A
C1175  C1203   1.434   .     S
C1176  C1204   1.434   .     S
O1177  C1181   1.327   .     A
O1177  Zn1183  2.043   .     S
O1178  C1182   1.325   .     A
O1178  Zn1184  2.043   .     S
O1179  Zn1184  2.042   .     S
O1179  C1181   1.318   .     A
O1180  C1182   1.317   .     A
O1180  Zn1183  2.042   .     S
C1181  C1188   1.471   .     S
C1182  C1187   1.465   .     S
Zn1183 N1206   2.078   .     S
Zn1184 N1205   2.078   .     S
C1185  C1195   1.417   .     A
C1185  S1207   1.790   .     S
C1185  C1187   1.422   .     A
C1186  C1196   1.422   .     A
C1186  S1212   1.787   .     S
C1186  C1188   1.428   .     A
C1187  C1189   1.395   .     A
C1188  C1190   1.398   .     A
C1189  C1191   1.390   .     A
C1189  N1217   1.423   .     S
C1190  N1220   1.426   .     S
C1190  C1192   1.392   .     A
C1191  C1197   1.392   .     A
C1191  C1193   1.401   .     A
C1192  C1198   1.400   .     A
C1192  C1194   1.406   .     A
C1193  C1195   1.417   .     A
C1194  C1196   1.423   .     A
C1194  C491    1.412   1_556 S
C1195  C1200   1.412   .     A
C1196  C1199   1.422   .     A
C1197  H1201   1.082   .     S
C1198  H1202   1.080   .     S
C1198  C498    1.385   1_556 S
C1199  N1223   1.425   .     S
C1199  C495    1.379   1_556 S
C1200  N1226   1.431   .     S
C1203  C736    1.387   1_565 S
C1203  S761    1.809   1_565 S
C1204  S1234   1.818   .     S
N1205  N1284   1.308   .     S
N1205  S1317   1.718   .     S
N1206  N1361   1.308   1_455 S
N1206  S1400   1.711   1_455 S
S1207  O1210   1.665   .     S
S1207  O1208   1.501   .     D
S1207  O1209   1.503   .     D
O1210  H1211   0.990   .     S
S1212  O1214   1.502   .     D
S1212  O1215   1.659   .     S
S1212  O1213   1.503   .     D
O1215  H1216   0.989   .     S
N1217  O1219   1.297   .     A
N1217  O1218   1.301   .     A
N1220  O1222   1.299   .     A
N1220  O1221   1.299   .     A
N1223  O1225   1.302   .     A
N1223  O1224   1.301   .     A
N1226  O1227   1.301   .     A
N1226  O1228   1.301   .     A
S1229  O1230   1.489   .     D
S1229  O1231   1.497   .     D
O1232  H1233   0.982   .     S
O1232  S761    1.681   1_565 S
S1234  O1237   1.682   .     S
O1235  S766    1.493   1_565 S
O1236  S766    1.492   1_565 S
O1237  H1238   0.991   .     S
S1239  O1241   1.503   .     D
S1239  O1242   1.667   .     S
S1239  N1361   1.718   1_455 S
S1239  O1396   1.492   1_455 S
O1240  S1317   1.492   .     S
O1242  H1243   0.990   .     S
S1244  O1246   1.504   .     D
S1244  O1245   1.490   .     D
S1244  N1284   1.711   .     S
S1244  O1325   1.671   .     S
O1247  H1248   0.990   .     S
O1247  S1400   1.671   1_455 S
O1249  C1253   1.305   .     A
O1249  Zn1261  2.050   .     S
O1250  C1254   1.309   .     A
O1250  Zn1262  2.050   .     S
O1251  Zn1262  2.045   .     S
O1251  C1253   1.321   .     A
O1252  Zn1261  2.045   .     S
O1252  C1254   1.318   .     A
C1253  C1281   1.434   .     S
C1254  C1282   1.434   .     S
O1255  C1259   1.327   .     A
O1255  Zn1261  2.043   .     S
O1256  C1260   1.325   .     A
O1256  Zn1262  2.043   .     S
O1257  Zn1262  2.042   .     S
O1257  C1259   1.318   .     A
O1258  C1260   1.317   .     A
O1258  Zn1261  2.042   .     S
C1259  C1266   1.471   .     S
C1260  C1265   1.465   .     S
Zn1261 N1284   2.078   .     S
Zn1262 N1283   2.078   .     S
C1263  C1273   1.417   .     A
C1263  S1285   1.790   .     S
C1263  C1265   1.422   .     A
C1264  C1274   1.422   .     A
C1264  S1290   1.787   .     S
C1264  C1266   1.428   .     A
C1265  C1267   1.395   .     A
C1266  C1268   1.398   .     A
C1267  C1269   1.390   .     A
C1267  N1295   1.423   .     S
C1268  N1298   1.426   .     S
C1268  C1270   1.392   .     A
C1269  C1275   1.392   .     A
C1269  C1271   1.401   .     A
C1270  C1276   1.400   .     A
C1270  C1272   1.406   .     A
C1271  C1273   1.417   .     A
C1272  C1274   1.423   .     A
C1272  C569    1.412   1_556 S
C1273  C1278   1.412   .     A
C1274  C1277   1.422   .     A
C1275  H1279   1.082   .     S
C1276  H1280   1.080   .     S
C1276  C576    1.385   1_556 S
C1277  N1301   1.425   .     S
C1277  C573    1.379   1_556 S
C1278  N1304   1.431   .     S
C1281  C814    1.387   1_565 S
C1281  S839    1.809   1_565 S
C1282  S1312   1.818   .     S
N1283  N1362   1.308   .     S
N1283  S1395   1.718   .     S
S1285  O1288   1.665   .     S
S1285  O1286   1.501   .     D
S1285  O1287   1.503   .     D
O1288  H1289   0.990   .     S
S1290  O1292   1.502   .     D
S1290  O1293   1.659   .     S
S1290  O1291   1.503   .     D
O1293  H1294   0.989   .     S
N1295  O1297   1.297   .     A
N1295  O1296   1.301   .     A
N1298  O1300   1.299   .     A
N1298  O1299   1.299   .     A
N1301  O1303   1.302   .     A
N1301  O1302   1.301   .     A
N1304  O1305   1.301   .     A
N1304  O1306   1.301   .     A
S1307  O1308   1.489   .     D
S1307  O1309   1.497   .     D
O1310  H1311   0.982   .     S
O1310  S839    1.681   1_565 S
S1312  O1315   1.682   .     S
O1313  S844    1.493   1_565 S
O1314  S844    1.492   1_565 S
O1315  H1316   0.991   .     S
S1317  O1319   1.503   .     D
S1317  O1320   1.667   .     S
O1318  S1395   1.492   .     S
O1320  H1321   0.990   .     S
S1322  O1324   1.504   .     D
S1322  O1323   1.490   .     D
S1322  N1362   1.711   .     S
S1322  O1403   1.671   .     S
O1325  H1326   0.990   .     S
O1327  C1331   1.305   .     A
O1327  Zn1339  2.050   .     S
O1328  C1332   1.309   .     A
O1328  Zn1340  2.050   .     S
O1329  Zn1340  2.045   .     S
O1329  C1331   1.321   .     A
O1330  Zn1339  2.045   .     S
O1330  C1332   1.318   .     A
C1331  C1359   1.434   .     S
C1332  C1360   1.434   .     S
O1333  C1337   1.327   .     A
O1333  Zn1339  2.043   .     S
O1334  C1338   1.325   .     A
O1334  Zn1340  2.043   .     S
O1335  Zn1340  2.042   .     S
O1335  C1337   1.318   .     A
O1336  C1338   1.317   .     A
O1336  Zn1339  2.042   .     S
C1337  C1344   1.471   .     S
C1338  C1343   1.465   .     S
Zn1339 N1362   2.078   .     S
Zn1340 N1361   2.078   .     S
C1341  C1351   1.417   .     A
C1341  S1363   1.790   .     S
C1341  C1343   1.422   .     A
C1342  C1352   1.422   .     A
C1342  S1368   1.787   .     S
C1342  C1344   1.428   .     A
C1343  C1345   1.395   .     A
C1344  C1346   1.398   .     A
C1345  C1347   1.390   .     A
C1345  N1373   1.423   .     S
C1346  N1376   1.426   .     S
C1346  C1348   1.392   .     A
C1347  C1353   1.392   .     A
C1347  C1349   1.401   .     A
C1348  C1354   1.400   .     A
C1348  C1350   1.406   .     A
C1349  C1351   1.417   .     A
C1350  C1352   1.423   .     A
C1350  C647    1.412   1_556 S
C1351  C1356   1.412   .     A
C1352  C1355   1.422   .     A
C1353  H1357   1.082   .     S
C1354  H1358   1.080   .     S
C1354  C654    1.385   1_556 S
C1355  N1379   1.425   .     S
C1355  C651    1.379   1_556 S
C1356  N1382   1.431   .     S
C1359  C892    1.387   1_565 S
C1359  S917    1.809   1_565 S
C1360  S1390   1.818   .     S
N1361  N1206   1.308   1_655 S
N1361  S1239   1.718   1_655 S
S1363  O1366   1.665   .     S
S1363  O1364   1.501   .     D
S1363  O1365   1.503   .     D
O1366  H1367   0.990   .     S
S1368  O1370   1.502   .     D
S1368  O1371   1.659   .     S
S1368  O1369   1.503   .     D
O1371  H1372   0.989   .     S
N1373  O1375   1.297   .     A
N1373  O1374   1.301   .     A
N1376  O1378   1.299   .     A
N1376  O1377   1.299   .     A
N1379  O1381   1.302   .     A
N1379  O1380   1.301   .     A
N1382  O1383   1.301   .     A
N1382  O1384   1.301   .     A
S1385  O1386   1.489   .     D
S1385  O1387   1.497   .     D
O1388  H1389   0.982   .     S
O1388  S917    1.681   1_565 S
S1390  O1393   1.682   .     S
O1391  S922    1.493   1_565 S
O1392  S922    1.492   1_565 S
O1393  H1394   0.991   .     S
S1395  O1397   1.503   .     D
S1395  O1398   1.667   .     S
O1396  S1239   1.492   1_655 S
O1398  H1399   0.990   .     S
S1400  O1402   1.504   .     D
S1400  O1401   1.490   .     D
S1400  N1206   1.711   1_655 S
S1400  O1247   1.671   1_655 S
O1403  H1404   0.990   .     S
