data_str_m3_o10_o18_pcu_sym.58
_audit_creation_date              2020-01-03
_audit_creation_method            'Materials Studio'
_symmetry_space_group_name_H-M    'P1'
_symmetry_Int_Tables_number       1
_symmetry_cell_setting            triclinic
loop_
_symmetry_equiv_pos_as_xyz
  x,y,z
_cell_length_a                    23.7616
_cell_length_b                    25.6878
_cell_length_c                    27.5231
_cell_angle_alpha                 94.8077
_cell_angle_beta                  92.6973
_cell_angle_gamma                 93.2155
loop_
_atom_site_label
_atom_site_type_symbol
_atom_site_fract_x
_atom_site_fract_y
_atom_site_fract_z
_atom_site_U_iso_or_equiv
_atom_site_adp_type
_atom_site_occupancy
C1     C     0.01447   0.26464   0.24988   0.00000  Uiso   1.00
C2     C     0.31271   0.16388   0.15902   0.00000  Uiso   1.00
C3     C     0.03047   0.17312   0.39376   0.00000  Uiso   1.00
C4     C     0.30281   0.16012   0.10625   0.00000  Uiso   1.00
C5     C     0.01885   0.22170   0.47079   0.00000  Uiso   1.00
C6     C     0.31396   0.11112   0.02936   0.00000  Uiso   1.00
C7     C     0.33162   0.20497   0.42373   0.00000  Uiso   1.00
C8     C     0.00142   0.12801   0.07632   0.00000  Uiso   1.00
C9     C     0.07845   0.15138   0.41284   0.00000  Uiso   1.00
C10    C     0.25485   0.18193   0.08721   0.00000  Uiso   1.00
C11    C     0.10026   0.16781   0.46041   0.00000  Uiso   1.00
C12    C     0.31886   0.06869   0.25013   0.00000  Uiso   1.00
C13    C     0.23268   0.16520   0.03980   0.00000  Uiso   1.00
C14    C     0.07147   0.20649   0.48775   0.00000  Uiso   1.00
C15    C     0.26131   0.12634   0.01250   0.00000  Uiso   1.00
C16    C     0.15293   0.15202   0.47924   0.00000  Uiso   1.00
C17    C     0.17989   0.18091   0.02108   0.00000  Uiso   1.00
C18    C     0.06522   0.00684   0.29870   0.00000  Uiso   1.00
C19    C     0.26813   0.32649   0.20130   0.00000  Uiso   1.00
C20    C     0.16168   0.10142   0.21736   0.00000  Uiso   1.00
C21    C     0.17166   0.23192   0.28264   0.00000  Uiso   1.00
C22    C     0.15284   0.22405   0.04283   0.00000  Uiso   1.00
C23    C     0.17981   0.10875   0.45758   0.00000  Uiso   1.00
C24    C     0.09799   0.23373   0.02894   0.00000  Uiso   1.00
C25    C     0.23462   0.09897   0.47145   0.00000  Uiso   1.00
C26    C     0.02079   0.31924   0.25912   0.00000  Uiso   1.00
C27    C     0.31255   0.01409   0.24088   0.00000  Uiso   1.00
C28    C     0.02062   0.16945   0.34098   0.00000  Uiso   1.00
F29    F     0.22653   0.21344   0.11829   0.00000  Uiso   1.00
F30    F     0.10723   0.12031   0.38172   0.00000  Uiso   1.00
H31    H     0.07811   0.26589   0.04803   0.00000  Uiso   1.00
H32    H     0.10197   0.02542   0.28210   0.00000  Uiso   1.00
H33    H     0.04736   0.03533   0.32551   0.00000  Uiso   1.00
H34    H     0.25250   0.02503   0.18033   0.00000  Uiso   1.00
H35    H     0.28601   0.29803   0.17448   0.00000  Uiso   1.00
H36    H     0.23138   0.30789   0.21789   0.00000  Uiso   1.00
H37    H     0.12457   0.08184   0.19599   0.00000  Uiso   1.00
H38    H     0.19567   0.10455   0.19169   0.00000  Uiso   1.00
H39    H     0.17282   0.07681   0.24717   0.00000  Uiso   1.00
H40    H     0.20877   0.25150   0.30401   0.00000  Uiso   1.00
H41    H     0.16051   0.25652   0.25282   0.00000  Uiso   1.00
H42    H     0.25438   0.06669   0.45242   0.00000  Uiso   1.00
H43    H     0.13766   0.22879   0.30831   0.00000  Uiso   1.00
H44    H     0.03936   0.11197   0.09064   0.00000  Uiso   1.00
H45    H     0.29366   0.22096   0.40938   0.00000  Uiso   1.00
H46    H     0.32928   0.24989   0.49236   0.00000  Uiso   1.00
H47    H     0.00338   0.08277   0.00783   0.00000  Uiso   1.00
H48    H     0.17345   0.25277   0.06941   0.00000  Uiso   1.00
H49    H     0.15901   0.08004   0.43106   0.00000  Uiso   1.00
H50    H     0.08083   0.30831   0.31968   0.00000  Uiso   1.00
N51    N     0.14695   0.15216   0.23740   0.00000  Uiso   1.00
N52    N     0.18638   0.18117   0.26261   0.00000  Uiso   1.00
O53    O     0.29719   0.24631   0.25310   0.00000  Uiso   1.00
O54    O     0.03614   0.08702   0.24691   0.00000  Uiso   1.00
O55    O     0.05822   0.23702   0.24502   0.00000  Uiso   1.00
O56    O     0.27512   0.09632   0.25499   0.00000  Uiso   1.00
O57    O     0.30328   0.17397   0.32247   0.00000  Uiso   1.00
O58    O     0.03005   0.15937   0.17753   0.00000  Uiso   1.00
O59    O     0.06431   0.16467   0.31439   0.00000  Uiso   1.00
O60    O     0.26902   0.16866   0.18561   0.00000  Uiso   1.00
Zn61   Zn    0.27033   0.17287   0.25540   0.00000  Uiso   1.00
Zn62   Zn    0.06300   0.16046   0.24461   0.00000  Uiso   1.00
C63    C     0.34781   0.26464   0.24988   0.00000  Uiso   1.00
C64    C     0.64605   0.16388   0.15902   0.00000  Uiso   1.00
C65    C     0.36380   0.17312   0.39376   0.00000  Uiso   1.00
C66    C     0.63614   0.16012   0.10625   0.00000  Uiso   1.00
C67    C     0.35218   0.22170   0.47079   0.00000  Uiso   1.00
C68    C     0.64730   0.11112   0.02936   0.00000  Uiso   1.00
C69    C     0.66495   0.20497   0.42373   0.00000  Uiso   1.00
C70    C     0.33475   0.12801   0.07632   0.00000  Uiso   1.00
C71    C     0.41179   0.15138   0.41284   0.00000  Uiso   1.00
C72    C     0.58818   0.18193   0.08721   0.00000  Uiso   1.00
C73    C     0.43359   0.16781   0.46041   0.00000  Uiso   1.00
C74    C     0.65219   0.06869   0.25013   0.00000  Uiso   1.00
C75    C     0.56601   0.16520   0.03980   0.00000  Uiso   1.00
C76    C     0.40480   0.20649   0.48775   0.00000  Uiso   1.00
C77    C     0.59464   0.12634   0.01250   0.00000  Uiso   1.00
C78    C     0.48626   0.15202   0.47924   0.00000  Uiso   1.00
C79    C     0.51323   0.18091   0.02108   0.00000  Uiso   1.00
C80    C     0.39855   0.00684   0.29870   0.00000  Uiso   1.00
C81    C     0.60146   0.32649   0.20130   0.00000  Uiso   1.00
C82    C     0.49501   0.10142   0.21736   0.00000  Uiso   1.00
C83    C     0.50499   0.23192   0.28264   0.00000  Uiso   1.00
C84    C     0.48617   0.22405   0.04283   0.00000  Uiso   1.00
C85    C     0.51314   0.10875   0.45758   0.00000  Uiso   1.00
C86    C     0.43132   0.23373   0.02894   0.00000  Uiso   1.00
C87    C     0.56796   0.09897   0.47145   0.00000  Uiso   1.00
C88    C     0.35412   0.31924   0.25912   0.00000  Uiso   1.00
C89    C     0.64588   0.01409   0.24088   0.00000  Uiso   1.00
C90    C     0.35395   0.16945   0.34098   0.00000  Uiso   1.00
F91    F     0.55986   0.21344   0.11829   0.00000  Uiso   1.00
F92    F     0.44056   0.12031   0.38172   0.00000  Uiso   1.00
H93    H     0.41144   0.26589   0.04803   0.00000  Uiso   1.00
H94    H     0.43530   0.02542   0.28210   0.00000  Uiso   1.00
H95    H     0.38069   0.03533   0.32551   0.00000  Uiso   1.00
H96    H     0.58583   0.02503   0.18033   0.00000  Uiso   1.00
H97    H     0.61934   0.29803   0.17448   0.00000  Uiso   1.00
H98    H     0.56471   0.30789   0.21789   0.00000  Uiso   1.00
H99    H     0.45790   0.08184   0.19599   0.00000  Uiso   1.00
H100   H     0.52900   0.10455   0.19169   0.00000  Uiso   1.00
H101   H     0.50616   0.07681   0.24717   0.00000  Uiso   1.00
H102   H     0.54210   0.25150   0.30401   0.00000  Uiso   1.00
H103   H     0.49384   0.25652   0.25282   0.00000  Uiso   1.00
H104   H     0.58771   0.06669   0.45242   0.00000  Uiso   1.00
H105   H     0.47100   0.22879   0.30831   0.00000  Uiso   1.00
H106   H     0.37270   0.11197   0.09064   0.00000  Uiso   1.00
H107   H     0.62699   0.22096   0.40938   0.00000  Uiso   1.00
H108   H     0.66261   0.24989   0.49236   0.00000  Uiso   1.00
H109   H     0.33671   0.08277   0.00783   0.00000  Uiso   1.00
H110   H     0.50679   0.25277   0.06941   0.00000  Uiso   1.00
H111   H     0.49234   0.08004   0.43106   0.00000  Uiso   1.00
H112   H     0.41416   0.30831   0.31968   0.00000  Uiso   1.00
N113   N     0.48029   0.15216   0.23740   0.00000  Uiso   1.00
N114   N     0.51971   0.18117   0.26261   0.00000  Uiso   1.00
O115   O     0.63052   0.24631   0.25310   0.00000  Uiso   1.00
O116   O     0.36948   0.08702   0.24691   0.00000  Uiso   1.00
O117   O     0.39155   0.23702   0.24502   0.00000  Uiso   1.00
O118   O     0.60845   0.09632   0.25499   0.00000  Uiso   1.00
O119   O     0.63662   0.17397   0.32247   0.00000  Uiso   1.00
O120   O     0.36338   0.15937   0.17753   0.00000  Uiso   1.00
O121   O     0.39764   0.16467   0.31439   0.00000  Uiso   1.00
O122   O     0.60236   0.16866   0.18561   0.00000  Uiso   1.00
Zn123  Zn    0.60366   0.17287   0.25540   0.00000  Uiso   1.00
Zn124  Zn    0.39634   0.16046   0.24461   0.00000  Uiso   1.00
C125   C     0.68114   0.26464   0.24988   0.00000  Uiso   1.00
C126   C     0.97938   0.16388   0.15902   0.00000  Uiso   1.00
C127   C     0.69713   0.17312   0.39376   0.00000  Uiso   1.00
C128   C     0.96948   0.16012   0.10625   0.00000  Uiso   1.00
C129   C     0.68551   0.22170   0.47079   0.00000  Uiso   1.00
C130   C     0.98063   0.11112   0.02936   0.00000  Uiso   1.00
C131   C     0.99829   0.20497   0.42373   0.00000  Uiso   1.00
C132   C     0.66808   0.12801   0.07632   0.00000  Uiso   1.00
C133   C     0.74512   0.15138   0.41284   0.00000  Uiso   1.00
C134   C     0.92151   0.18193   0.08721   0.00000  Uiso   1.00
C135   C     0.76693   0.16781   0.46041   0.00000  Uiso   1.00
C136   C     0.98553   0.06869   0.25013   0.00000  Uiso   1.00
C137   C     0.89935   0.16520   0.03980   0.00000  Uiso   1.00
C138   C     0.73813   0.20649   0.48775   0.00000  Uiso   1.00
C139   C     0.92798   0.12634   0.01250   0.00000  Uiso   1.00
C140   C     0.81960   0.15202   0.47924   0.00000  Uiso   1.00
C141   C     0.84656   0.18091   0.02108   0.00000  Uiso   1.00
C142   C     0.73188   0.00684   0.29870   0.00000  Uiso   1.00
C143   C     0.93479   0.32649   0.20130   0.00000  Uiso   1.00
C144   C     0.82834   0.10142   0.21736   0.00000  Uiso   1.00
C145   C     0.83832   0.23192   0.28264   0.00000  Uiso   1.00
C146   C     0.81951   0.22405   0.04283   0.00000  Uiso   1.00
C147   C     0.84647   0.10875   0.45758   0.00000  Uiso   1.00
C148   C     0.76466   0.23373   0.02894   0.00000  Uiso   1.00
C149   C     0.90129   0.09897   0.47145   0.00000  Uiso   1.00
C150   C     0.68745   0.31924   0.25912   0.00000  Uiso   1.00
C151   C     0.97921   0.01409   0.24088   0.00000  Uiso   1.00
C152   C     0.68728   0.16945   0.34098   0.00000  Uiso   1.00
F153   F     0.89319   0.21344   0.11829   0.00000  Uiso   1.00
F154   F     0.77390   0.12031   0.38172   0.00000  Uiso   1.00
H155   H     0.74477   0.26589   0.04803   0.00000  Uiso   1.00
H156   H     0.76864   0.02542   0.28210   0.00000  Uiso   1.00
H157   H     0.71402   0.03533   0.32551   0.00000  Uiso   1.00
H158   H     0.91917   0.02503   0.18033   0.00000  Uiso   1.00
H159   H     0.95267   0.29803   0.17448   0.00000  Uiso   1.00
H160   H     0.89805   0.30789   0.21789   0.00000  Uiso   1.00
H161   H     0.79123   0.08184   0.19599   0.00000  Uiso   1.00
H162   H     0.86234   0.10455   0.19169   0.00000  Uiso   1.00
H163   H     0.83949   0.07681   0.24717   0.00000  Uiso   1.00
H164   H     0.87543   0.25150   0.30401   0.00000  Uiso   1.00
H165   H     0.82718   0.25652   0.25282   0.00000  Uiso   1.00
H166   H     0.92105   0.06669   0.45242   0.00000  Uiso   1.00
H167   H     0.80433   0.22879   0.30831   0.00000  Uiso   1.00
H168   H     0.70603   0.11197   0.09064   0.00000  Uiso   1.00
H169   H     0.96032   0.22096   0.40938   0.00000  Uiso   1.00
H170   H     0.99594   0.24989   0.49236   0.00000  Uiso   1.00
H171   H     0.67005   0.08277   0.00783   0.00000  Uiso   1.00
H172   H     0.84012   0.25277   0.06941   0.00000  Uiso   1.00
H173   H     0.82567   0.08004   0.43106   0.00000  Uiso   1.00
H174   H     0.74749   0.30831   0.31968   0.00000  Uiso   1.00
N175   N     0.81362   0.15216   0.23740   0.00000  Uiso   1.00
N176   N     0.85305   0.18117   0.26261   0.00000  Uiso   1.00
O177   O     0.96386   0.24631   0.25310   0.00000  Uiso   1.00
O178   O     0.70281   0.08702   0.24691   0.00000  Uiso   1.00
O179   O     0.72488   0.23702   0.24502   0.00000  Uiso   1.00
O180   O     0.94178   0.09632   0.25499   0.00000  Uiso   1.00
O181   O     0.96995   0.17397   0.32247   0.00000  Uiso   1.00
O182   O     0.69672   0.15937   0.17753   0.00000  Uiso   1.00
O183   O     0.73098   0.16467   0.31439   0.00000  Uiso   1.00
O184   O     0.93569   0.16866   0.18561   0.00000  Uiso   1.00
Zn185  Zn    0.93700   0.17287   0.25540   0.00000  Uiso   1.00
Zn186  Zn    0.72967   0.16046   0.24461   0.00000  Uiso   1.00
C187   C     0.01447   0.59798   0.24988   0.00000  Uiso   1.00
C188   C     0.31271   0.49721   0.15902   0.00000  Uiso   1.00
C189   C     0.03047   0.50645   0.39376   0.00000  Uiso   1.00
C190   C     0.30281   0.49346   0.10625   0.00000  Uiso   1.00
C191   C     0.01885   0.55503   0.47079   0.00000  Uiso   1.00
C192   C     0.31396   0.44445   0.02936   0.00000  Uiso   1.00
C193   C     0.33162   0.53831   0.42373   0.00000  Uiso   1.00
C194   C     0.00142   0.46134   0.07632   0.00000  Uiso   1.00
C195   C     0.07845   0.48471   0.41284   0.00000  Uiso   1.00
C196   C     0.25485   0.51526   0.08721   0.00000  Uiso   1.00
C197   C     0.10026   0.50115   0.46041   0.00000  Uiso   1.00
C198   C     0.31886   0.40202   0.25013   0.00000  Uiso   1.00
C199   C     0.23268   0.49853   0.03980   0.00000  Uiso   1.00
C200   C     0.07147   0.53983   0.48775   0.00000  Uiso   1.00
C201   C     0.26131   0.45967   0.01250   0.00000  Uiso   1.00
C202   C     0.15293   0.48536   0.47924   0.00000  Uiso   1.00
C203   C     0.17989   0.51424   0.02108   0.00000  Uiso   1.00
C204   C     0.06522   0.34018   0.29870   0.00000  Uiso   1.00
C205   C     0.26813   0.65983   0.20130   0.00000  Uiso   1.00
C206   C     0.16168   0.43475   0.21736   0.00000  Uiso   1.00
C207   C     0.17166   0.56525   0.28264   0.00000  Uiso   1.00
C208   C     0.15284   0.55738   0.04283   0.00000  Uiso   1.00
C209   C     0.17981   0.44208   0.45758   0.00000  Uiso   1.00
C210   C     0.09799   0.56706   0.02894   0.00000  Uiso   1.00
C211   C     0.23462   0.43230   0.47145   0.00000  Uiso   1.00
C212   C     0.02079   0.65258   0.25912   0.00000  Uiso   1.00
C213   C     0.31255   0.34742   0.24088   0.00000  Uiso   1.00
C214   C     0.02062   0.50278   0.34098   0.00000  Uiso   1.00
F215   F     0.22653   0.54677   0.11829   0.00000  Uiso   1.00
F216   F     0.10723   0.45365   0.38172   0.00000  Uiso   1.00
H217   H     0.07811   0.59923   0.04803   0.00000  Uiso   1.00
H218   H     0.10197   0.35875   0.28210   0.00000  Uiso   1.00
H219   H     0.04736   0.36866   0.32551   0.00000  Uiso   1.00
H220   H     0.25250   0.35836   0.18033   0.00000  Uiso   1.00
H221   H     0.28601   0.63136   0.17448   0.00000  Uiso   1.00
H222   H     0.23138   0.64122   0.21789   0.00000  Uiso   1.00
H223   H     0.12457   0.41517   0.19599   0.00000  Uiso   1.00
H224   H     0.19567   0.43788   0.19169   0.00000  Uiso   1.00
H225   H     0.17282   0.41014   0.24717   0.00000  Uiso   1.00
H226   H     0.20877   0.58483   0.30401   0.00000  Uiso   1.00
H227   H     0.16051   0.58986   0.25282   0.00000  Uiso   1.00
H228   H     0.25438   0.40002   0.45242   0.00000  Uiso   1.00
H229   H     0.13766   0.56212   0.30831   0.00000  Uiso   1.00
H230   H     0.03936   0.44530   0.09064   0.00000  Uiso   1.00
H231   H     0.29366   0.55429   0.40938   0.00000  Uiso   1.00
H232   H     0.32928   0.58322   0.49236   0.00000  Uiso   1.00
H233   H     0.00338   0.41611   0.00783   0.00000  Uiso   1.00
H234   H     0.17345   0.58611   0.06941   0.00000  Uiso   1.00
H235   H     0.15901   0.41338   0.43106   0.00000  Uiso   1.00
H236   H     0.08083   0.64164   0.31968   0.00000  Uiso   1.00
N237   N     0.14695   0.48550   0.23740   0.00000  Uiso   1.00
N238   N     0.18638   0.51450   0.26261   0.00000  Uiso   1.00
O239   O     0.29719   0.57964   0.25310   0.00000  Uiso   1.00
O240   O     0.03614   0.42036   0.24691   0.00000  Uiso   1.00
O241   O     0.05822   0.57035   0.24502   0.00000  Uiso   1.00
O242   O     0.27512   0.42965   0.25499   0.00000  Uiso   1.00
O243   O     0.30328   0.50730   0.32247   0.00000  Uiso   1.00
O244   O     0.03005   0.49270   0.17753   0.00000  Uiso   1.00
O245   O     0.06431   0.49801   0.31439   0.00000  Uiso   1.00
O246   O     0.26902   0.50199   0.18561   0.00000  Uiso   1.00
Zn247  Zn    0.27033   0.50621   0.25540   0.00000  Uiso   1.00
Zn248  Zn    0.06300   0.49379   0.24461   0.00000  Uiso   1.00
C249   C     0.34781   0.59798   0.24988   0.00000  Uiso   1.00
C250   C     0.64605   0.49721   0.15902   0.00000  Uiso   1.00
C251   C     0.36380   0.50645   0.39376   0.00000  Uiso   1.00
C252   C     0.63614   0.49346   0.10625   0.00000  Uiso   1.00
C253   C     0.35218   0.55503   0.47079   0.00000  Uiso   1.00
C254   C     0.64730   0.44445   0.02936   0.00000  Uiso   1.00
C255   C     0.66495   0.53831   0.42373   0.00000  Uiso   1.00
C256   C     0.33475   0.46134   0.07632   0.00000  Uiso   1.00
C257   C     0.41179   0.48471   0.41284   0.00000  Uiso   1.00
C258   C     0.58818   0.51526   0.08721   0.00000  Uiso   1.00
C259   C     0.43359   0.50115   0.46041   0.00000  Uiso   1.00
C260   C     0.65219   0.40202   0.25013   0.00000  Uiso   1.00
C261   C     0.56601   0.49853   0.03980   0.00000  Uiso   1.00
C262   C     0.40480   0.53983   0.48775   0.00000  Uiso   1.00
C263   C     0.59464   0.45967   0.01250   0.00000  Uiso   1.00
C264   C     0.48626   0.48536   0.47924   0.00000  Uiso   1.00
C265   C     0.51323   0.51424   0.02108   0.00000  Uiso   1.00
C266   C     0.39855   0.34018   0.29870   0.00000  Uiso   1.00
C267   C     0.60146   0.65983   0.20130   0.00000  Uiso   1.00
C268   C     0.49501   0.43475   0.21736   0.00000  Uiso   1.00
C269   C     0.50499   0.56525   0.28264   0.00000  Uiso   1.00
C270   C     0.48617   0.55738   0.04283   0.00000  Uiso   1.00
C271   C     0.51314   0.44208   0.45758   0.00000  Uiso   1.00
C272   C     0.43132   0.56706   0.02894   0.00000  Uiso   1.00
C273   C     0.56796   0.43230   0.47145   0.00000  Uiso   1.00
C274   C     0.35412   0.65258   0.25912   0.00000  Uiso   1.00
C275   C     0.64588   0.34742   0.24088   0.00000  Uiso   1.00
C276   C     0.35395   0.50278   0.34098   0.00000  Uiso   1.00
F277   F     0.55986   0.54677   0.11829   0.00000  Uiso   1.00
F278   F     0.44056   0.45365   0.38172   0.00000  Uiso   1.00
H279   H     0.41144   0.59923   0.04803   0.00000  Uiso   1.00
H280   H     0.43530   0.35875   0.28210   0.00000  Uiso   1.00
H281   H     0.38069   0.36866   0.32551   0.00000  Uiso   1.00
H282   H     0.58583   0.35836   0.18033   0.00000  Uiso   1.00
H283   H     0.61934   0.63136   0.17448   0.00000  Uiso   1.00
H284   H     0.56471   0.64122   0.21789   0.00000  Uiso   1.00
H285   H     0.45790   0.41517   0.19599   0.00000  Uiso   1.00
H286   H     0.52900   0.43788   0.19169   0.00000  Uiso   1.00
H287   H     0.50616   0.41014   0.24717   0.00000  Uiso   1.00
H288   H     0.54210   0.58483   0.30401   0.00000  Uiso   1.00
H289   H     0.49384   0.58986   0.25282   0.00000  Uiso   1.00
H290   H     0.58771   0.40002   0.45242   0.00000  Uiso   1.00
H291   H     0.47100   0.56212   0.30831   0.00000  Uiso   1.00
H292   H     0.37270   0.44530   0.09064   0.00000  Uiso   1.00
H293   H     0.62699   0.55429   0.40938   0.00000  Uiso   1.00
H294   H     0.66261   0.58322   0.49236   0.00000  Uiso   1.00
H295   H     0.33671   0.41611   0.00783   0.00000  Uiso   1.00
H296   H     0.50679   0.58611   0.06941   0.00000  Uiso   1.00
H297   H     0.49234   0.41338   0.43106   0.00000  Uiso   1.00
H298   H     0.41416   0.64164   0.31968   0.00000  Uiso   1.00
N299   N     0.48029   0.48550   0.23740   0.00000  Uiso   1.00
N300   N     0.51971   0.51450   0.26261   0.00000  Uiso   1.00
O301   O     0.63052   0.57964   0.25310   0.00000  Uiso   1.00
O302   O     0.36948   0.42036   0.24691   0.00000  Uiso   1.00
O303   O     0.39155   0.57035   0.24502   0.00000  Uiso   1.00
O304   O     0.60845   0.42965   0.25499   0.00000  Uiso   1.00
O305   O     0.63662   0.50730   0.32247   0.00000  Uiso   1.00
O306   O     0.36338   0.49270   0.17753   0.00000  Uiso   1.00
O307   O     0.39764   0.49801   0.31439   0.00000  Uiso   1.00
O308   O     0.60236   0.50199   0.18561   0.00000  Uiso   1.00
Zn309  Zn    0.60366   0.50621   0.25540   0.00000  Uiso   1.00
Zn310  Zn    0.39634   0.49379   0.24461   0.00000  Uiso   1.00
C311   C     0.68114   0.59798   0.24988   0.00000  Uiso   1.00
C312   C     0.97938   0.49721   0.15902   0.00000  Uiso   1.00
C313   C     0.69713   0.50645   0.39376   0.00000  Uiso   1.00
C314   C     0.96948   0.49346   0.10625   0.00000  Uiso   1.00
C315   C     0.68551   0.55503   0.47079   0.00000  Uiso   1.00
C316   C     0.98063   0.44445   0.02936   0.00000  Uiso   1.00
C317   C     0.99829   0.53831   0.42373   0.00000  Uiso   1.00
C318   C     0.66808   0.46134   0.07632   0.00000  Uiso   1.00
C319   C     0.74512   0.48471   0.41284   0.00000  Uiso   1.00
C320   C     0.92151   0.51526   0.08721   0.00000  Uiso   1.00
C321   C     0.76693   0.50115   0.46041   0.00000  Uiso   1.00
C322   C     0.98553   0.40202   0.25013   0.00000  Uiso   1.00
C323   C     0.89935   0.49853   0.03980   0.00000  Uiso   1.00
C324   C     0.73813   0.53983   0.48775   0.00000  Uiso   1.00
C325   C     0.92798   0.45967   0.01250   0.00000  Uiso   1.00
C326   C     0.81960   0.48536   0.47924   0.00000  Uiso   1.00
C327   C     0.84656   0.51424   0.02108   0.00000  Uiso   1.00
C328   C     0.73188   0.34018   0.29870   0.00000  Uiso   1.00
C329   C     0.93479   0.65983   0.20130   0.00000  Uiso   1.00
C330   C     0.82834   0.43475   0.21736   0.00000  Uiso   1.00
C331   C     0.83832   0.56525   0.28264   0.00000  Uiso   1.00
C332   C     0.81951   0.55738   0.04283   0.00000  Uiso   1.00
C333   C     0.84647   0.44208   0.45758   0.00000  Uiso   1.00
C334   C     0.76466   0.56706   0.02894   0.00000  Uiso   1.00
C335   C     0.90129   0.43230   0.47145   0.00000  Uiso   1.00
C336   C     0.68745   0.65258   0.25912   0.00000  Uiso   1.00
C337   C     0.97921   0.34742   0.24088   0.00000  Uiso   1.00
C338   C     0.68728   0.50278   0.34098   0.00000  Uiso   1.00
F339   F     0.89319   0.54677   0.11829   0.00000  Uiso   1.00
F340   F     0.77390   0.45365   0.38172   0.00000  Uiso   1.00
H341   H     0.74477   0.59923   0.04803   0.00000  Uiso   1.00
H342   H     0.76864   0.35875   0.28210   0.00000  Uiso   1.00
H343   H     0.71402   0.36866   0.32551   0.00000  Uiso   1.00
H344   H     0.91917   0.35836   0.18033   0.00000  Uiso   1.00
H345   H     0.95267   0.63136   0.17448   0.00000  Uiso   1.00
H346   H     0.89805   0.64122   0.21789   0.00000  Uiso   1.00
H347   H     0.79123   0.41517   0.19599   0.00000  Uiso   1.00
H348   H     0.86234   0.43788   0.19169   0.00000  Uiso   1.00
H349   H     0.83949   0.41014   0.24717   0.00000  Uiso   1.00
H350   H     0.87543   0.58483   0.30401   0.00000  Uiso   1.00
H351   H     0.82718   0.58986   0.25282   0.00000  Uiso   1.00
H352   H     0.92105   0.40002   0.45242   0.00000  Uiso   1.00
H353   H     0.80433   0.56212   0.30831   0.00000  Uiso   1.00
H354   H     0.70603   0.44530   0.09064   0.00000  Uiso   1.00
H355   H     0.96032   0.55429   0.40938   0.00000  Uiso   1.00
H356   H     0.99594   0.58322   0.49236   0.00000  Uiso   1.00
H357   H     0.67005   0.41611   0.00783   0.00000  Uiso   1.00
H358   H     0.84012   0.58611   0.06941   0.00000  Uiso   1.00
H359   H     0.82567   0.41338   0.43106   0.00000  Uiso   1.00
H360   H     0.74749   0.64164   0.31968   0.00000  Uiso   1.00
N361   N     0.81362   0.48550   0.23740   0.00000  Uiso   1.00
N362   N     0.85305   0.51450   0.26261   0.00000  Uiso   1.00
O363   O     0.96386   0.57964   0.25310   0.00000  Uiso   1.00
O364   O     0.70281   0.42036   0.24691   0.00000  Uiso   1.00
O365   O     0.72488   0.57035   0.24502   0.00000  Uiso   1.00
O366   O     0.94178   0.42965   0.25499   0.00000  Uiso   1.00
O367   O     0.96995   0.50730   0.32247   0.00000  Uiso   1.00
O368   O     0.69672   0.49270   0.17753   0.00000  Uiso   1.00
O369   O     0.73098   0.49801   0.31439   0.00000  Uiso   1.00
O370   O     0.93569   0.50199   0.18561   0.00000  Uiso   1.00
Zn371  Zn    0.93700   0.50621   0.25540   0.00000  Uiso   1.00
Zn372  Zn    0.72967   0.49379   0.24461   0.00000  Uiso   1.00
C373   C     0.01447   0.93131   0.24988   0.00000  Uiso   1.00
C374   C     0.31271   0.83055   0.15902   0.00000  Uiso   1.00
C375   C     0.03047   0.83978   0.39376   0.00000  Uiso   1.00
C376   C     0.30281   0.82679   0.10625   0.00000  Uiso   1.00
C377   C     0.01885   0.88837   0.47079   0.00000  Uiso   1.00
C378   C     0.31396   0.77778   0.02936   0.00000  Uiso   1.00
C379   C     0.33162   0.87164   0.42373   0.00000  Uiso   1.00
C380   C     0.00142   0.79467   0.07632   0.00000  Uiso   1.00
C381   C     0.07845   0.81804   0.41284   0.00000  Uiso   1.00
C382   C     0.25485   0.84860   0.08721   0.00000  Uiso   1.00
C383   C     0.10026   0.83448   0.46041   0.00000  Uiso   1.00
C384   C     0.31886   0.73536   0.25013   0.00000  Uiso   1.00
C385   C     0.23268   0.83186   0.03980   0.00000  Uiso   1.00
C386   C     0.07147   0.87316   0.48775   0.00000  Uiso   1.00
C387   C     0.26131   0.79301   0.01250   0.00000  Uiso   1.00
C388   C     0.15293   0.81869   0.47924   0.00000  Uiso   1.00
C389   C     0.17989   0.84757   0.02108   0.00000  Uiso   1.00
C390   C     0.06522   0.67351   0.29870   0.00000  Uiso   1.00
C391   C     0.26813   0.99316   0.20130   0.00000  Uiso   1.00
C392   C     0.16168   0.76808   0.21736   0.00000  Uiso   1.00
C393   C     0.17166   0.89859   0.28264   0.00000  Uiso   1.00
C394   C     0.15284   0.89072   0.04283   0.00000  Uiso   1.00
C395   C     0.17981   0.77542   0.45758   0.00000  Uiso   1.00
C396   C     0.09799   0.90040   0.02894   0.00000  Uiso   1.00
C397   C     0.23462   0.76564   0.47145   0.00000  Uiso   1.00
C398   C     0.02079   0.98591   0.25912   0.00000  Uiso   1.00
C399   C     0.31255   0.68076   0.24088   0.00000  Uiso   1.00
C400   C     0.02062   0.83611   0.34098   0.00000  Uiso   1.00
F401   F     0.22653   0.88011   0.11829   0.00000  Uiso   1.00
F402   F     0.10723   0.78698   0.38172   0.00000  Uiso   1.00
H403   H     0.07811   0.93256   0.04803   0.00000  Uiso   1.00
H404   H     0.10197   0.69209   0.28210   0.00000  Uiso   1.00
H405   H     0.04736   0.70200   0.32551   0.00000  Uiso   1.00
H406   H     0.25250   0.69169   0.18033   0.00000  Uiso   1.00
H407   H     0.28601   0.96470   0.17448   0.00000  Uiso   1.00
H408   H     0.23138   0.97456   0.21789   0.00000  Uiso   1.00
H409   H     0.12457   0.74850   0.19599   0.00000  Uiso   1.00
H410   H     0.19567   0.77121   0.19169   0.00000  Uiso   1.00
H411   H     0.17282   0.74348   0.24717   0.00000  Uiso   1.00
H412   H     0.20877   0.91816   0.30401   0.00000  Uiso   1.00
H413   H     0.16051   0.92319   0.25282   0.00000  Uiso   1.00
H414   H     0.25438   0.73336   0.45242   0.00000  Uiso   1.00
H415   H     0.13766   0.89545   0.30831   0.00000  Uiso   1.00
H416   H     0.03936   0.77864   0.09064   0.00000  Uiso   1.00
H417   H     0.29366   0.88762   0.40938   0.00000  Uiso   1.00
H418   H     0.32928   0.91656   0.49236   0.00000  Uiso   1.00
H419   H     0.00338   0.74944   0.00783   0.00000  Uiso   1.00
H420   H     0.17345   0.91944   0.06941   0.00000  Uiso   1.00
H421   H     0.15901   0.74671   0.43106   0.00000  Uiso   1.00
H422   H     0.08083   0.97498   0.31968   0.00000  Uiso   1.00
N423   N     0.14695   0.81883   0.23740   0.00000  Uiso   1.00
N424   N     0.18638   0.84784   0.26261   0.00000  Uiso   1.00
O425   O     0.29719   0.91298   0.25310   0.00000  Uiso   1.00
O426   O     0.03614   0.75369   0.24691   0.00000  Uiso   1.00
O427   O     0.05822   0.90368   0.24502   0.00000  Uiso   1.00
O428   O     0.27512   0.76298   0.25499   0.00000  Uiso   1.00
O429   O     0.30328   0.84063   0.32247   0.00000  Uiso   1.00
O430   O     0.03005   0.82603   0.17753   0.00000  Uiso   1.00
O431   O     0.06431   0.83134   0.31439   0.00000  Uiso   1.00
O432   O     0.26902   0.83533   0.18561   0.00000  Uiso   1.00
Zn433  Zn    0.27033   0.83954   0.25540   0.00000  Uiso   1.00
Zn434  Zn    0.06300   0.82713   0.24461   0.00000  Uiso   1.00
C435   C     0.34781   0.93131   0.24988   0.00000  Uiso   1.00
C436   C     0.64605   0.83055   0.15902   0.00000  Uiso   1.00
C437   C     0.36380   0.83978   0.39376   0.00000  Uiso   1.00
C438   C     0.63614   0.82679   0.10625   0.00000  Uiso   1.00
C439   C     0.35218   0.88837   0.47079   0.00000  Uiso   1.00
C440   C     0.64730   0.77778   0.02936   0.00000  Uiso   1.00
C441   C     0.66495   0.87164   0.42373   0.00000  Uiso   1.00
C442   C     0.33475   0.79467   0.07632   0.00000  Uiso   1.00
C443   C     0.41179   0.81804   0.41284   0.00000  Uiso   1.00
C444   C     0.58818   0.84860   0.08721   0.00000  Uiso   1.00
C445   C     0.43359   0.83448   0.46041   0.00000  Uiso   1.00
C446   C     0.65219   0.73536   0.25013   0.00000  Uiso   1.00
C447   C     0.56601   0.83186   0.03980   0.00000  Uiso   1.00
C448   C     0.40480   0.87316   0.48775   0.00000  Uiso   1.00
C449   C     0.59464   0.79301   0.01250   0.00000  Uiso   1.00
C450   C     0.48626   0.81869   0.47924   0.00000  Uiso   1.00
C451   C     0.51323   0.84757   0.02108   0.00000  Uiso   1.00
C452   C     0.39855   0.67351   0.29870   0.00000  Uiso   1.00
C453   C     0.60146   0.99316   0.20130   0.00000  Uiso   1.00
C454   C     0.49501   0.76808   0.21736   0.00000  Uiso   1.00
C455   C     0.50499   0.89859   0.28264   0.00000  Uiso   1.00
C456   C     0.48617   0.89072   0.04283   0.00000  Uiso   1.00
C457   C     0.51314   0.77542   0.45758   0.00000  Uiso   1.00
C458   C     0.43132   0.90040   0.02894   0.00000  Uiso   1.00
C459   C     0.56796   0.76564   0.47145   0.00000  Uiso   1.00
C460   C     0.35412   0.98591   0.25912   0.00000  Uiso   1.00
C461   C     0.64588   0.68076   0.24088   0.00000  Uiso   1.00
C462   C     0.35395   0.83611   0.34098   0.00000  Uiso   1.00
F463   F     0.55986   0.88011   0.11829   0.00000  Uiso   1.00
F464   F     0.44056   0.78698   0.38172   0.00000  Uiso   1.00
H465   H     0.41144   0.93256   0.04803   0.00000  Uiso   1.00
H466   H     0.43530   0.69209   0.28210   0.00000  Uiso   1.00
H467   H     0.38069   0.70200   0.32551   0.00000  Uiso   1.00
H468   H     0.58583   0.69169   0.18033   0.00000  Uiso   1.00
H469   H     0.61934   0.96470   0.17448   0.00000  Uiso   1.00
H470   H     0.56471   0.97456   0.21789   0.00000  Uiso   1.00
H471   H     0.45790   0.74850   0.19599   0.00000  Uiso   1.00
H472   H     0.52900   0.77121   0.19169   0.00000  Uiso   1.00
H473   H     0.50616   0.74348   0.24717   0.00000  Uiso   1.00
H474   H     0.54210   0.91816   0.30401   0.00000  Uiso   1.00
H475   H     0.49384   0.92319   0.25282   0.00000  Uiso   1.00
H476   H     0.58771   0.73336   0.45242   0.00000  Uiso   1.00
H477   H     0.47100   0.89545   0.30831   0.00000  Uiso   1.00
H478   H     0.37270   0.77864   0.09064   0.00000  Uiso   1.00
H479   H     0.62699   0.88762   0.40938   0.00000  Uiso   1.00
H480   H     0.66261   0.91656   0.49236   0.00000  Uiso   1.00
H481   H     0.33671   0.74944   0.00783   0.00000  Uiso   1.00
H482   H     0.50679   0.91944   0.06941   0.00000  Uiso   1.00
H483   H     0.49234   0.74671   0.43106   0.00000  Uiso   1.00
H484   H     0.41416   0.97498   0.31968   0.00000  Uiso   1.00
N485   N     0.48029   0.81883   0.23740   0.00000  Uiso   1.00
N486   N     0.51971   0.84784   0.26261   0.00000  Uiso   1.00
O487   O     0.63052   0.91298   0.25310   0.00000  Uiso   1.00
O488   O     0.36948   0.75369   0.24691   0.00000  Uiso   1.00
O489   O     0.39155   0.90368   0.24502   0.00000  Uiso   1.00
O490   O     0.60845   0.76298   0.25499   0.00000  Uiso   1.00
O491   O     0.63662   0.84063   0.32247   0.00000  Uiso   1.00
O492   O     0.36338   0.82603   0.17753   0.00000  Uiso   1.00
O493   O     0.39764   0.83134   0.31439   0.00000  Uiso   1.00
O494   O     0.60236   0.83533   0.18561   0.00000  Uiso   1.00
Zn495  Zn    0.60366   0.83954   0.25540   0.00000  Uiso   1.00
Zn496  Zn    0.39634   0.82713   0.24461   0.00000  Uiso   1.00
C497   C     0.68114   0.93131   0.24988   0.00000  Uiso   1.00
C498   C     0.97938   0.83055   0.15902   0.00000  Uiso   1.00
C499   C     0.69713   0.83978   0.39376   0.00000  Uiso   1.00
C500   C     0.96948   0.82679   0.10625   0.00000  Uiso   1.00
C501   C     0.68551   0.88837   0.47079   0.00000  Uiso   1.00
C502   C     0.98063   0.77778   0.02936   0.00000  Uiso   1.00
C503   C     0.99829   0.87164   0.42373   0.00000  Uiso   1.00
C504   C     0.66808   0.79467   0.07632   0.00000  Uiso   1.00
C505   C     0.74512   0.81804   0.41284   0.00000  Uiso   1.00
C506   C     0.92151   0.84860   0.08721   0.00000  Uiso   1.00
C507   C     0.76693   0.83448   0.46041   0.00000  Uiso   1.00
C508   C     0.98553   0.73536   0.25013   0.00000  Uiso   1.00
C509   C     0.89935   0.83186   0.03980   0.00000  Uiso   1.00
C510   C     0.73813   0.87316   0.48775   0.00000  Uiso   1.00
C511   C     0.92798   0.79301   0.01250   0.00000  Uiso   1.00
C512   C     0.81960   0.81869   0.47924   0.00000  Uiso   1.00
C513   C     0.84656   0.84757   0.02108   0.00000  Uiso   1.00
C514   C     0.73188   0.67351   0.29870   0.00000  Uiso   1.00
C515   C     0.93479   0.99316   0.20130   0.00000  Uiso   1.00
C516   C     0.82834   0.76808   0.21736   0.00000  Uiso   1.00
C517   C     0.83832   0.89859   0.28264   0.00000  Uiso   1.00
C518   C     0.81951   0.89072   0.04283   0.00000  Uiso   1.00
C519   C     0.84647   0.77542   0.45758   0.00000  Uiso   1.00
C520   C     0.76466   0.90040   0.02894   0.00000  Uiso   1.00
C521   C     0.90129   0.76564   0.47145   0.00000  Uiso   1.00
C522   C     0.68745   0.98591   0.25912   0.00000  Uiso   1.00
C523   C     0.97921   0.68076   0.24088   0.00000  Uiso   1.00
C524   C     0.68728   0.83611   0.34098   0.00000  Uiso   1.00
F525   F     0.89319   0.88011   0.11829   0.00000  Uiso   1.00
F526   F     0.77390   0.78698   0.38172   0.00000  Uiso   1.00
H527   H     0.74477   0.93256   0.04803   0.00000  Uiso   1.00
H528   H     0.76864   0.69209   0.28210   0.00000  Uiso   1.00
H529   H     0.71402   0.70200   0.32551   0.00000  Uiso   1.00
H530   H     0.91917   0.69169   0.18033   0.00000  Uiso   1.00
H531   H     0.95267   0.96470   0.17448   0.00000  Uiso   1.00
H532   H     0.89805   0.97456   0.21789   0.00000  Uiso   1.00
H533   H     0.79123   0.74850   0.19599   0.00000  Uiso   1.00
H534   H     0.86234   0.77121   0.19169   0.00000  Uiso   1.00
H535   H     0.83949   0.74348   0.24717   0.00000  Uiso   1.00
H536   H     0.87543   0.91816   0.30401   0.00000  Uiso   1.00
H537   H     0.82718   0.92319   0.25282   0.00000  Uiso   1.00
H538   H     0.92105   0.73336   0.45242   0.00000  Uiso   1.00
H539   H     0.80433   0.89545   0.30831   0.00000  Uiso   1.00
H540   H     0.70603   0.77864   0.09064   0.00000  Uiso   1.00
H541   H     0.96032   0.88762   0.40938   0.00000  Uiso   1.00
H542   H     0.99594   0.91656   0.49236   0.00000  Uiso   1.00
H543   H     0.67005   0.74944   0.00783   0.00000  Uiso   1.00
H544   H     0.84012   0.91944   0.06941   0.00000  Uiso   1.00
H545   H     0.82567   0.74671   0.43106   0.00000  Uiso   1.00
H546   H     0.74749   0.97498   0.31968   0.00000  Uiso   1.00
N547   N     0.81362   0.81883   0.23740   0.00000  Uiso   1.00
N548   N     0.85305   0.84784   0.26261   0.00000  Uiso   1.00
O549   O     0.96386   0.91298   0.25310   0.00000  Uiso   1.00
O550   O     0.70281   0.75369   0.24691   0.00000  Uiso   1.00
O551   O     0.72488   0.90368   0.24502   0.00000  Uiso   1.00
O552   O     0.94178   0.76298   0.25499   0.00000  Uiso   1.00
O553   O     0.96995   0.84063   0.32247   0.00000  Uiso   1.00
O554   O     0.69672   0.82603   0.17753   0.00000  Uiso   1.00
O555   O     0.73098   0.83134   0.31439   0.00000  Uiso   1.00
O556   O     0.93569   0.83533   0.18561   0.00000  Uiso   1.00
Zn557  Zn    0.93700   0.83954   0.25540   0.00000  Uiso   1.00
Zn558  Zn    0.72967   0.82713   0.24461   0.00000  Uiso   1.00
C559   C     0.01447   0.26464   0.74988   0.00000  Uiso   1.00
C560   C     0.31271   0.16388   0.65902   0.00000  Uiso   1.00
C561   C     0.03047   0.17312   0.89376   0.00000  Uiso   1.00
C562   C     0.30281   0.16012   0.60625   0.00000  Uiso   1.00
C563   C     0.01885   0.22170   0.97079   0.00000  Uiso   1.00
C564   C     0.31396   0.11112   0.52936   0.00000  Uiso   1.00
C565   C     0.33162   0.20497   0.92373   0.00000  Uiso   1.00
C566   C     0.00142   0.12801   0.57632   0.00000  Uiso   1.00
C567   C     0.07845   0.15138   0.91284   0.00000  Uiso   1.00
C568   C     0.25485   0.18193   0.58721   0.00000  Uiso   1.00
C569   C     0.10026   0.16781   0.96041   0.00000  Uiso   1.00
C570   C     0.31886   0.06869   0.75013   0.00000  Uiso   1.00
C571   C     0.23268   0.16520   0.53980   0.00000  Uiso   1.00
C572   C     0.07147   0.20649   0.98775   0.00000  Uiso   1.00
C573   C     0.26131   0.12634   0.51250   0.00000  Uiso   1.00
C574   C     0.15293   0.15202   0.97924   0.00000  Uiso   1.00
C575   C     0.17989   0.18091   0.52108   0.00000  Uiso   1.00
C576   C     0.06522   0.00684   0.79870   0.00000  Uiso   1.00
C577   C     0.26813   0.32649   0.70130   0.00000  Uiso   1.00
C578   C     0.16168   0.10142   0.71736   0.00000  Uiso   1.00
C579   C     0.17166   0.23192   0.78264   0.00000  Uiso   1.00
C580   C     0.15284   0.22405   0.54283   0.00000  Uiso   1.00
C581   C     0.17981   0.10875   0.95758   0.00000  Uiso   1.00
C582   C     0.09799   0.23373   0.52894   0.00000  Uiso   1.00
C583   C     0.23462   0.09897   0.97145   0.00000  Uiso   1.00
C584   C     0.02079   0.31924   0.75912   0.00000  Uiso   1.00
C585   C     0.31255   0.01409   0.74088   0.00000  Uiso   1.00
C586   C     0.02062   0.16945   0.84098   0.00000  Uiso   1.00
F587   F     0.22653   0.21344   0.61829   0.00000  Uiso   1.00
F588   F     0.10723   0.12031   0.88172   0.00000  Uiso   1.00
H589   H     0.07811   0.26589   0.54803   0.00000  Uiso   1.00
H590   H     0.10197   0.02542   0.78210   0.00000  Uiso   1.00
H591   H     0.04736   0.03533   0.82551   0.00000  Uiso   1.00
H592   H     0.25250   0.02503   0.68033   0.00000  Uiso   1.00
H593   H     0.28601   0.29803   0.67448   0.00000  Uiso   1.00
H594   H     0.23138   0.30789   0.71789   0.00000  Uiso   1.00
H595   H     0.12457   0.08184   0.69599   0.00000  Uiso   1.00
H596   H     0.19567   0.10455   0.69169   0.00000  Uiso   1.00
H597   H     0.17282   0.07681   0.74717   0.00000  Uiso   1.00
H598   H     0.20877   0.25150   0.80401   0.00000  Uiso   1.00
H599   H     0.16051   0.25652   0.75282   0.00000  Uiso   1.00
H600   H     0.25438   0.06669   0.95242   0.00000  Uiso   1.00
H601   H     0.13766   0.22879   0.80831   0.00000  Uiso   1.00
H602   H     0.03936   0.11197   0.59064   0.00000  Uiso   1.00
H603   H     0.29366   0.22096   0.90938   0.00000  Uiso   1.00
H604   H     0.32928   0.24989   0.99236   0.00000  Uiso   1.00
H605   H     0.00338   0.08277   0.50783   0.00000  Uiso   1.00
H606   H     0.17345   0.25277   0.56941   0.00000  Uiso   1.00
H607   H     0.15901   0.08004   0.93106   0.00000  Uiso   1.00
H608   H     0.08083   0.30831   0.81968   0.00000  Uiso   1.00
N609   N     0.14695   0.15216   0.73740   0.00000  Uiso   1.00
N610   N     0.18638   0.18117   0.76261   0.00000  Uiso   1.00
O611   O     0.29719   0.24631   0.75310   0.00000  Uiso   1.00
O612   O     0.03614   0.08702   0.74691   0.00000  Uiso   1.00
O613   O     0.05822   0.23702   0.74502   0.00000  Uiso   1.00
O614   O     0.27512   0.09632   0.75499   0.00000  Uiso   1.00
O615   O     0.30328   0.17397   0.82247   0.00000  Uiso   1.00
O616   O     0.03005   0.15937   0.67753   0.00000  Uiso   1.00
O617   O     0.06431   0.16467   0.81439   0.00000  Uiso   1.00
O618   O     0.26902   0.16866   0.68561   0.00000  Uiso   1.00
Zn619  Zn    0.27033   0.17287   0.75540   0.00000  Uiso   1.00
Zn620  Zn    0.06300   0.16046   0.74461   0.00000  Uiso   1.00
C621   C     0.34781   0.26464   0.74988   0.00000  Uiso   1.00
C622   C     0.64605   0.16388   0.65902   0.00000  Uiso   1.00
C623   C     0.36380   0.17312   0.89376   0.00000  Uiso   1.00
C624   C     0.63614   0.16012   0.60625   0.00000  Uiso   1.00
C625   C     0.35218   0.22170   0.97079   0.00000  Uiso   1.00
C626   C     0.64730   0.11112   0.52936   0.00000  Uiso   1.00
C627   C     0.66495   0.20497   0.92373   0.00000  Uiso   1.00
C628   C     0.33475   0.12801   0.57632   0.00000  Uiso   1.00
C629   C     0.41179   0.15138   0.91284   0.00000  Uiso   1.00
C630   C     0.58818   0.18193   0.58721   0.00000  Uiso   1.00
C631   C     0.43359   0.16781   0.96041   0.00000  Uiso   1.00
C632   C     0.65219   0.06869   0.75013   0.00000  Uiso   1.00
C633   C     0.56601   0.16520   0.53980   0.00000  Uiso   1.00
C634   C     0.40480   0.20649   0.98775   0.00000  Uiso   1.00
C635   C     0.59464   0.12634   0.51250   0.00000  Uiso   1.00
C636   C     0.48626   0.15202   0.97924   0.00000  Uiso   1.00
C637   C     0.51323   0.18091   0.52108   0.00000  Uiso   1.00
C638   C     0.39855   0.00684   0.79870   0.00000  Uiso   1.00
C639   C     0.60146   0.32649   0.70130   0.00000  Uiso   1.00
C640   C     0.49501   0.10142   0.71736   0.00000  Uiso   1.00
C641   C     0.50499   0.23192   0.78264   0.00000  Uiso   1.00
C642   C     0.48617   0.22405   0.54283   0.00000  Uiso   1.00
C643   C     0.51314   0.10875   0.95758   0.00000  Uiso   1.00
C644   C     0.43132   0.23373   0.52894   0.00000  Uiso   1.00
C645   C     0.56796   0.09897   0.97145   0.00000  Uiso   1.00
C646   C     0.35412   0.31924   0.75912   0.00000  Uiso   1.00
C647   C     0.64588   0.01409   0.74088   0.00000  Uiso   1.00
C648   C     0.35395   0.16945   0.84098   0.00000  Uiso   1.00
F649   F     0.55986   0.21344   0.61829   0.00000  Uiso   1.00
F650   F     0.44056   0.12031   0.88172   0.00000  Uiso   1.00
H651   H     0.41144   0.26589   0.54803   0.00000  Uiso   1.00
H652   H     0.43530   0.02542   0.78210   0.00000  Uiso   1.00
H653   H     0.38069   0.03533   0.82551   0.00000  Uiso   1.00
H654   H     0.58583   0.02503   0.68033   0.00000  Uiso   1.00
H655   H     0.61934   0.29803   0.67448   0.00000  Uiso   1.00
H656   H     0.56471   0.30789   0.71789   0.00000  Uiso   1.00
H657   H     0.45790   0.08184   0.69599   0.00000  Uiso   1.00
H658   H     0.52900   0.10455   0.69169   0.00000  Uiso   1.00
H659   H     0.50616   0.07681   0.74717   0.00000  Uiso   1.00
H660   H     0.54210   0.25150   0.80401   0.00000  Uiso   1.00
H661   H     0.49384   0.25652   0.75282   0.00000  Uiso   1.00
H662   H     0.58771   0.06669   0.95242   0.00000  Uiso   1.00
H663   H     0.47100   0.22879   0.80831   0.00000  Uiso   1.00
H664   H     0.37270   0.11197   0.59064   0.00000  Uiso   1.00
H665   H     0.62699   0.22096   0.90938   0.00000  Uiso   1.00
H666   H     0.66261   0.24989   0.99236   0.00000  Uiso   1.00
H667   H     0.33671   0.08277   0.50783   0.00000  Uiso   1.00
H668   H     0.50679   0.25277   0.56941   0.00000  Uiso   1.00
H669   H     0.49234   0.08004   0.93106   0.00000  Uiso   1.00
H670   H     0.41416   0.30831   0.81968   0.00000  Uiso   1.00
N671   N     0.48029   0.15216   0.73740   0.00000  Uiso   1.00
N672   N     0.51971   0.18117   0.76261   0.00000  Uiso   1.00
O673   O     0.63052   0.24631   0.75310   0.00000  Uiso   1.00
O674   O     0.36948   0.08702   0.74691   0.00000  Uiso   1.00
O675   O     0.39155   0.23702   0.74502   0.00000  Uiso   1.00
O676   O     0.60845   0.09632   0.75499   0.00000  Uiso   1.00
O677   O     0.63662   0.17397   0.82247   0.00000  Uiso   1.00
O678   O     0.36338   0.15937   0.67753   0.00000  Uiso   1.00
O679   O     0.39764   0.16467   0.81439   0.00000  Uiso   1.00
O680   O     0.60236   0.16866   0.68561   0.00000  Uiso   1.00
Zn681  Zn    0.60366   0.17287   0.75540   0.00000  Uiso   1.00
Zn682  Zn    0.39634   0.16046   0.74461   0.00000  Uiso   1.00
C683   C     0.68114   0.26464   0.74988   0.00000  Uiso   1.00
C684   C     0.97938   0.16388   0.65902   0.00000  Uiso   1.00
C685   C     0.69713   0.17312   0.89376   0.00000  Uiso   1.00
C686   C     0.96948   0.16012   0.60625   0.00000  Uiso   1.00
C687   C     0.68551   0.22170   0.97079   0.00000  Uiso   1.00
C688   C     0.98063   0.11112   0.52936   0.00000  Uiso   1.00
C689   C     0.99829   0.20497   0.92373   0.00000  Uiso   1.00
C690   C     0.66808   0.12801   0.57632   0.00000  Uiso   1.00
C691   C     0.74512   0.15138   0.91284   0.00000  Uiso   1.00
C692   C     0.92151   0.18193   0.58721   0.00000  Uiso   1.00
C693   C     0.76693   0.16781   0.96041   0.00000  Uiso   1.00
C694   C     0.98553   0.06869   0.75013   0.00000  Uiso   1.00
C695   C     0.89935   0.16520   0.53980   0.00000  Uiso   1.00
C696   C     0.73813   0.20649   0.98775   0.00000  Uiso   1.00
C697   C     0.92798   0.12634   0.51250   0.00000  Uiso   1.00
C698   C     0.81960   0.15202   0.97924   0.00000  Uiso   1.00
C699   C     0.84656   0.18091   0.52108   0.00000  Uiso   1.00
C700   C     0.73188   0.00684   0.79870   0.00000  Uiso   1.00
C701   C     0.93479   0.32649   0.70130   0.00000  Uiso   1.00
C702   C     0.82834   0.10142   0.71736   0.00000  Uiso   1.00
C703   C     0.83832   0.23192   0.78264   0.00000  Uiso   1.00
C704   C     0.81951   0.22405   0.54283   0.00000  Uiso   1.00
C705   C     0.84647   0.10875   0.95758   0.00000  Uiso   1.00
C706   C     0.76466   0.23373   0.52894   0.00000  Uiso   1.00
C707   C     0.90129   0.09897   0.97145   0.00000  Uiso   1.00
C708   C     0.68745   0.31924   0.75912   0.00000  Uiso   1.00
C709   C     0.97921   0.01409   0.74088   0.00000  Uiso   1.00
C710   C     0.68728   0.16945   0.84098   0.00000  Uiso   1.00
F711   F     0.89319   0.21344   0.61829   0.00000  Uiso   1.00
F712   F     0.77390   0.12031   0.88172   0.00000  Uiso   1.00
H713   H     0.74477   0.26589   0.54803   0.00000  Uiso   1.00
H714   H     0.76864   0.02542   0.78210   0.00000  Uiso   1.00
H715   H     0.71402   0.03533   0.82551   0.00000  Uiso   1.00
H716   H     0.91917   0.02503   0.68033   0.00000  Uiso   1.00
H717   H     0.95267   0.29803   0.67448   0.00000  Uiso   1.00
H718   H     0.89805   0.30789   0.71789   0.00000  Uiso   1.00
H719   H     0.79123   0.08184   0.69599   0.00000  Uiso   1.00
H720   H     0.86234   0.10455   0.69169   0.00000  Uiso   1.00
H721   H     0.83949   0.07681   0.74717   0.00000  Uiso   1.00
H722   H     0.87543   0.25150   0.80401   0.00000  Uiso   1.00
H723   H     0.82718   0.25652   0.75282   0.00000  Uiso   1.00
H724   H     0.92105   0.06669   0.95242   0.00000  Uiso   1.00
H725   H     0.80433   0.22879   0.80831   0.00000  Uiso   1.00
H726   H     0.70603   0.11197   0.59064   0.00000  Uiso   1.00
H727   H     0.96032   0.22096   0.90938   0.00000  Uiso   1.00
H728   H     0.99594   0.24989   0.99236   0.00000  Uiso   1.00
H729   H     0.67005   0.08277   0.50783   0.00000  Uiso   1.00
H730   H     0.84012   0.25277   0.56941   0.00000  Uiso   1.00
H731   H     0.82567   0.08004   0.93106   0.00000  Uiso   1.00
H732   H     0.74749   0.30831   0.81968   0.00000  Uiso   1.00
N733   N     0.81362   0.15216   0.73740   0.00000  Uiso   1.00
N734   N     0.85305   0.18117   0.76261   0.00000  Uiso   1.00
O735   O     0.96386   0.24631   0.75310   0.00000  Uiso   1.00
O736   O     0.70281   0.08702   0.74691   0.00000  Uiso   1.00
O737   O     0.72488   0.23702   0.74502   0.00000  Uiso   1.00
O738   O     0.94178   0.09632   0.75499   0.00000  Uiso   1.00
O739   O     0.96995   0.17397   0.82247   0.00000  Uiso   1.00
O740   O     0.69672   0.15937   0.67753   0.00000  Uiso   1.00
O741   O     0.73098   0.16467   0.81439   0.00000  Uiso   1.00
O742   O     0.93569   0.16866   0.68561   0.00000  Uiso   1.00
Zn743  Zn    0.93700   0.17287   0.75540   0.00000  Uiso   1.00
Zn744  Zn    0.72967   0.16046   0.74461   0.00000  Uiso   1.00
C745   C     0.01447   0.59798   0.74988   0.00000  Uiso   1.00
C746   C     0.31271   0.49721   0.65902   0.00000  Uiso   1.00
C747   C     0.03047   0.50645   0.89376   0.00000  Uiso   1.00
C748   C     0.30281   0.49346   0.60625   0.00000  Uiso   1.00
C749   C     0.01885   0.55503   0.97079   0.00000  Uiso   1.00
C750   C     0.31396   0.44445   0.52936   0.00000  Uiso   1.00
C751   C     0.33162   0.53831   0.92373   0.00000  Uiso   1.00
C752   C     0.00142   0.46134   0.57632   0.00000  Uiso   1.00
C753   C     0.07845   0.48471   0.91284   0.00000  Uiso   1.00
C754   C     0.25485   0.51526   0.58721   0.00000  Uiso   1.00
C755   C     0.10026   0.50115   0.96041   0.00000  Uiso   1.00
C756   C     0.31886   0.40202   0.75013   0.00000  Uiso   1.00
C757   C     0.23268   0.49853   0.53980   0.00000  Uiso   1.00
C758   C     0.07147   0.53983   0.98775   0.00000  Uiso   1.00
C759   C     0.26131   0.45967   0.51250   0.00000  Uiso   1.00
C760   C     0.15293   0.48536   0.97924   0.00000  Uiso   1.00
C761   C     0.17989   0.51424   0.52108   0.00000  Uiso   1.00
C762   C     0.06522   0.34018   0.79870   0.00000  Uiso   1.00
C763   C     0.26813   0.65983   0.70130   0.00000  Uiso   1.00
C764   C     0.16168   0.43475   0.71736   0.00000  Uiso   1.00
C765   C     0.17166   0.56525   0.78264   0.00000  Uiso   1.00
C766   C     0.15284   0.55738   0.54283   0.00000  Uiso   1.00
C767   C     0.17981   0.44208   0.95758   0.00000  Uiso   1.00
C768   C     0.09799   0.56706   0.52894   0.00000  Uiso   1.00
C769   C     0.23462   0.43230   0.97145   0.00000  Uiso   1.00
C770   C     0.02079   0.65258   0.75912   0.00000  Uiso   1.00
C771   C     0.31255   0.34742   0.74088   0.00000  Uiso   1.00
C772   C     0.02062   0.50278   0.84098   0.00000  Uiso   1.00
F773   F     0.22653   0.54677   0.61829   0.00000  Uiso   1.00
F774   F     0.10723   0.45365   0.88172   0.00000  Uiso   1.00
H775   H     0.07811   0.59923   0.54803   0.00000  Uiso   1.00
H776   H     0.10197   0.35875   0.78210   0.00000  Uiso   1.00
H777   H     0.04736   0.36866   0.82551   0.00000  Uiso   1.00
H778   H     0.25250   0.35836   0.68033   0.00000  Uiso   1.00
H779   H     0.28601   0.63136   0.67448   0.00000  Uiso   1.00
H780   H     0.23138   0.64122   0.71789   0.00000  Uiso   1.00
H781   H     0.12457   0.41517   0.69599   0.00000  Uiso   1.00
H782   H     0.19567   0.43788   0.69169   0.00000  Uiso   1.00
H783   H     0.17282   0.41014   0.74717   0.00000  Uiso   1.00
H784   H     0.20877   0.58483   0.80401   0.00000  Uiso   1.00
H785   H     0.16051   0.58986   0.75282   0.00000  Uiso   1.00
H786   H     0.25438   0.40002   0.95242   0.00000  Uiso   1.00
H787   H     0.13766   0.56212   0.80831   0.00000  Uiso   1.00
H788   H     0.03936   0.44530   0.59064   0.00000  Uiso   1.00
H789   H     0.29366   0.55429   0.90938   0.00000  Uiso   1.00
H790   H     0.32928   0.58322   0.99236   0.00000  Uiso   1.00
H791   H     0.00338   0.41611   0.50783   0.00000  Uiso   1.00
H792   H     0.17345   0.58611   0.56941   0.00000  Uiso   1.00
H793   H     0.15901   0.41338   0.93106   0.00000  Uiso   1.00
H794   H     0.08083   0.64164   0.81968   0.00000  Uiso   1.00
N795   N     0.14695   0.48550   0.73740   0.00000  Uiso   1.00
N796   N     0.18638   0.51450   0.76261   0.00000  Uiso   1.00
O797   O     0.29719   0.57964   0.75310   0.00000  Uiso   1.00
O798   O     0.03614   0.42036   0.74691   0.00000  Uiso   1.00
O799   O     0.05822   0.57035   0.74502   0.00000  Uiso   1.00
O800   O     0.27512   0.42965   0.75499   0.00000  Uiso   1.00
O801   O     0.30328   0.50730   0.82247   0.00000  Uiso   1.00
O802   O     0.03005   0.49270   0.67753   0.00000  Uiso   1.00
O803   O     0.06431   0.49801   0.81439   0.00000  Uiso   1.00
O804   O     0.26902   0.50199   0.68561   0.00000  Uiso   1.00
Zn805  Zn    0.27033   0.50621   0.75540   0.00000  Uiso   1.00
Zn806  Zn    0.06300   0.49379   0.74461   0.00000  Uiso   1.00
C807   C     0.34781   0.59798   0.74988   0.00000  Uiso   1.00
C808   C     0.64605   0.49721   0.65902   0.00000  Uiso   1.00
C809   C     0.36380   0.50645   0.89376   0.00000  Uiso   1.00
C810   C     0.63614   0.49346   0.60625   0.00000  Uiso   1.00
C811   C     0.35218   0.55503   0.97079   0.00000  Uiso   1.00
C812   C     0.64730   0.44445   0.52936   0.00000  Uiso   1.00
C813   C     0.66495   0.53831   0.92373   0.00000  Uiso   1.00
C814   C     0.33475   0.46134   0.57632   0.00000  Uiso   1.00
C815   C     0.41179   0.48471   0.91284   0.00000  Uiso   1.00
C816   C     0.58818   0.51526   0.58721   0.00000  Uiso   1.00
C817   C     0.43359   0.50115   0.96041   0.00000  Uiso   1.00
C818   C     0.65219   0.40202   0.75013   0.00000  Uiso   1.00
C819   C     0.56601   0.49853   0.53980   0.00000  Uiso   1.00
C820   C     0.40480   0.53983   0.98775   0.00000  Uiso   1.00
C821   C     0.59464   0.45967   0.51250   0.00000  Uiso   1.00
C822   C     0.48626   0.48536   0.97924   0.00000  Uiso   1.00
C823   C     0.51323   0.51424   0.52108   0.00000  Uiso   1.00
C824   C     0.39855   0.34018   0.79870   0.00000  Uiso   1.00
C825   C     0.60146   0.65983   0.70130   0.00000  Uiso   1.00
C826   C     0.49501   0.43475   0.71736   0.00000  Uiso   1.00
C827   C     0.50499   0.56525   0.78264   0.00000  Uiso   1.00
C828   C     0.48617   0.55738   0.54283   0.00000  Uiso   1.00
C829   C     0.51314   0.44208   0.95758   0.00000  Uiso   1.00
C830   C     0.43132   0.56706   0.52894   0.00000  Uiso   1.00
C831   C     0.56796   0.43230   0.97145   0.00000  Uiso   1.00
C832   C     0.35412   0.65258   0.75912   0.00000  Uiso   1.00
C833   C     0.64588   0.34742   0.74088   0.00000  Uiso   1.00
C834   C     0.35395   0.50278   0.84098   0.00000  Uiso   1.00
F835   F     0.55986   0.54677   0.61829   0.00000  Uiso   1.00
F836   F     0.44056   0.45365   0.88172   0.00000  Uiso   1.00
H837   H     0.41144   0.59923   0.54803   0.00000  Uiso   1.00
H838   H     0.43530   0.35875   0.78210   0.00000  Uiso   1.00
H839   H     0.38069   0.36866   0.82551   0.00000  Uiso   1.00
H840   H     0.58583   0.35836   0.68033   0.00000  Uiso   1.00
H841   H     0.61934   0.63136   0.67448   0.00000  Uiso   1.00
H842   H     0.56471   0.64122   0.71789   0.00000  Uiso   1.00
H843   H     0.45790   0.41517   0.69599   0.00000  Uiso   1.00
H844   H     0.52900   0.43788   0.69169   0.00000  Uiso   1.00
H845   H     0.50616   0.41014   0.74717   0.00000  Uiso   1.00
H846   H     0.54210   0.58483   0.80401   0.00000  Uiso   1.00
H847   H     0.49384   0.58986   0.75282   0.00000  Uiso   1.00
H848   H     0.58771   0.40002   0.95242   0.00000  Uiso   1.00
H849   H     0.47100   0.56212   0.80831   0.00000  Uiso   1.00
H850   H     0.37270   0.44530   0.59064   0.00000  Uiso   1.00
H851   H     0.62699   0.55429   0.90938   0.00000  Uiso   1.00
H852   H     0.66261   0.58322   0.99236   0.00000  Uiso   1.00
H853   H     0.33671   0.41611   0.50783   0.00000  Uiso   1.00
H854   H     0.50679   0.58611   0.56941   0.00000  Uiso   1.00
H855   H     0.49234   0.41338   0.93106   0.00000  Uiso   1.00
H856   H     0.41416   0.64164   0.81968   0.00000  Uiso   1.00
N857   N     0.48029   0.48550   0.73740   0.00000  Uiso   1.00
N858   N     0.51971   0.51450   0.76261   0.00000  Uiso   1.00
O859   O     0.63052   0.57964   0.75310   0.00000  Uiso   1.00
O860   O     0.36948   0.42036   0.74691   0.00000  Uiso   1.00
O861   O     0.39155   0.57035   0.74502   0.00000  Uiso   1.00
O862   O     0.60845   0.42965   0.75499   0.00000  Uiso   1.00
O863   O     0.63662   0.50730   0.82247   0.00000  Uiso   1.00
O864   O     0.36338   0.49270   0.67753   0.00000  Uiso   1.00
O865   O     0.39764   0.49801   0.81439   0.00000  Uiso   1.00
O866   O     0.60236   0.50199   0.68561   0.00000  Uiso   1.00
Zn867  Zn    0.60366   0.50621   0.75540   0.00000  Uiso   1.00
Zn868  Zn    0.39634   0.49379   0.74461   0.00000  Uiso   1.00
C869   C     0.68114   0.59798   0.74988   0.00000  Uiso   1.00
C870   C     0.97938   0.49721   0.65902   0.00000  Uiso   1.00
C871   C     0.69713   0.50645   0.89376   0.00000  Uiso   1.00
C872   C     0.96948   0.49346   0.60625   0.00000  Uiso   1.00
C873   C     0.68551   0.55503   0.97079   0.00000  Uiso   1.00
C874   C     0.98063   0.44445   0.52936   0.00000  Uiso   1.00
C875   C     0.99829   0.53831   0.92373   0.00000  Uiso   1.00
C876   C     0.66808   0.46134   0.57632   0.00000  Uiso   1.00
C877   C     0.74512   0.48471   0.91284   0.00000  Uiso   1.00
C878   C     0.92151   0.51526   0.58721   0.00000  Uiso   1.00
C879   C     0.76693   0.50115   0.96041   0.00000  Uiso   1.00
C880   C     0.98553   0.40202   0.75013   0.00000  Uiso   1.00
C881   C     0.89935   0.49853   0.53980   0.00000  Uiso   1.00
C882   C     0.73813   0.53983   0.98775   0.00000  Uiso   1.00
C883   C     0.92798   0.45967   0.51250   0.00000  Uiso   1.00
C884   C     0.81960   0.48536   0.97924   0.00000  Uiso   1.00
C885   C     0.84656   0.51424   0.52108   0.00000  Uiso   1.00
C886   C     0.73188   0.34018   0.79870   0.00000  Uiso   1.00
C887   C     0.93479   0.65983   0.70130   0.00000  Uiso   1.00
C888   C     0.82834   0.43475   0.71736   0.00000  Uiso   1.00
C889   C     0.83832   0.56525   0.78264   0.00000  Uiso   1.00
C890   C     0.81951   0.55738   0.54283   0.00000  Uiso   1.00
C891   C     0.84647   0.44208   0.95758   0.00000  Uiso   1.00
C892   C     0.76466   0.56706   0.52894   0.00000  Uiso   1.00
C893   C     0.90129   0.43230   0.97145   0.00000  Uiso   1.00
C894   C     0.68745   0.65258   0.75912   0.00000  Uiso   1.00
C895   C     0.97921   0.34742   0.74088   0.00000  Uiso   1.00
C896   C     0.68728   0.50278   0.84098   0.00000  Uiso   1.00
F897   F     0.89319   0.54677   0.61829   0.00000  Uiso   1.00
F898   F     0.77390   0.45365   0.88172   0.00000  Uiso   1.00
H899   H     0.74477   0.59923   0.54803   0.00000  Uiso   1.00
H900   H     0.76864   0.35875   0.78210   0.00000  Uiso   1.00
H901   H     0.71402   0.36866   0.82551   0.00000  Uiso   1.00
H902   H     0.91917   0.35836   0.68033   0.00000  Uiso   1.00
H903   H     0.95267   0.63136   0.67448   0.00000  Uiso   1.00
H904   H     0.89805   0.64122   0.71789   0.00000  Uiso   1.00
H905   H     0.79123   0.41517   0.69599   0.00000  Uiso   1.00
H906   H     0.86234   0.43788   0.69169   0.00000  Uiso   1.00
H907   H     0.83949   0.41014   0.74717   0.00000  Uiso   1.00
H908   H     0.87543   0.58483   0.80401   0.00000  Uiso   1.00
H909   H     0.82718   0.58986   0.75282   0.00000  Uiso   1.00
H910   H     0.92105   0.40002   0.95242   0.00000  Uiso   1.00
H911   H     0.80433   0.56212   0.80831   0.00000  Uiso   1.00
H912   H     0.70603   0.44530   0.59064   0.00000  Uiso   1.00
H913   H     0.96032   0.55429   0.90938   0.00000  Uiso   1.00
H914   H     0.99594   0.58322   0.99236   0.00000  Uiso   1.00
H915   H     0.67005   0.41611   0.50783   0.00000  Uiso   1.00
H916   H     0.84012   0.58611   0.56941   0.00000  Uiso   1.00
H917   H     0.82567   0.41338   0.93106   0.00000  Uiso   1.00
H918   H     0.74749   0.64164   0.81968   0.00000  Uiso   1.00
N919   N     0.81362   0.48550   0.73740   0.00000  Uiso   1.00
N920   N     0.85305   0.51450   0.76261   0.00000  Uiso   1.00
O921   O     0.96386   0.57964   0.75310   0.00000  Uiso   1.00
O922   O     0.70281   0.42036   0.74691   0.00000  Uiso   1.00
O923   O     0.72488   0.57035   0.74502   0.00000  Uiso   1.00
O924   O     0.94178   0.42965   0.75499   0.00000  Uiso   1.00
O925   O     0.96995   0.50730   0.82247   0.00000  Uiso   1.00
O926   O     0.69672   0.49270   0.67753   0.00000  Uiso   1.00
O927   O     0.73098   0.49801   0.81439   0.00000  Uiso   1.00
O928   O     0.93569   0.50199   0.68561   0.00000  Uiso   1.00
Zn929  Zn    0.93700   0.50621   0.75540   0.00000  Uiso   1.00
Zn930  Zn    0.72967   0.49379   0.74461   0.00000  Uiso   1.00
C931   C     0.01447   0.93131   0.74988   0.00000  Uiso   1.00
C932   C     0.31271   0.83055   0.65902   0.00000  Uiso   1.00
C933   C     0.03047   0.83978   0.89376   0.00000  Uiso   1.00
C934   C     0.30281   0.82679   0.60625   0.00000  Uiso   1.00
C935   C     0.01885   0.88837   0.97079   0.00000  Uiso   1.00
C936   C     0.31396   0.77778   0.52936   0.00000  Uiso   1.00
C937   C     0.33162   0.87164   0.92373   0.00000  Uiso   1.00
C938   C     0.00142   0.79467   0.57632   0.00000  Uiso   1.00
C939   C     0.07845   0.81804   0.91284   0.00000  Uiso   1.00
C940   C     0.25485   0.84860   0.58721   0.00000  Uiso   1.00
C941   C     0.10026   0.83448   0.96041   0.00000  Uiso   1.00
C942   C     0.31886   0.73536   0.75013   0.00000  Uiso   1.00
C943   C     0.23268   0.83186   0.53980   0.00000  Uiso   1.00
C944   C     0.07147   0.87316   0.98775   0.00000  Uiso   1.00
C945   C     0.26131   0.79301   0.51250   0.00000  Uiso   1.00
C946   C     0.15293   0.81869   0.97924   0.00000  Uiso   1.00
C947   C     0.17989   0.84757   0.52108   0.00000  Uiso   1.00
C948   C     0.06522   0.67351   0.79870   0.00000  Uiso   1.00
C949   C     0.26813   0.99316   0.70130   0.00000  Uiso   1.00
C950   C     0.16168   0.76808   0.71736   0.00000  Uiso   1.00
C951   C     0.17166   0.89859   0.78264   0.00000  Uiso   1.00
C952   C     0.15284   0.89072   0.54283   0.00000  Uiso   1.00
C953   C     0.17981   0.77542   0.95758   0.00000  Uiso   1.00
C954   C     0.09799   0.90040   0.52894   0.00000  Uiso   1.00
C955   C     0.23462   0.76564   0.97145   0.00000  Uiso   1.00
C956   C     0.02079   0.98591   0.75912   0.00000  Uiso   1.00
C957   C     0.31255   0.68076   0.74088   0.00000  Uiso   1.00
C958   C     0.02062   0.83611   0.84098   0.00000  Uiso   1.00
F959   F     0.22653   0.88011   0.61829   0.00000  Uiso   1.00
F960   F     0.10723   0.78698   0.88172   0.00000  Uiso   1.00
H961   H     0.07811   0.93256   0.54803   0.00000  Uiso   1.00
H962   H     0.10197   0.69209   0.78210   0.00000  Uiso   1.00
H963   H     0.04736   0.70200   0.82551   0.00000  Uiso   1.00
H964   H     0.25250   0.69169   0.68033   0.00000  Uiso   1.00
H965   H     0.28601   0.96470   0.67448   0.00000  Uiso   1.00
H966   H     0.23138   0.97456   0.71789   0.00000  Uiso   1.00
H967   H     0.12457   0.74850   0.69599   0.00000  Uiso   1.00
H968   H     0.19567   0.77121   0.69169   0.00000  Uiso   1.00
H969   H     0.17282   0.74348   0.74717   0.00000  Uiso   1.00
H970   H     0.20877   0.91816   0.80401   0.00000  Uiso   1.00
H971   H     0.16051   0.92319   0.75282   0.00000  Uiso   1.00
H972   H     0.25438   0.73336   0.95242   0.00000  Uiso   1.00
H973   H     0.13766   0.89545   0.80831   0.00000  Uiso   1.00
H974   H     0.03936   0.77864   0.59064   0.00000  Uiso   1.00
H975   H     0.29366   0.88762   0.90938   0.00000  Uiso   1.00
H976   H     0.32928   0.91656   0.99236   0.00000  Uiso   1.00
H977   H     0.00338   0.74944   0.50783   0.00000  Uiso   1.00
H978   H     0.17345   0.91944   0.56941   0.00000  Uiso   1.00
H979   H     0.15901   0.74671   0.93106   0.00000  Uiso   1.00
H980   H     0.08083   0.97498   0.81968   0.00000  Uiso   1.00
N981   N     0.14695   0.81883   0.73740   0.00000  Uiso   1.00
N982   N     0.18638   0.84784   0.76261   0.00000  Uiso   1.00
O983   O     0.29719   0.91298   0.75310   0.00000  Uiso   1.00
O984   O     0.03614   0.75369   0.74691   0.00000  Uiso   1.00
O985   O     0.05822   0.90368   0.74502   0.00000  Uiso   1.00
O986   O     0.27512   0.76298   0.75499   0.00000  Uiso   1.00
O987   O     0.30328   0.84063   0.82247   0.00000  Uiso   1.00
O988   O     0.03005   0.82603   0.67753   0.00000  Uiso   1.00
O989   O     0.06431   0.83134   0.81439   0.00000  Uiso   1.00
O990   O     0.26902   0.83533   0.68561   0.00000  Uiso   1.00
Zn991  Zn    0.27033   0.83954   0.75540   0.00000  Uiso   1.00
Zn992  Zn    0.06300   0.82713   0.74461   0.00000  Uiso   1.00
C993   C     0.34781   0.93131   0.74988   0.00000  Uiso   1.00
C994   C     0.64605   0.83055   0.65902   0.00000  Uiso   1.00
C995   C     0.36380   0.83978   0.89376   0.00000  Uiso   1.00
C996   C     0.63614   0.82679   0.60625   0.00000  Uiso   1.00
C997   C     0.35218   0.88837   0.97079   0.00000  Uiso   1.00
C998   C     0.64730   0.77778   0.52936   0.00000  Uiso   1.00
C999   C     0.66495   0.87164   0.92373   0.00000  Uiso   1.00
C1000  C     0.33475   0.79467   0.57632   0.00000  Uiso   1.00
C1001  C     0.41179   0.81804   0.91284   0.00000  Uiso   1.00
C1002  C     0.58818   0.84860   0.58721   0.00000  Uiso   1.00
C1003  C     0.43359   0.83448   0.96041   0.00000  Uiso   1.00
C1004  C     0.65219   0.73536   0.75013   0.00000  Uiso   1.00
C1005  C     0.56601   0.83186   0.53980   0.00000  Uiso   1.00
C1006  C     0.40480   0.87316   0.98775   0.00000  Uiso   1.00
C1007  C     0.59464   0.79301   0.51250   0.00000  Uiso   1.00
C1008  C     0.48626   0.81869   0.97924   0.00000  Uiso   1.00
C1009  C     0.51323   0.84757   0.52108   0.00000  Uiso   1.00
C1010  C     0.39855   0.67351   0.79870   0.00000  Uiso   1.00
C1011  C     0.60146   0.99316   0.70130   0.00000  Uiso   1.00
C1012  C     0.49501   0.76808   0.71736   0.00000  Uiso   1.00
C1013  C     0.50499   0.89859   0.78264   0.00000  Uiso   1.00
C1014  C     0.48617   0.89072   0.54283   0.00000  Uiso   1.00
C1015  C     0.51314   0.77542   0.95758   0.00000  Uiso   1.00
C1016  C     0.43132   0.90040   0.52894   0.00000  Uiso   1.00
C1017  C     0.56796   0.76564   0.97145   0.00000  Uiso   1.00
C1018  C     0.35412   0.98591   0.75912   0.00000  Uiso   1.00
C1019  C     0.64588   0.68076   0.74088   0.00000  Uiso   1.00
C1020  C     0.35395   0.83611   0.84098   0.00000  Uiso   1.00
F1021  F     0.55986   0.88011   0.61829   0.00000  Uiso   1.00
F1022  F     0.44056   0.78698   0.88172   0.00000  Uiso   1.00
H1023  H     0.41144   0.93256   0.54803   0.00000  Uiso   1.00
H1024  H     0.43530   0.69209   0.78210   0.00000  Uiso   1.00
H1025  H     0.38069   0.70200   0.82551   0.00000  Uiso   1.00
H1026  H     0.58583   0.69169   0.68033   0.00000  Uiso   1.00
H1027  H     0.61934   0.96470   0.67448   0.00000  Uiso   1.00
H1028  H     0.56471   0.97456   0.71789   0.00000  Uiso   1.00
H1029  H     0.45790   0.74850   0.69599   0.00000  Uiso   1.00
H1030  H     0.52900   0.77121   0.69169   0.00000  Uiso   1.00
H1031  H     0.50616   0.74348   0.74717   0.00000  Uiso   1.00
H1032  H     0.54210   0.91816   0.80401   0.00000  Uiso   1.00
H1033  H     0.49384   0.92319   0.75282   0.00000  Uiso   1.00
H1034  H     0.58771   0.73336   0.95242   0.00000  Uiso   1.00
H1035  H     0.47100   0.89545   0.80831   0.00000  Uiso   1.00
H1036  H     0.37270   0.77864   0.59064   0.00000  Uiso   1.00
H1037  H     0.62699   0.88762   0.90938   0.00000  Uiso   1.00
H1038  H     0.66261   0.91656   0.99236   0.00000  Uiso   1.00
H1039  H     0.33671   0.74944   0.50783   0.00000  Uiso   1.00
H1040  H     0.50679   0.91944   0.56941   0.00000  Uiso   1.00
H1041  H     0.49234   0.74671   0.93106   0.00000  Uiso   1.00
H1042  H     0.41416   0.97498   0.81968   0.00000  Uiso   1.00
N1043  N     0.48029   0.81883   0.73740   0.00000  Uiso   1.00
N1044  N     0.51971   0.84784   0.76261   0.00000  Uiso   1.00
O1045  O     0.63052   0.91298   0.75310   0.00000  Uiso   1.00
O1046  O     0.36948   0.75369   0.74691   0.00000  Uiso   1.00
O1047  O     0.39155   0.90368   0.74502   0.00000  Uiso   1.00
O1048  O     0.60845   0.76298   0.75499   0.00000  Uiso   1.00
O1049  O     0.63662   0.84063   0.82247   0.00000  Uiso   1.00
O1050  O     0.36338   0.82603   0.67753   0.00000  Uiso   1.00
O1051  O     0.39764   0.83134   0.81439   0.00000  Uiso   1.00
O1052  O     0.60236   0.83533   0.68561   0.00000  Uiso   1.00
Zn1053 Zn    0.60366   0.83954   0.75540   0.00000  Uiso   1.00
Zn1054 Zn    0.39634   0.82713   0.74461   0.00000  Uiso   1.00
C1055  C     0.68114   0.93131   0.74988   0.00000  Uiso   1.00
C1056  C     0.97938   0.83055   0.65902   0.00000  Uiso   1.00
C1057  C     0.69713   0.83978   0.89376   0.00000  Uiso   1.00
C1058  C     0.96948   0.82679   0.60625   0.00000  Uiso   1.00
C1059  C     0.68551   0.88837   0.97079   0.00000  Uiso   1.00
C1060  C     0.98063   0.77778   0.52936   0.00000  Uiso   1.00
C1061  C     0.99829   0.87164   0.92373   0.00000  Uiso   1.00
C1062  C     0.66808   0.79467   0.57632   0.00000  Uiso   1.00
C1063  C     0.74512   0.81804   0.91284   0.00000  Uiso   1.00
C1064  C     0.92151   0.84860   0.58721   0.00000  Uiso   1.00
C1065  C     0.76693   0.83448   0.96041   0.00000  Uiso   1.00
C1066  C     0.98553   0.73536   0.75013   0.00000  Uiso   1.00
C1067  C     0.89935   0.83186   0.53980   0.00000  Uiso   1.00
C1068  C     0.73813   0.87316   0.98775   0.00000  Uiso   1.00
C1069  C     0.92798   0.79301   0.51250   0.00000  Uiso   1.00
C1070  C     0.81960   0.81869   0.97924   0.00000  Uiso   1.00
C1071  C     0.84656   0.84757   0.52108   0.00000  Uiso   1.00
C1072  C     0.73188   0.67351   0.79870   0.00000  Uiso   1.00
C1073  C     0.93479   0.99316   0.70130   0.00000  Uiso   1.00
C1074  C     0.82834   0.76808   0.71736   0.00000  Uiso   1.00
C1075  C     0.83832   0.89859   0.78264   0.00000  Uiso   1.00
C1076  C     0.81951   0.89072   0.54283   0.00000  Uiso   1.00
C1077  C     0.84647   0.77542   0.95758   0.00000  Uiso   1.00
C1078  C     0.76466   0.90040   0.52894   0.00000  Uiso   1.00
C1079  C     0.90129   0.76564   0.97145   0.00000  Uiso   1.00
C1080  C     0.68745   0.98591   0.75912   0.00000  Uiso   1.00
C1081  C     0.97921   0.68076   0.74088   0.00000  Uiso   1.00
C1082  C     0.68728   0.83611   0.84098   0.00000  Uiso   1.00
F1083  F     0.89319   0.88011   0.61829   0.00000  Uiso   1.00
F1084  F     0.77390   0.78698   0.88172   0.00000  Uiso   1.00
H1085  H     0.74477   0.93256   0.54803   0.00000  Uiso   1.00
H1086  H     0.76864   0.69209   0.78210   0.00000  Uiso   1.00
H1087  H     0.71402   0.70200   0.82551   0.00000  Uiso   1.00
H1088  H     0.91917   0.69169   0.68033   0.00000  Uiso   1.00
H1089  H     0.95267   0.96470   0.67448   0.00000  Uiso   1.00
H1090  H     0.89805   0.97456   0.71789   0.00000  Uiso   1.00
H1091  H     0.79123   0.74850   0.69599   0.00000  Uiso   1.00
H1092  H     0.86234   0.77121   0.69169   0.00000  Uiso   1.00
H1093  H     0.83949   0.74348   0.74717   0.00000  Uiso   1.00
H1094  H     0.87543   0.91816   0.80401   0.00000  Uiso   1.00
H1095  H     0.82718   0.92319   0.75282   0.00000  Uiso   1.00
H1096  H     0.92105   0.73336   0.95242   0.00000  Uiso   1.00
H1097  H     0.80433   0.89545   0.80831   0.00000  Uiso   1.00
H1098  H     0.70603   0.77864   0.59064   0.00000  Uiso   1.00
H1099  H     0.96032   0.88762   0.90938   0.00000  Uiso   1.00
H1100  H     0.99594   0.91656   0.99236   0.00000  Uiso   1.00
H1101  H     0.67005   0.74944   0.50783   0.00000  Uiso   1.00
H1102  H     0.84012   0.91944   0.56941   0.00000  Uiso   1.00
H1103  H     0.82567   0.74671   0.93106   0.00000  Uiso   1.00
H1104  H     0.74749   0.97498   0.81968   0.00000  Uiso   1.00
N1105  N     0.81362   0.81883   0.73740   0.00000  Uiso   1.00
N1106  N     0.85305   0.84784   0.76261   0.00000  Uiso   1.00
O1107  O     0.96386   0.91298   0.75310   0.00000  Uiso   1.00
O1108  O     0.70281   0.75369   0.74691   0.00000  Uiso   1.00
O1109  O     0.72488   0.90368   0.74502   0.00000  Uiso   1.00
O1110  O     0.94178   0.76298   0.75499   0.00000  Uiso   1.00
O1111  O     0.96995   0.84063   0.82247   0.00000  Uiso   1.00
O1112  O     0.69672   0.82603   0.67753   0.00000  Uiso   1.00
O1113  O     0.73098   0.83134   0.81439   0.00000  Uiso   1.00
O1114  O     0.93569   0.83533   0.68561   0.00000  Uiso   1.00
Zn1115 Zn    0.93700   0.83954   0.75540   0.00000  Uiso   1.00
Zn1116 Zn    0.72967   0.82713   0.74461   0.00000  Uiso   1.00
loop_
_geom_bond_atom_site_label_1
_geom_bond_atom_site_label_2
_geom_bond_distance
_geom_bond_site_symmetry_2
_ccdc_geom_bond_type
C1     O55     1.297   .     A
C1     C26     1.403   .     S
C1     O177    1.277   1_455 S
C2     C4      1.455   .     S
C2     O60     1.304   .     A
C2     O120    1.300   .     S
C3     C9      1.397   .     A
C3     C28     1.455   .     S
C3     C131    1.397   1_455 S
C4     C10     1.397   .     A
C4     C70     1.397   .     S
C5     C14     1.401   .     A
C5     C131    1.387   1_455 S
C5     H170    1.084   1_455 S
C6     C15     1.402   .     A
C6     C70     1.387   .     S
C6     H109    1.084   .     S
C7     H45     1.083   .     S
C7     C65     1.397   .     S
C7     C67     1.387   .     S
C8     H44     1.083   .     S
C8     C128    1.397   1_455 S
C8     C130    1.387   1_455 S
C9     C11     1.407   .     A
C9     F30     1.356   .     S
C10    F29     1.356   .     S
C10    C13     1.407   .     A
C11    C14     1.422   .     A
C11    C16     1.425   .     A
C12    O56     1.297   .     A
C12    C27     1.403   .     S
C12    O116    1.277   .     S
C13    C17     1.426   .     A
C13    C15     1.422   .     A
C14    C582    1.386   .     S
C15    C583    1.387   1_554 S
C16    C23     1.415   .     A
C16    C575    1.422   .     S
C17    C22     1.416   .     A
C17    C574    1.422   1_554 S
C18    H33     1.111   .     S
C18    H32     1.107   .     S
C18    C398    1.523   1_545 S
C18    H422    1.111   1_545 S
C19    H36     1.107   .     S
C19    H35     1.111   .     S
C19    C213    1.523   .     S
C19    H220    1.111   .     S
C20    N51     1.440   .     S
C20    H37     1.108   .     S
C20    H38     1.102   .     S
C20    H39     1.108   .     S
C21    H41     1.108   .     S
C21    H43     1.102   .     S
C21    N52     1.440   .     S
C21    H40     1.108   .     S
C22    H48     1.075   .     S
C22    C24     1.383   .     A
C23    H49     1.075   .     S
C23    C25     1.382   .     A
C24    H31     1.085   .     S
C24    C572    1.386   1_554 S
C25    H42     1.085   .     S
C25    C573    1.387   .     S
C26    C204    1.523   .     S
C26    C337    1.359   1_455 S
C27    C460    1.359   1_545 S
C27    C391    1.523   1_545 S
C28    O59     1.304   .     A
C28    O181    1.300   1_455 S
H34    C391    1.111   1_545 S
H46    C67     1.084   .     S
H47    C130    1.084   1_455 S
H50    C204    1.111   .     S
N51    Zn62    2.035   .     S
N51    N52     1.299   .     D
N52    Zn61    2.035   .     S
O53    Zn61    1.964   .     S
O53    C63     1.277   .     S
O54    Zn62    1.964   .     S
O54    C136    1.277   1_455 S
O55    Zn62    1.975   .     S
O56    Zn61    1.975   .     S
O57    Zn61    1.968   .     S
O57    C90     1.300   .     S
O58    Zn62    1.968   .     S
O58    C126    1.300   1_455 S
O59    Zn62    1.913   .     S
O60    Zn61    1.913   .     S
C63    O117    1.297   .     A
C63    C88     1.403   .     S
C64    C66     1.455   .     S
C64    O122    1.304   .     A
C64    O182    1.300   .     S
C65    C71     1.397   .     A
C65    C90     1.455   .     S
C66    C72     1.397   .     A
C66    C132    1.397   .     S
C67    C76     1.401   .     A
C68    C77     1.402   .     A
C68    C132    1.387   .     S
C68    H171    1.084   .     S
C69    H107    1.083   .     S
C69    C127    1.397   .     S
C69    C129    1.387   .     S
C70    H106    1.083   .     S
C71    C73     1.407   .     A
C71    F92     1.356   .     S
C72    F91     1.356   .     S
C72    C75     1.407   .     A
C73    C76     1.422   .     A
C73    C78     1.425   .     A
C74    O118    1.297   .     A
C74    C89     1.403   .     S
C74    O178    1.277   .     S
C75    C79     1.426   .     A
C75    C77     1.422   .     A
C76    C644    1.386   .     S
C77    C645    1.387   1_554 S
C78    C85     1.415   .     A
C78    C637    1.422   .     S
C79    C84     1.416   .     A
C79    C636    1.422   1_554 S
C80    H95     1.111   .     S
C80    H94     1.107   .     S
C80    C460    1.523   1_545 S
C80    H484    1.111   1_545 S
C81    H98     1.107   .     S
C81    H97     1.111   .     S
C81    C275    1.523   .     S
C81    H282    1.111   .     S
C82    N113    1.440   .     S
C82    H99     1.108   .     S
C82    H100    1.102   .     S
C82    H101    1.108   .     S
C83    H103    1.108   .     S
C83    H105    1.102   .     S
C83    N114    1.440   .     S
C83    H102    1.108   .     S
C84    H110    1.075   .     S
C84    C86     1.383   .     A
C85    H111    1.075   .     S
C85    C87     1.382   .     A
C86    H93     1.085   .     S
C86    C634    1.386   1_554 S
C87    H104    1.085   .     S
C87    C635    1.387   .     S
C88    C266    1.523   .     S
C88    C213    1.359   .     S
C89    C522    1.359   1_545 S
C89    C453    1.523   1_545 S
C90    O121    1.304   .     A
H96    C453    1.111   1_545 S
H108   C129    1.084   .     S
H112   C266    1.111   .     S
N113   Zn124   2.035   .     S
N113   N114    1.299   .     D
N114   Zn123   2.035   .     S
O115   Zn123   1.964   .     S
O115   C125    1.277   .     S
O116   Zn124   1.964   .     S
O117   Zn124   1.975   .     S
O118   Zn123   1.975   .     S
O119   Zn123   1.968   .     S
O119   C152    1.300   .     S
O120   Zn124   1.968   .     S
O121   Zn124   1.913   .     S
O122   Zn123   1.913   .     S
C125   O179    1.297   .     A
C125   C150    1.403   .     S
C126   C128    1.455   .     S
C126   O184    1.304   .     A
C126   O58     1.300   1_655 S
C127   C133    1.397   .     A
C127   C152    1.455   .     S
C128   C134    1.397   .     A
C128   C8      1.397   1_655 S
C129   C138    1.401   .     A
C130   C139    1.402   .     A
C130   C8      1.387   1_655 S
C130   H47     1.084   1_655 S
C131   H169    1.083   .     S
C131   C3      1.397   1_655 S
C131   C5      1.387   1_655 S
C132   H168    1.083   .     S
C133   C135    1.407   .     A
C133   F154    1.356   .     S
C134   F153    1.356   .     S
C134   C137    1.407   .     A
C135   C138    1.422   .     A
C135   C140    1.425   .     A
C136   O180    1.297   .     A
C136   C151    1.403   .     S
C136   O54     1.277   1_655 S
C137   C141    1.426   .     A
C137   C139    1.422   .     A
C138   C706    1.386   .     S
C139   C707    1.387   1_554 S
C140   C147    1.415   .     A
C140   C699    1.422   .     S
C141   C146    1.416   .     A
C141   C698    1.422   1_554 S
C142   H157    1.111   .     S
C142   H156    1.107   .     S
C142   C522    1.523   1_545 S
C142   H546    1.111   1_545 S
C143   H160    1.107   .     S
C143   H159    1.111   .     S
C143   C337    1.523   .     S
C143   H344    1.111   .     S
C144   N175    1.440   .     S
C144   H161    1.108   .     S
C144   H162    1.102   .     S
C144   H163    1.108   .     S
C145   H165    1.108   .     S
C145   H167    1.102   .     S
C145   N176    1.440   .     S
C145   H164    1.108   .     S
C146   H172    1.075   .     S
C146   C148    1.383   .     A
C147   H173    1.075   .     S
C147   C149    1.382   .     A
C148   H155    1.085   .     S
C148   C696    1.386   1_554 S
C149   H166    1.085   .     S
C149   C697    1.387   .     S
C150   C328    1.523   .     S
C150   C275    1.359   .     S
C151   C398    1.359   1_645 S
C151   C515    1.523   1_545 S
C152   O183    1.304   .     A
H158   C515    1.111   1_545 S
H170   C5      1.084   1_655 S
H174   C328    1.111   .     S
N175   Zn186   2.035   .     S
N175   N176    1.299   .     D
N176   Zn185   2.035   .     S
O177   Zn185   1.964   .     S
O177   C1      1.277   1_655 S
O178   Zn186   1.964   .     S
O179   Zn186   1.975   .     S
O180   Zn185   1.975   .     S
O181   Zn185   1.968   .     S
O181   C28     1.300   1_655 S
O182   Zn186   1.968   .     S
O183   Zn186   1.913   .     S
O184   Zn185   1.913   .     S
C187   O241    1.297   .     A
C187   C212    1.403   .     S
C187   O363    1.277   1_455 S
C188   C190    1.455   .     S
C188   O246    1.304   .     A
C188   O306    1.300   .     S
C189   C195    1.397   .     A
C189   C214    1.455   .     S
C189   C317    1.397   1_455 S
C190   C196    1.397   .     A
C190   C256    1.397   .     S
C191   C200    1.401   .     A
C191   C317    1.387   1_455 S
C191   H356    1.084   1_455 S
C192   C201    1.402   .     A
C192   C256    1.387   .     S
C192   H295    1.084   .     S
C193   H231    1.083   .     S
C193   C251    1.397   .     S
C193   C253    1.387   .     S
C194   H230    1.083   .     S
C194   C314    1.397   1_455 S
C194   C316    1.387   1_455 S
C195   C197    1.407   .     A
C195   F216    1.356   .     S
C196   F215    1.356   .     S
C196   C199    1.407   .     A
C197   C200    1.422   .     A
C197   C202    1.425   .     A
C198   O242    1.297   .     A
C198   C213    1.403   .     S
C198   O302    1.277   .     S
C199   C203    1.426   .     A
C199   C201    1.422   .     A
C200   C768    1.386   .     S
C201   C769    1.387   1_554 S
C202   C209    1.415   .     A
C202   C761    1.422   .     S
C203   C208    1.416   .     A
C203   C760    1.422   1_554 S
C204   H219    1.111   .     S
C204   H218    1.107   .     S
C205   H222    1.107   .     S
C205   H221    1.111   .     S
C205   C399    1.523   .     S
C205   H406    1.111   .     S
C206   N237    1.440   .     S
C206   H223    1.108   .     S
C206   H224    1.102   .     S
C206   H225    1.108   .     S
C207   H227    1.108   .     S
C207   H229    1.102   .     S
C207   N238    1.440   .     S
C207   H226    1.108   .     S
C208   H234    1.075   .     S
C208   C210    1.383   .     A
C209   H235    1.075   .     S
C209   C211    1.382   .     A
C210   H217    1.085   .     S
C210   C758    1.386   1_554 S
C211   H228    1.085   .     S
C211   C759    1.387   .     S
C212   C390    1.523   .     S
C212   C523    1.359   1_455 S
C214   O245    1.304   .     A
C214   O367    1.300   1_455 S
H232   C253    1.084   .     S
H233   C316    1.084   1_455 S
H236   C390    1.111   .     S
N237   Zn248   2.035   .     S
N237   N238    1.299   .     D
N238   Zn247   2.035   .     S
O239   Zn247   1.964   .     S
O239   C249    1.277   .     S
O240   Zn248   1.964   .     S
O240   C322    1.277   1_455 S
O241   Zn248   1.975   .     S
O242   Zn247   1.975   .     S
O243   Zn247   1.968   .     S
O243   C276    1.300   .     S
O244   Zn248   1.968   .     S
O244   C312    1.300   1_455 S
O245   Zn248   1.913   .     S
O246   Zn247   1.913   .     S
C249   O303    1.297   .     A
C249   C274    1.403   .     S
C250   C252    1.455   .     S
C250   O308    1.304   .     A
C250   O368    1.300   .     S
C251   C257    1.397   .     A
C251   C276    1.455   .     S
C252   C258    1.397   .     A
C252   C318    1.397   .     S
C253   C262    1.401   .     A
C254   C263    1.402   .     A
C254   C318    1.387   .     S
C254   H357    1.084   .     S
C255   H293    1.083   .     S
C255   C313    1.397   .     S
C255   C315    1.387   .     S
C256   H292    1.083   .     S
C257   C259    1.407   .     A
C257   F278    1.356   .     S
C258   F277    1.356   .     S
C258   C261    1.407   .     A
C259   C262    1.422   .     A
C259   C264    1.425   .     A
C260   O304    1.297   .     A
C260   C275    1.403   .     S
C260   O364    1.277   .     S
C261   C265    1.426   .     A
C261   C263    1.422   .     A
C262   C830    1.386   .     S
C263   C831    1.387   1_554 S
C264   C271    1.415   .     A
C264   C823    1.422   .     S
C265   C270    1.416   .     A
C265   C822    1.422   1_554 S
C266   H281    1.111   .     S
C266   H280    1.107   .     S
C267   H284    1.107   .     S
C267   H283    1.111   .     S
C267   C461    1.523   .     S
C267   H468    1.111   .     S
C268   N299    1.440   .     S
C268   H285    1.108   .     S
C268   H286    1.102   .     S
C268   H287    1.108   .     S
C269   H289    1.108   .     S
C269   H291    1.102   .     S
C269   N300    1.440   .     S
C269   H288    1.108   .     S
C270   H296    1.075   .     S
C270   C272    1.383   .     A
C271   H297    1.075   .     S
C271   C273    1.382   .     A
C272   H279    1.085   .     S
C272   C820    1.386   1_554 S
C273   H290    1.085   .     S
C273   C821    1.387   .     S
C274   C452    1.523   .     S
C274   C399    1.359   .     S
C276   O307    1.304   .     A
H294   C315    1.084   .     S
H298   C452    1.111   .     S
N299   Zn310   2.035   .     S
N299   N300    1.299   .     D
N300   Zn309   2.035   .     S
O301   Zn309   1.964   .     S
O301   C311    1.277   .     S
O302   Zn310   1.964   .     S
O303   Zn310   1.975   .     S
O304   Zn309   1.975   .     S
O305   Zn309   1.968   .     S
O305   C338    1.300   .     S
O306   Zn310   1.968   .     S
O307   Zn310   1.913   .     S
O308   Zn309   1.913   .     S
C311   O365    1.297   .     A
C311   C336    1.403   .     S
C312   C314    1.455   .     S
C312   O370    1.304   .     A
C312   O244    1.300   1_655 S
C313   C319    1.397   .     A
C313   C338    1.455   .     S
C314   C320    1.397   .     A
C314   C194    1.397   1_655 S
C315   C324    1.401   .     A
C316   C325    1.402   .     A
C316   C194    1.387   1_655 S
C316   H233    1.084   1_655 S
C317   H355    1.083   .     S
C317   C189    1.397   1_655 S
C317   C191    1.387   1_655 S
C318   H354    1.083   .     S
C319   C321    1.407   .     A
C319   F340    1.356   .     S
C320   F339    1.356   .     S
C320   C323    1.407   .     A
C321   C324    1.422   .     A
C321   C326    1.425   .     A
C322   O366    1.297   .     A
C322   C337    1.403   .     S
C322   O240    1.277   1_655 S
C323   C327    1.426   .     A
C323   C325    1.422   .     A
C324   C892    1.386   .     S
C325   C893    1.387   1_554 S
C326   C333    1.415   .     A
C326   C885    1.422   .     S
C327   C332    1.416   .     A
C327   C884    1.422   1_554 S
C328   H343    1.111   .     S
C328   H342    1.107   .     S
C329   H346    1.107   .     S
C329   H345    1.111   .     S
C329   C523    1.523   .     S
C329   H530    1.111   .     S
C330   N361    1.440   .     S
C330   H347    1.108   .     S
C330   H348    1.102   .     S
C330   H349    1.108   .     S
C331   H351    1.108   .     S
C331   H353    1.102   .     S
C331   N362    1.440   .     S
C331   H350    1.108   .     S
C332   H358    1.075   .     S
C332   C334    1.383   .     A
C333   H359    1.075   .     S
C333   C335    1.382   .     A
C334   H341    1.085   .     S
C334   C882    1.386   1_554 S
C335   H352    1.085   .     S
C335   C883    1.387   .     S
C336   C514    1.523   .     S
C336   C461    1.359   .     S
C337   C26     1.359   1_655 S
C338   O369    1.304   .     A
H356   C191    1.084   1_655 S
H360   C514    1.111   .     S
N361   Zn372   2.035   .     S
N361   N362    1.299   .     D
N362   Zn371   2.035   .     S
O363   Zn371   1.964   .     S
O363   C187    1.277   1_655 S
O364   Zn372   1.964   .     S
O365   Zn372   1.975   .     S
O366   Zn371   1.975   .     S
O367   Zn371   1.968   .     S
O367   C214    1.300   1_655 S
O368   Zn372   1.968   .     S
O369   Zn372   1.913   .     S
O370   Zn371   1.913   .     S
C373   O427    1.297   .     A
C373   C398    1.403   .     S
C373   O549    1.277   1_455 S
C374   C376    1.455   .     S
C374   O432    1.304   .     A
C374   O492    1.300   .     S
C375   C381    1.397   .     A
C375   C400    1.455   .     S
C375   C503    1.397   1_455 S
C376   C382    1.397   .     A
C376   C442    1.397   .     S
C377   C386    1.401   .     A
C377   C503    1.387   1_455 S
C377   H542    1.084   1_455 S
C378   C387    1.402   .     A
C378   C442    1.387   .     S
C378   H481    1.084   .     S
C379   H417    1.083   .     S
C379   C437    1.397   .     S
C379   C439    1.387   .     S
C380   H416    1.083   .     S
C380   C500    1.397   1_455 S
C380   C502    1.387   1_455 S
C381   C383    1.407   .     A
C381   F402    1.356   .     S
C382   F401    1.356   .     S
C382   C385    1.407   .     A
C383   C386    1.422   .     A
C383   C388    1.425   .     A
C384   O428    1.297   .     A
C384   C399    1.403   .     S
C384   O488    1.277   .     S
C385   C389    1.426   .     A
C385   C387    1.422   .     A
C386   C954    1.386   .     S
C387   C955    1.387   1_554 S
C388   C395    1.415   .     A
C388   C947    1.422   .     S
C389   C394    1.416   .     A
C389   C946    1.422   1_554 S
C390   H405    1.111   .     S
C390   H404    1.107   .     S
C391   H408    1.107   .     S
C391   H407    1.111   .     S
C391   C27     1.523   1_565 S
C391   H34     1.111   1_565 S
C392   N423    1.440   .     S
C392   H409    1.108   .     S
C392   H410    1.102   .     S
C392   H411    1.108   .     S
C393   H413    1.108   .     S
C393   H415    1.102   .     S
C393   N424    1.440   .     S
C393   H412    1.108   .     S
C394   H420    1.075   .     S
C394   C396    1.383   .     A
C395   H421    1.075   .     S
C395   C397    1.382   .     A
C396   H403    1.085   .     S
C396   C944    1.386   1_554 S
C397   H414    1.085   .     S
C397   C945    1.387   .     S
C398   C18     1.523   1_565 S
C398   C151    1.359   1_465 S
C400   O431    1.304   .     A
C400   O553    1.300   1_455 S
H418   C439    1.084   .     S
H419   C502    1.084   1_455 S
H422   C18     1.111   1_565 S
N423   Zn434   2.035   .     S
N423   N424    1.299   .     D
N424   Zn433   2.035   .     S
O425   Zn433   1.964   .     S
O425   C435    1.277   .     S
O426   Zn434   1.964   .     S
O426   C508    1.277   1_455 S
O427   Zn434   1.975   .     S
O428   Zn433   1.975   .     S
O429   Zn433   1.968   .     S
O429   C462    1.300   .     S
O430   Zn434   1.968   .     S
O430   C498    1.300   1_455 S
O431   Zn434   1.913   .     S
O432   Zn433   1.913   .     S
C435   O489    1.297   .     A
C435   C460    1.403   .     S
C436   C438    1.455   .     S
C436   O494    1.304   .     A
C436   O554    1.300   .     S
C437   C443    1.397   .     A
C437   C462    1.455   .     S
C438   C444    1.397   .     A
C438   C504    1.397   .     S
C439   C448    1.401   .     A
C440   C449    1.402   .     A
C440   C504    1.387   .     S
C440   H543    1.084   .     S
C441   H479    1.083   .     S
C441   C499    1.397   .     S
C441   C501    1.387   .     S
C442   H478    1.083   .     S
C443   C445    1.407   .     A
C443   F464    1.356   .     S
C444   F463    1.356   .     S
C444   C447    1.407   .     A
C445   C448    1.422   .     A
C445   C450    1.425   .     A
C446   O490    1.297   .     A
C446   C461    1.403   .     S
C446   O550    1.277   .     S
C447   C451    1.426   .     A
C447   C449    1.422   .     A
C448   C1016   1.386   .     S
C449   C1017   1.387   1_554 S
C450   C457    1.415   .     A
C450   C1009   1.422   .     S
C451   C456    1.416   .     A
C451   C1008   1.422   1_554 S
C452   H467    1.111   .     S
C452   H466    1.107   .     S
C453   H470    1.107   .     S
C453   H469    1.111   .     S
C453   C89     1.523   1_565 S
C453   H96     1.111   1_565 S
C454   N485    1.440   .     S
C454   H471    1.108   .     S
C454   H472    1.102   .     S
C454   H473    1.108   .     S
C455   H475    1.108   .     S
C455   H477    1.102   .     S
C455   N486    1.440   .     S
C455   H474    1.108   .     S
C456   H482    1.075   .     S
C456   C458    1.383   .     A
C457   H483    1.075   .     S
C457   C459    1.382   .     A
C458   H465    1.085   .     S
C458   C1006   1.386   1_554 S
C459   H476    1.085   .     S
C459   C1007   1.387   .     S
C460   C80     1.523   1_565 S
C460   C27     1.359   1_565 S
C462   O493    1.304   .     A
H480   C501    1.084   .     S
H484   C80     1.111   1_565 S
N485   Zn496   2.035   .     S
N485   N486    1.299   .     D
N486   Zn495   2.035   .     S
O487   Zn495   1.964   .     S
O487   C497    1.277   .     S
O488   Zn496   1.964   .     S
O489   Zn496   1.975   .     S
O490   Zn495   1.975   .     S
O491   Zn495   1.968   .     S
O491   C524    1.300   .     S
O492   Zn496   1.968   .     S
O493   Zn496   1.913   .     S
O494   Zn495   1.913   .     S
C497   O551    1.297   .     A
C497   C522    1.403   .     S
C498   C500    1.455   .     S
C498   O556    1.304   .     A
C498   O430    1.300   1_655 S
C499   C505    1.397   .     A
C499   C524    1.455   .     S
C500   C506    1.397   .     A
C500   C380    1.397   1_655 S
C501   C510    1.401   .     A
C502   C511    1.402   .     A
C502   C380    1.387   1_655 S
C502   H419    1.084   1_655 S
C503   H541    1.083   .     S
C503   C375    1.397   1_655 S
C503   C377    1.387   1_655 S
C504   H540    1.083   .     S
C505   C507    1.407   .     A
C505   F526    1.356   .     S
C506   F525    1.356   .     S
C506   C509    1.407   .     A
C507   C510    1.422   .     A
C507   C512    1.425   .     A
C508   O552    1.297   .     A
C508   C523    1.403   .     S
C508   O426    1.277   1_655 S
C509   C513    1.426   .     A
C509   C511    1.422   .     A
C510   C1078   1.386   .     S
C511   C1079   1.387   1_554 S
C512   C519    1.415   .     A
C512   C1071   1.422   .     S
C513   C518    1.416   .     A
C513   C1070   1.422   1_554 S
C514   H529    1.111   .     S
C514   H528    1.107   .     S
C515   H532    1.107   .     S
C515   H531    1.111   .     S
C515   C151    1.523   1_565 S
C515   H158    1.111   1_565 S
C516   N547    1.440   .     S
C516   H533    1.108   .     S
C516   H534    1.102   .     S
C516   H535    1.108   .     S
C517   H537    1.108   .     S
C517   H539    1.102   .     S
C517   N548    1.440   .     S
C517   H536    1.108   .     S
C518   H544    1.075   .     S
C518   C520    1.383   .     A
C519   H545    1.075   .     S
C519   C521    1.382   .     A
C520   H527    1.085   .     S
C520   C1068   1.386   1_554 S
C521   H538    1.085   .     S
C521   C1069   1.387   .     S
C522   C142    1.523   1_565 S
C522   C89     1.359   1_565 S
C523   C212    1.359   1_655 S
C524   O555    1.304   .     A
H542   C377    1.084   1_655 S
H546   C142    1.111   1_565 S
N547   Zn558   2.035   .     S
N547   N548    1.299   .     D
N548   Zn557   2.035   .     S
O549   Zn557   1.964   .     S
O549   C373    1.277   1_655 S
O550   Zn558   1.964   .     S
O551   Zn558   1.975   .     S
O552   Zn557   1.975   .     S
O553   Zn557   1.968   .     S
O553   C400    1.300   1_655 S
O554   Zn558   1.968   .     S
O555   Zn558   1.913   .     S
O556   Zn557   1.913   .     S
C559   O613    1.297   .     A
C559   C584    1.403   .     S
C559   O735    1.277   1_455 S
C560   C562    1.455   .     S
C560   O618    1.304   .     A
C560   O678    1.300   .     S
C561   C567    1.397   .     A
C561   C586    1.455   .     S
C561   C689    1.397   1_455 S
C562   C568    1.397   .     A
C562   C628    1.397   .     S
C563   C572    1.401   .     A
C563   C689    1.387   1_455 S
C563   H728    1.084   1_455 S
C564   C573    1.402   .     A
C564   C628    1.387   .     S
C564   H667    1.084   .     S
C565   H603    1.083   .     S
C565   C623    1.397   .     S
C565   C625    1.387   .     S
C566   H602    1.083   .     S
C566   C686    1.397   1_455 S
C566   C688    1.387   1_455 S
C567   C569    1.407   .     A
C567   F588    1.356   .     S
C568   F587    1.356   .     S
C568   C571    1.407   .     A
C569   C572    1.422   .     A
C569   C574    1.425   .     A
C570   O614    1.297   .     A
C570   C585    1.403   .     S
C570   O674    1.277   .     S
C571   C575    1.426   .     A
C571   C573    1.422   .     A
C572   C24     1.386   1_556 S
C574   C581    1.415   .     A
C574   C17     1.422   1_556 S
C575   C580    1.416   .     A
C576   H591    1.111   .     S
C576   H590    1.107   .     S
C576   C956    1.523   1_545 S
C576   H980    1.111   1_545 S
C577   H594    1.107   .     S
C577   H593    1.111   .     S
C577   C771    1.523   .     S
C577   H778    1.111   .     S
C578   N609    1.440   .     S
C578   H595    1.108   .     S
C578   H596    1.102   .     S
C578   H597    1.108   .     S
C579   H599    1.108   .     S
C579   H601    1.102   .     S
C579   N610    1.440   .     S
C579   H598    1.108   .     S
C580   H606    1.075   .     S
C580   C582    1.383   .     A
C581   H607    1.075   .     S
C581   C583    1.382   .     A
C582   H589    1.085   .     S
C583   H600    1.085   .     S
C583   C15     1.387   1_556 S
C584   C762    1.523   .     S
C584   C895    1.359   1_455 S
C585   C1018   1.359   1_545 S
C585   C949    1.523   1_545 S
C586   O617    1.304   .     A
C586   O739    1.300   1_455 S
H592   C949    1.111   1_545 S
H604   C625    1.084   .     S
H605   C688    1.084   1_455 S
H608   C762    1.111   .     S
N609   Zn620   2.035   .     S
N609   N610    1.299   .     D
N610   Zn619   2.035   .     S
O611   Zn619   1.964   .     S
O611   C621    1.277   .     S
O612   Zn620   1.964   .     S
O612   C694    1.277   1_455 S
O613   Zn620   1.975   .     S
O614   Zn619   1.975   .     S
O615   Zn619   1.968   .     S
O615   C648    1.300   .     S
O616   Zn620   1.968   .     S
O616   C684    1.300   1_455 S
O617   Zn620   1.913   .     S
O618   Zn619   1.913   .     S
C621   O675    1.297   .     A
C621   C646    1.403   .     S
C622   C624    1.455   .     S
C622   O680    1.304   .     A
C622   O740    1.300   .     S
C623   C629    1.397   .     A
C623   C648    1.455   .     S
C624   C630    1.397   .     A
C624   C690    1.397   .     S
C625   C634    1.401   .     A
C626   C635    1.402   .     A
C626   C690    1.387   .     S
C626   H729    1.084   .     S
C627   H665    1.083   .     S
C627   C685    1.397   .     S
C627   C687    1.387   .     S
C628   H664    1.083   .     S
C629   C631    1.407   .     A
C629   F650    1.356   .     S
C630   F649    1.356   .     S
C630   C633    1.407   .     A
C631   C634    1.422   .     A
C631   C636    1.425   .     A
C632   O676    1.297   .     A
C632   C647    1.403   .     S
C632   O736    1.277   .     S
C633   C637    1.426   .     A
C633   C635    1.422   .     A
C634   C86     1.386   1_556 S
C636   C643    1.415   .     A
C636   C79     1.422   1_556 S
C637   C642    1.416   .     A
C638   H653    1.111   .     S
C638   H652    1.107   .     S
C638   C1018   1.523   1_545 S
C638   H1042   1.111   1_545 S
C639   H656    1.107   .     S
C639   H655    1.111   .     S
C639   C833    1.523   .     S
C639   H840    1.111   .     S
C640   N671    1.440   .     S
C640   H657    1.108   .     S
C640   H658    1.102   .     S
C640   H659    1.108   .     S
C641   H661    1.108   .     S
C641   H663    1.102   .     S
C641   N672    1.440   .     S
C641   H660    1.108   .     S
C642   H668    1.075   .     S
C642   C644    1.383   .     A
C643   H669    1.075   .     S
C643   C645    1.382   .     A
C644   H651    1.085   .     S
C645   H662    1.085   .     S
C645   C77     1.387   1_556 S
C646   C824    1.523   .     S
C646   C771    1.359   .     S
C647   C1080   1.359   1_545 S
C647   C1011   1.523   1_545 S
C648   O679    1.304   .     A
H654   C1011   1.111   1_545 S
H666   C687    1.084   .     S
H670   C824    1.111   .     S
N671   Zn682   2.035   .     S
N671   N672    1.299   .     D
N672   Zn681   2.035   .     S
O673   Zn681   1.964   .     S
O673   C683    1.277   .     S
O674   Zn682   1.964   .     S
O675   Zn682   1.975   .     S
O676   Zn681   1.975   .     S
O677   Zn681   1.968   .     S
O677   C710    1.300   .     S
O678   Zn682   1.968   .     S
O679   Zn682   1.913   .     S
O680   Zn681   1.913   .     S
C683   O737    1.297   .     A
C683   C708    1.403   .     S
C684   C686    1.455   .     S
C684   O742    1.304   .     A
C684   O616    1.300   1_655 S
C685   C691    1.397   .     A
C685   C710    1.455   .     S
C686   C692    1.397   .     A
C686   C566    1.397   1_655 S
C687   C696    1.401   .     A
C688   C697    1.402   .     A
C688   C566    1.387   1_655 S
C688   H605    1.084   1_655 S
C689   H727    1.083   .     S
C689   C561    1.397   1_655 S
C689   C563    1.387   1_655 S
C690   H726    1.083   .     S
C691   C693    1.407   .     A
C691   F712    1.356   .     S
C692   F711    1.356   .     S
C692   C695    1.407   .     A
C693   C696    1.422   .     A
C693   C698    1.425   .     A
C694   O738    1.297   .     A
C694   C709    1.403   .     S
C694   O612    1.277   1_655 S
C695   C699    1.426   .     A
C695   C697    1.422   .     A
C696   C148    1.386   1_556 S
C698   C705    1.415   .     A
C698   C141    1.422   1_556 S
C699   C704    1.416   .     A
C700   H715    1.111   .     S
C700   H714    1.107   .     S
C700   C1080   1.523   1_545 S
C700   H1104   1.111   1_545 S
C701   H718    1.107   .     S
C701   H717    1.111   .     S
C701   C895    1.523   .     S
C701   H902    1.111   .     S
C702   N733    1.440   .     S
C702   H719    1.108   .     S
C702   H720    1.102   .     S
C702   H721    1.108   .     S
C703   H723    1.108   .     S
C703   H725    1.102   .     S
C703   N734    1.440   .     S
C703   H722    1.108   .     S
C704   H730    1.075   .     S
C704   C706    1.383   .     A
C705   H731    1.075   .     S
C705   C707    1.382   .     A
C706   H713    1.085   .     S
C707   H724    1.085   .     S
C707   C139    1.387   1_556 S
C708   C886    1.523   .     S
C708   C833    1.359   .     S
C709   C956    1.359   1_645 S
C709   C1073   1.523   1_545 S
C710   O741    1.304   .     A
H716   C1073   1.111   1_545 S
H728   C563    1.084   1_655 S
H732   C886    1.111   .     S
N733   Zn744   2.035   .     S
N733   N734    1.299   .     D
N734   Zn743   2.035   .     S
O735   Zn743   1.964   .     S
O735   C559    1.277   1_655 S
O736   Zn744   1.964   .     S
O737   Zn744   1.975   .     S
O738   Zn743   1.975   .     S
O739   Zn743   1.968   .     S
O739   C586    1.300   1_655 S
O740   Zn744   1.968   .     S
O741   Zn744   1.913   .     S
O742   Zn743   1.913   .     S
C745   O799    1.297   .     A
C745   C770    1.403   .     S
C745   O921    1.277   1_455 S
C746   C748    1.455   .     S
C746   O804    1.304   .     A
C746   O864    1.300   .     S
C747   C753    1.397   .     A
C747   C772    1.455   .     S
C747   C875    1.397   1_455 S
C748   C754    1.397   .     A
C748   C814    1.397   .     S
C749   C758    1.401   .     A
C749   C875    1.387   1_455 S
C749   H914    1.084   1_455 S
C750   C759    1.402   .     A
C750   C814    1.387   .     S
C750   H853    1.084   .     S
C751   H789    1.083   .     S
C751   C809    1.397   .     S
C751   C811    1.387   .     S
C752   H788    1.083   .     S
C752   C872    1.397   1_455 S
C752   C874    1.387   1_455 S
C753   C755    1.407   .     A
C753   F774    1.356   .     S
C754   F773    1.356   .     S
C754   C757    1.407   .     A
C755   C758    1.422   .     A
C755   C760    1.425   .     A
C756   O800    1.297   .     A
C756   C771    1.403   .     S
C756   O860    1.277   .     S
C757   C761    1.426   .     A
C757   C759    1.422   .     A
C758   C210    1.386   1_556 S
C760   C767    1.415   .     A
C760   C203    1.422   1_556 S
C761   C766    1.416   .     A
C762   H777    1.111   .     S
C762   H776    1.107   .     S
C763   H780    1.107   .     S
C763   H779    1.111   .     S
C763   C957    1.523   .     S
C763   H964    1.111   .     S
C764   N795    1.440   .     S
C764   H781    1.108   .     S
C764   H782    1.102   .     S
C764   H783    1.108   .     S
C765   H785    1.108   .     S
C765   H787    1.102   .     S
C765   N796    1.440   .     S
C765   H784    1.108   .     S
C766   H792    1.075   .     S
C766   C768    1.383   .     A
C767   H793    1.075   .     S
C767   C769    1.382   .     A
C768   H775    1.085   .     S
C769   H786    1.085   .     S
C769   C201    1.387   1_556 S
C770   C948    1.523   .     S
C770   C1081   1.359   1_455 S
C772   O803    1.304   .     A
C772   O925    1.300   1_455 S
H790   C811    1.084   .     S
H791   C874    1.084   1_455 S
H794   C948    1.111   .     S
N795   Zn806   2.035   .     S
N795   N796    1.299   .     D
N796   Zn805   2.035   .     S
O797   Zn805   1.964   .     S
O797   C807    1.277   .     S
O798   Zn806   1.964   .     S
O798   C880    1.277   1_455 S
O799   Zn806   1.975   .     S
O800   Zn805   1.975   .     S
O801   Zn805   1.968   .     S
O801   C834    1.300   .     S
O802   Zn806   1.968   .     S
O802   C870    1.300   1_455 S
O803   Zn806   1.913   .     S
O804   Zn805   1.913   .     S
C807   O861    1.297   .     A
C807   C832    1.403   .     S
C808   C810    1.455   .     S
C808   O866    1.304   .     A
C808   O926    1.300   .     S
C809   C815    1.397   .     A
C809   C834    1.455   .     S
C810   C816    1.397   .     A
C810   C876    1.397   .     S
C811   C820    1.401   .     A
C812   C821    1.402   .     A
C812   C876    1.387   .     S
C812   H915    1.084   .     S
C813   H851    1.083   .     S
C813   C871    1.397   .     S
C813   C873    1.387   .     S
C814   H850    1.083   .     S
C815   C817    1.407   .     A
C815   F836    1.356   .     S
C816   F835    1.356   .     S
C816   C819    1.407   .     A
C817   C820    1.422   .     A
C817   C822    1.425   .     A
C818   O862    1.297   .     A
C818   C833    1.403   .     S
C818   O922    1.277   .     S
C819   C823    1.426   .     A
C819   C821    1.422   .     A
C820   C272    1.386   1_556 S
C822   C829    1.415   .     A
C822   C265    1.422   1_556 S
C823   C828    1.416   .     A
C824   H839    1.111   .     S
C824   H838    1.107   .     S
C825   H842    1.107   .     S
C825   H841    1.111   .     S
C825   C1019   1.523   .     S
C825   H1026   1.111   .     S
C826   N857    1.440   .     S
C826   H843    1.108   .     S
C826   H844    1.102   .     S
C826   H845    1.108   .     S
C827   H847    1.108   .     S
C827   H849    1.102   .     S
C827   N858    1.440   .     S
C827   H846    1.108   .     S
C828   H854    1.075   .     S
C828   C830    1.383   .     A
C829   H855    1.075   .     S
C829   C831    1.382   .     A
C830   H837    1.085   .     S
C831   H848    1.085   .     S
C831   C263    1.387   1_556 S
C832   C1010   1.523   .     S
C832   C957    1.359   .     S
C834   O865    1.304   .     A
H852   C873    1.084   .     S
H856   C1010   1.111   .     S
N857   Zn868   2.035   .     S
N857   N858    1.299   .     D
N858   Zn867   2.035   .     S
O859   Zn867   1.964   .     S
O859   C869    1.277   .     S
O860   Zn868   1.964   .     S
O861   Zn868   1.975   .     S
O862   Zn867   1.975   .     S
O863   Zn867   1.968   .     S
O863   C896    1.300   .     S
O864   Zn868   1.968   .     S
O865   Zn868   1.913   .     S
O866   Zn867   1.913   .     S
C869   O923    1.297   .     A
C869   C894    1.403   .     S
C870   C872    1.455   .     S
C870   O928    1.304   .     A
C870   O802    1.300   1_655 S
C871   C877    1.397   .     A
C871   C896    1.455   .     S
C872   C878    1.397   .     A
C872   C752    1.397   1_655 S
C873   C882    1.401   .     A
C874   C883    1.402   .     A
C874   C752    1.387   1_655 S
C874   H791    1.084   1_655 S
C875   H913    1.083   .     S
C875   C747    1.397   1_655 S
C875   C749    1.387   1_655 S
C876   H912    1.083   .     S
C877   C879    1.407   .     A
C877   F898    1.356   .     S
C878   F897    1.356   .     S
C878   C881    1.407   .     A
C879   C882    1.422   .     A
C879   C884    1.425   .     A
C880   O924    1.297   .     A
C880   C895    1.403   .     S
C880   O798    1.277   1_655 S
C881   C885    1.426   .     A
C881   C883    1.422   .     A
C882   C334    1.386   1_556 S
C884   C891    1.415   .     A
C884   C327    1.422   1_556 S
C885   C890    1.416   .     A
C886   H901    1.111   .     S
C886   H900    1.107   .     S
C887   H904    1.107   .     S
C887   H903    1.111   .     S
C887   C1081   1.523   .     S
C887   H1088   1.111   .     S
C888   N919    1.440   .     S
C888   H905    1.108   .     S
C888   H906    1.102   .     S
C888   H907    1.108   .     S
C889   H909    1.108   .     S
C889   H911    1.102   .     S
C889   N920    1.440   .     S
C889   H908    1.108   .     S
C890   H916    1.075   .     S
C890   C892    1.383   .     A
C891   H917    1.075   .     S
C891   C893    1.382   .     A
C892   H899    1.085   .     S
C893   H910    1.085   .     S
C893   C325    1.387   1_556 S
C894   C1072   1.523   .     S
C894   C1019   1.359   .     S
C895   C584    1.359   1_655 S
C896   O927    1.304   .     A
H914   C749    1.084   1_655 S
H918   C1072   1.111   .     S
N919   Zn930   2.035   .     S
N919   N920    1.299   .     D
N920   Zn929   2.035   .     S
O921   Zn929   1.964   .     S
O921   C745    1.277   1_655 S
O922   Zn930   1.964   .     S
O923   Zn930   1.975   .     S
O924   Zn929   1.975   .     S
O925   Zn929   1.968   .     S
O925   C772    1.300   1_655 S
O926   Zn930   1.968   .     S
O927   Zn930   1.913   .     S
O928   Zn929   1.913   .     S
C931   O985    1.297   .     A
C931   C956    1.403   .     S
C931   O1107   1.277   1_455 S
C932   C934    1.455   .     S
C932   O990    1.304   .     A
C932   O1050   1.300   .     S
C933   C939    1.397   .     A
C933   C958    1.455   .     S
C933   C1061   1.397   1_455 S
C934   C940    1.397   .     A
C934   C1000   1.397   .     S
C935   C944    1.401   .     A
C935   C1061   1.387   1_455 S
C935   H1100   1.084   1_455 S
C936   C945    1.402   .     A
C936   C1000   1.387   .     S
C936   H1039   1.084   .     S
C937   H975    1.083   .     S
C937   C995    1.397   .     S
C937   C997    1.387   .     S
C938   H974    1.083   .     S
C938   C1058   1.397   1_455 S
C938   C1060   1.387   1_455 S
C939   C941    1.407   .     A
C939   F960    1.356   .     S
C940   F959    1.356   .     S
C940   C943    1.407   .     A
C941   C944    1.422   .     A
C941   C946    1.425   .     A
C942   O986    1.297   .     A
C942   C957    1.403   .     S
C942   O1046   1.277   .     S
C943   C947    1.426   .     A
C943   C945    1.422   .     A
C944   C396    1.386   1_556 S
C946   C953    1.415   .     A
C946   C389    1.422   1_556 S
C947   C952    1.416   .     A
C948   H963    1.111   .     S
C948   H962    1.107   .     S
C949   H966    1.107   .     S
C949   H965    1.111   .     S
C949   C585    1.523   1_565 S
C949   H592    1.111   1_565 S
C950   N981    1.440   .     S
C950   H967    1.108   .     S
C950   H968    1.102   .     S
C950   H969    1.108   .     S
C951   H971    1.108   .     S
C951   H973    1.102   .     S
C951   N982    1.440   .     S
C951   H970    1.108   .     S
C952   H978    1.075   .     S
C952   C954    1.383   .     A
C953   H979    1.075   .     S
C953   C955    1.382   .     A
C954   H961    1.085   .     S
C955   H972    1.085   .     S
C955   C387    1.387   1_556 S
C956   C576    1.523   1_565 S
C956   C709    1.359   1_465 S
C958   O989    1.304   .     A
C958   O1111   1.300   1_455 S
H976   C997    1.084   .     S
H977   C1060   1.084   1_455 S
H980   C576    1.111   1_565 S
N981   Zn992   2.035   .     S
N981   N982    1.299   .     D
N982   Zn991   2.035   .     S
O983   Zn991   1.964   .     S
O983   C993    1.277   .     S
O984   Zn992   1.964   .     S
O984   C1066   1.277   1_455 S
O985   Zn992   1.975   .     S
O986   Zn991   1.975   .     S
O987   Zn991   1.968   .     S
O987   C1020   1.300   .     S
O988   Zn992   1.968   .     S
O988   C1056   1.300   1_455 S
O989   Zn992   1.913   .     S
O990   Zn991   1.913   .     S
C993   O1047   1.297   .     A
C993   C1018   1.403   .     S
C994   C996    1.455   .     S
C994   O1052   1.304   .     A
C994   O1112   1.300   .     S
C995   C1001   1.397   .     A
C995   C1020   1.455   .     S
C996   C1002   1.397   .     A
C996   C1062   1.397   .     S
C997   C1006   1.401   .     A
C998   C1007   1.402   .     A
C998   C1062   1.387   .     S
C998   H1101   1.084   .     S
C999   H1037   1.083   .     S
C999   C1057   1.397   .     S
C999   C1059   1.387   .     S
C1000  H1036   1.083   .     S
C1001  C1003   1.407   .     A
C1001  F1022   1.356   .     S
C1002  F1021   1.356   .     S
C1002  C1005   1.407   .     A
C1003  C1006   1.422   .     A
C1003  C1008   1.425   .     A
C1004  O1048   1.297   .     A
C1004  C1019   1.403   .     S
C1004  O1108   1.277   .     S
C1005  C1009   1.426   .     A
C1005  C1007   1.422   .     A
C1006  C458    1.386   1_556 S
C1008  C1015   1.415   .     A
C1008  C451    1.422   1_556 S
C1009  C1014   1.416   .     A
C1010  H1025   1.111   .     S
C1010  H1024   1.107   .     S
C1011  H1028   1.107   .     S
C1011  H1027   1.111   .     S
C1011  C647    1.523   1_565 S
C1011  H654    1.111   1_565 S
C1012  N1043   1.440   .     S
C1012  H1029   1.108   .     S
C1012  H1030   1.102   .     S
C1012  H1031   1.108   .     S
C1013  H1033   1.108   .     S
C1013  H1035   1.102   .     S
C1013  N1044   1.440   .     S
C1013  H1032   1.108   .     S
C1014  H1040   1.075   .     S
C1014  C1016   1.383   .     A
C1015  H1041   1.075   .     S
C1015  C1017   1.382   .     A
C1016  H1023   1.085   .     S
C1017  H1034   1.085   .     S
C1017  C449    1.387   1_556 S
C1018  C638    1.523   1_565 S
C1018  C585    1.359   1_565 S
C1020  O1051   1.304   .     A
H1038  C1059   1.084   .     S
H1042  C638    1.111   1_565 S
N1043  Zn1054  2.035   .     S
N1043  N1044   1.299   .     D
N1044  Zn1053  2.035   .     S
O1045  Zn1053  1.964   .     S
O1045  C1055   1.277   .     S
O1046  Zn1054  1.964   .     S
O1047  Zn1054  1.975   .     S
O1048  Zn1053  1.975   .     S
O1049  Zn1053  1.968   .     S
O1049  C1082   1.300   .     S
O1050  Zn1054  1.968   .     S
O1051  Zn1054  1.913   .     S
O1052  Zn1053  1.913   .     S
C1055  O1109   1.297   .     A
C1055  C1080   1.403   .     S
C1056  C1058   1.455   .     S
C1056  O1114   1.304   .     A
C1056  O988    1.300   1_655 S
C1057  C1063   1.397   .     A
C1057  C1082   1.455   .     S
C1058  C1064   1.397   .     A
C1058  C938    1.397   1_655 S
C1059  C1068   1.401   .     A
C1060  C1069   1.402   .     A
C1060  C938    1.387   1_655 S
C1060  H977    1.084   1_655 S
C1061  H1099   1.083   .     S
C1061  C933    1.397   1_655 S
C1061  C935    1.387   1_655 S
C1062  H1098   1.083   .     S
C1063  C1065   1.407   .     A
C1063  F1084   1.356   .     S
C1064  F1083   1.356   .     S
C1064  C1067   1.407   .     A
C1065  C1068   1.422   .     A
C1065  C1070   1.425   .     A
C1066  O1110   1.297   .     A
C1066  C1081   1.403   .     S
C1066  O984    1.277   1_655 S
C1067  C1071   1.426   .     A
C1067  C1069   1.422   .     A
C1068  C520    1.386   1_556 S
C1070  C1077   1.415   .     A
C1070  C513    1.422   1_556 S
C1071  C1076   1.416   .     A
C1072  H1087   1.111   .     S
C1072  H1086   1.107   .     S
C1073  H1090   1.107   .     S
C1073  H1089   1.111   .     S
C1073  C709    1.523   1_565 S
C1073  H716    1.111   1_565 S
C1074  N1105   1.440   .     S
C1074  H1091   1.108   .     S
C1074  H1092   1.102   .     S
C1074  H1093   1.108   .     S
C1075  H1095   1.108   .     S
C1075  H1097   1.102   .     S
C1075  N1106   1.440   .     S
C1075  H1094   1.108   .     S
C1076  H1102   1.075   .     S
C1076  C1078   1.383   .     A
C1077  H1103   1.075   .     S
C1077  C1079   1.382   .     A
C1078  H1085   1.085   .     S
C1079  H1096   1.085   .     S
C1079  C511    1.387   1_556 S
C1080  C700    1.523   1_565 S
C1080  C647    1.359   1_565 S
C1081  C770    1.359   1_655 S
C1082  O1113   1.304   .     A
H1100  C935    1.084   1_655 S
H1104  C700    1.111   1_565 S
N1105  Zn1116  2.035   .     S
N1105  N1106   1.299   .     D
N1106  Zn1115  2.035   .     S
O1107  Zn1115  1.964   .     S
O1107  C931    1.277   1_655 S
O1108  Zn1116  1.964   .     S
O1109  Zn1116  1.975   .     S
O1110  Zn1115  1.975   .     S
O1111  Zn1115  1.968   .     S
O1111  C958    1.300   1_655 S
O1112  Zn1116  1.968   .     S
O1113  Zn1116  1.913   .     S
O1114  Zn1115  1.913   .     S
