data_str_m3_o2_o5_pcu_sym.105
_audit_creation_date              2020-01-03
_audit_creation_method            'Materials Studio'
_symmetry_space_group_name_H-M    'P1'
_symmetry_Int_Tables_number       1
_symmetry_cell_setting            triclinic
loop_
_symmetry_equiv_pos_as_xyz
  x,y,z
_cell_length_a                    29.9746
_cell_length_b                    28.4174
_cell_length_c                    26.7416
_cell_angle_alpha                 89.9997
_cell_angle_beta                  90.2471
_cell_angle_gamma                 90.0046
loop_
_atom_site_label
_atom_site_type_symbol
_atom_site_fract_x
_atom_site_fract_y
_atom_site_fract_z
_atom_site_U_iso_or_equiv
_atom_site_adp_type
_atom_site_occupancy
C1     C     0.16390   0.24999   0.16653   0.00000  Uiso   1.00
C2     C     0.22854   0.44731   0.12860   0.00000  Uiso   1.00
C3     C     0.24997   0.25000   0.07287   0.00000  Uiso   1.00
C4     C     0.25003   0.25000   0.26046   0.00000  Uiso   1.00
C5     C     0.25000   0.02670   0.16668   0.00000  Uiso   1.00
C6     C     0.25000   0.47331   0.16667   0.00000  Uiso   1.00
C7     C     0.24999   0.25001   0.02179   0.00000  Uiso   1.00
C8     C     0.25001   0.25001   0.31155   0.00000  Uiso   1.00
C9     C     0.04632   0.28330   0.13721   0.00000  Uiso   1.00
C10    C     0.45336   0.21653   0.13711   0.00000  Uiso   1.00
C11    C     0.45387   0.28329   0.19395   0.00000  Uiso   1.00
C12    C     0.33609   0.25000   0.16658   0.00000  Uiso   1.00
C13    C     0.04639   0.21625   0.19365   0.00000  Uiso   1.00
C14    C     0.09267   0.28345   0.13670   0.00000  Uiso   1.00
C15    C     0.40701   0.21649   0.13661   0.00000  Uiso   1.00
C16    C     0.40766   0.28340   0.19479   0.00000  Uiso   1.00
C17    C     0.09260   0.21623   0.19447   0.00000  Uiso   1.00
C18    C     0.11580   0.24991   0.16590   0.00000  Uiso   1.00
C19    C     0.38418   0.24998   0.16597   0.00000  Uiso   1.00
C20    C     0.02382   0.24977   0.16538   0.00000  Uiso   1.00
C21    C     0.47615   0.24989   0.16545   0.00000  Uiso   1.00
C22    C     0.21687   0.10220   0.14261   0.00000  Uiso   1.00
C23    C     0.27150   0.39781   0.20378   0.00000  Uiso   1.00
C24    C     0.28312   0.10221   0.19074   0.00000  Uiso   1.00
C25    C     0.22852   0.39781   0.12955   0.00000  Uiso   1.00
C26    C     0.21601   0.05270   0.14265   0.00000  Uiso   1.00
C27    C     0.27148   0.44730   0.20474   0.00000  Uiso   1.00
C28    C     0.28398   0.05271   0.19071   0.00000  Uiso   1.00
F29    F     0.18423   0.12610   0.11831   0.00000  Uiso   1.00
F30    F     0.29316   0.37391   0.24037   0.00000  Uiso   1.00
F31    F     0.31574   0.12612   0.21506   0.00000  Uiso   1.00
F32    F     0.20689   0.37392   0.09292   0.00000  Uiso   1.00
H33    H     0.02767   0.30872   0.11527   0.00000  Uiso   1.00
H34    H     0.09415   0.34020   0.08900   0.00000  Uiso   1.00
H35    H     0.36771   0.20249   0.07704   0.00000  Uiso   1.00
H36    H     0.40503   0.15989   0.08873   0.00000  Uiso   1.00
H37    H     0.39401   0.35041   0.21487   0.00000  Uiso   1.00
H38    H     0.39539   0.31158   0.26277   0.00000  Uiso   1.00
H39    H     0.10657   0.14911   0.21396   0.00000  Uiso   1.00
H40    H     0.10540   0.18754   0.26221   0.00000  Uiso   1.00
H41    H     0.47178   0.19119   0.11501   0.00000  Uiso   1.00
H42    H     0.47240   0.30873   0.21600   0.00000  Uiso   1.00
H43    H     0.02807   0.19064   0.21554   0.00000  Uiso   1.00
H44    H     0.18839   0.03521   0.12433   0.00000  Uiso   1.00
H45    H     0.28784   0.46479   0.23568   0.00000  Uiso   1.00
H46    H     0.31159   0.03522   0.20904   0.00000  Uiso   1.00
H47    H     0.21219   0.46480   0.09765   0.00000  Uiso   1.00
H48    H     0.13148   0.29773   0.07717   0.00000  Uiso   1.00
N49    N     0.25000   0.12624   0.16667   0.00000  Uiso   1.00
N50    N     0.25000   0.37377   0.16667   0.00000  Uiso   1.00
N51    N     0.11631   0.31664   0.10601   0.00000  Uiso   1.00
N52    N     0.38305   0.18345   0.10581   0.00000  Uiso   1.00
N53    N     0.38468   0.31651   0.22587   0.00000  Uiso   1.00
N54    N     0.11588   0.18294   0.22529   0.00000  Uiso   1.00
O55    O     0.18453   0.28974   0.16667   0.00000  Uiso   1.00
O56    O     0.31547   0.21026   0.16666   0.00000  Uiso   1.00
O57    O     0.31547   0.28974   0.16666   0.00000  Uiso   1.00
O58    O     0.18453   0.21026   0.16667   0.00000  Uiso   1.00
O59    O     0.25000   0.28973   0.09511   0.00000  Uiso   1.00
O60    O     0.25000   0.21027   0.23822   0.00000  Uiso   1.00
O61    O     0.25000   0.28973   0.23822   0.00000  Uiso   1.00
O62    O     0.25000   0.21027   0.09511   0.00000  Uiso   1.00
Zn63   Zn    0.25000   0.30307   0.16667   0.00000  Uiso   1.00
Zn64   Zn    0.25000   0.19693   0.16667   0.00000  Uiso   1.00
C65    C     0.66390   0.24999   0.16653   0.00000  Uiso   1.00
C66    C     0.72854   0.44731   0.12860   0.00000  Uiso   1.00
C67    C     0.74997   0.25000   0.07287   0.00000  Uiso   1.00
C68    C     0.75003   0.25000   0.26046   0.00000  Uiso   1.00
C69    C     0.75000   0.02670   0.16668   0.00000  Uiso   1.00
C70    C     0.75000   0.47331   0.16667   0.00000  Uiso   1.00
C71    C     0.74999   0.25001   0.02179   0.00000  Uiso   1.00
C72    C     0.75001   0.25001   0.31155   0.00000  Uiso   1.00
C73    C     0.54632   0.28330   0.13721   0.00000  Uiso   1.00
C74    C     0.95336   0.21653   0.13711   0.00000  Uiso   1.00
C75    C     0.95387   0.28329   0.19395   0.00000  Uiso   1.00
C76    C     0.83609   0.25000   0.16658   0.00000  Uiso   1.00
C77    C     0.54639   0.21625   0.19365   0.00000  Uiso   1.00
C78    C     0.59267   0.28345   0.13670   0.00000  Uiso   1.00
C79    C     0.90701   0.21649   0.13661   0.00000  Uiso   1.00
C80    C     0.90766   0.28340   0.19479   0.00000  Uiso   1.00
C81    C     0.59260   0.21623   0.19447   0.00000  Uiso   1.00
C82    C     0.61580   0.24991   0.16590   0.00000  Uiso   1.00
C83    C     0.88418   0.24998   0.16597   0.00000  Uiso   1.00
C84    C     0.52382   0.24977   0.16538   0.00000  Uiso   1.00
C85    C     0.97615   0.24989   0.16545   0.00000  Uiso   1.00
C86    C     0.71687   0.10220   0.14261   0.00000  Uiso   1.00
C87    C     0.77150   0.39781   0.20378   0.00000  Uiso   1.00
C88    C     0.78312   0.10221   0.19074   0.00000  Uiso   1.00
C89    C     0.72852   0.39781   0.12955   0.00000  Uiso   1.00
C90    C     0.71601   0.05270   0.14265   0.00000  Uiso   1.00
C91    C     0.77148   0.44730   0.20474   0.00000  Uiso   1.00
C92    C     0.78398   0.05271   0.19071   0.00000  Uiso   1.00
F93    F     0.68423   0.12610   0.11831   0.00000  Uiso   1.00
F94    F     0.79316   0.37391   0.24037   0.00000  Uiso   1.00
F95    F     0.81574   0.12612   0.21506   0.00000  Uiso   1.00
F96    F     0.70689   0.37392   0.09292   0.00000  Uiso   1.00
H97    H     0.52767   0.30872   0.11527   0.00000  Uiso   1.00
H98    H     0.59415   0.34020   0.08900   0.00000  Uiso   1.00
H99    H     0.86771   0.20249   0.07704   0.00000  Uiso   1.00
H100   H     0.90503   0.15989   0.08873   0.00000  Uiso   1.00
H101   H     0.89401   0.35041   0.21487   0.00000  Uiso   1.00
H102   H     0.89539   0.31158   0.26277   0.00000  Uiso   1.00
H103   H     0.60657   0.14911   0.21396   0.00000  Uiso   1.00
H104   H     0.60540   0.18754   0.26221   0.00000  Uiso   1.00
H105   H     0.97178   0.19119   0.11501   0.00000  Uiso   1.00
H106   H     0.97240   0.30873   0.21600   0.00000  Uiso   1.00
H107   H     0.52807   0.19064   0.21554   0.00000  Uiso   1.00
H108   H     0.68839   0.03521   0.12433   0.00000  Uiso   1.00
H109   H     0.78784   0.46479   0.23568   0.00000  Uiso   1.00
H110   H     0.81159   0.03522   0.20904   0.00000  Uiso   1.00
H111   H     0.71219   0.46480   0.09765   0.00000  Uiso   1.00
H112   H     0.63148   0.29773   0.07717   0.00000  Uiso   1.00
N113   N     0.75000   0.12624   0.16667   0.00000  Uiso   1.00
N114   N     0.75000   0.37377   0.16667   0.00000  Uiso   1.00
N115   N     0.61631   0.31664   0.10601   0.00000  Uiso   1.00
N116   N     0.88305   0.18345   0.10581   0.00000  Uiso   1.00
N117   N     0.88468   0.31651   0.22587   0.00000  Uiso   1.00
N118   N     0.61588   0.18294   0.22529   0.00000  Uiso   1.00
O119   O     0.68453   0.28974   0.16667   0.00000  Uiso   1.00
O120   O     0.81547   0.21026   0.16666   0.00000  Uiso   1.00
O121   O     0.81547   0.28974   0.16666   0.00000  Uiso   1.00
O122   O     0.68453   0.21026   0.16667   0.00000  Uiso   1.00
O123   O     0.75000   0.28973   0.09511   0.00000  Uiso   1.00
O124   O     0.75000   0.21027   0.23822   0.00000  Uiso   1.00
O125   O     0.75000   0.28973   0.23822   0.00000  Uiso   1.00
O126   O     0.75000   0.21027   0.09511   0.00000  Uiso   1.00
Zn127  Zn    0.75000   0.30307   0.16667   0.00000  Uiso   1.00
Zn128  Zn    0.75000   0.19693   0.16667   0.00000  Uiso   1.00
C129   C     0.16390   0.74999   0.16653   0.00000  Uiso   1.00
C130   C     0.22854   0.94731   0.12860   0.00000  Uiso   1.00
C131   C     0.24997   0.75000   0.07287   0.00000  Uiso   1.00
C132   C     0.25003   0.75000   0.26046   0.00000  Uiso   1.00
C133   C     0.25000   0.52670   0.16668   0.00000  Uiso   1.00
C134   C     0.25000   0.97331   0.16667   0.00000  Uiso   1.00
C135   C     0.24999   0.75001   0.02179   0.00000  Uiso   1.00
C136   C     0.25001   0.75001   0.31155   0.00000  Uiso   1.00
C137   C     0.04632   0.78330   0.13721   0.00000  Uiso   1.00
C138   C     0.45336   0.71653   0.13711   0.00000  Uiso   1.00
C139   C     0.45387   0.78329   0.19395   0.00000  Uiso   1.00
C140   C     0.33609   0.75000   0.16658   0.00000  Uiso   1.00
C141   C     0.04639   0.71625   0.19365   0.00000  Uiso   1.00
C142   C     0.09267   0.78345   0.13670   0.00000  Uiso   1.00
C143   C     0.40701   0.71649   0.13661   0.00000  Uiso   1.00
C144   C     0.40766   0.78340   0.19479   0.00000  Uiso   1.00
C145   C     0.09260   0.71623   0.19447   0.00000  Uiso   1.00
C146   C     0.11580   0.74991   0.16590   0.00000  Uiso   1.00
C147   C     0.38418   0.74998   0.16597   0.00000  Uiso   1.00
C148   C     0.02382   0.74977   0.16538   0.00000  Uiso   1.00
C149   C     0.47615   0.74989   0.16545   0.00000  Uiso   1.00
C150   C     0.21687   0.60220   0.14261   0.00000  Uiso   1.00
C151   C     0.27150   0.89781   0.20378   0.00000  Uiso   1.00
C152   C     0.28312   0.60221   0.19074   0.00000  Uiso   1.00
C153   C     0.22852   0.89781   0.12955   0.00000  Uiso   1.00
C154   C     0.21601   0.55270   0.14265   0.00000  Uiso   1.00
C155   C     0.27148   0.94730   0.20474   0.00000  Uiso   1.00
C156   C     0.28398   0.55271   0.19071   0.00000  Uiso   1.00
F157   F     0.18423   0.62610   0.11831   0.00000  Uiso   1.00
F158   F     0.29316   0.87391   0.24037   0.00000  Uiso   1.00
F159   F     0.31574   0.62612   0.21506   0.00000  Uiso   1.00
F160   F     0.20689   0.87392   0.09292   0.00000  Uiso   1.00
H161   H     0.02767   0.80872   0.11527   0.00000  Uiso   1.00
H162   H     0.09415   0.84020   0.08900   0.00000  Uiso   1.00
H163   H     0.36771   0.70249   0.07704   0.00000  Uiso   1.00
H164   H     0.40503   0.65989   0.08873   0.00000  Uiso   1.00
H165   H     0.39401   0.85041   0.21487   0.00000  Uiso   1.00
H166   H     0.39539   0.81158   0.26277   0.00000  Uiso   1.00
H167   H     0.10657   0.64911   0.21396   0.00000  Uiso   1.00
H168   H     0.10540   0.68754   0.26221   0.00000  Uiso   1.00
H169   H     0.47178   0.69119   0.11501   0.00000  Uiso   1.00
H170   H     0.47240   0.80873   0.21600   0.00000  Uiso   1.00
H171   H     0.02807   0.69064   0.21554   0.00000  Uiso   1.00
H172   H     0.18839   0.53521   0.12433   0.00000  Uiso   1.00
H173   H     0.28784   0.96479   0.23568   0.00000  Uiso   1.00
H174   H     0.31159   0.53522   0.20904   0.00000  Uiso   1.00
H175   H     0.21219   0.96480   0.09765   0.00000  Uiso   1.00
H176   H     0.13148   0.79773   0.07717   0.00000  Uiso   1.00
N177   N     0.25000   0.62624   0.16667   0.00000  Uiso   1.00
N178   N     0.25000   0.87377   0.16667   0.00000  Uiso   1.00
N179   N     0.11631   0.81664   0.10601   0.00000  Uiso   1.00
N180   N     0.38305   0.68345   0.10581   0.00000  Uiso   1.00
N181   N     0.38468   0.81651   0.22587   0.00000  Uiso   1.00
N182   N     0.11588   0.68294   0.22529   0.00000  Uiso   1.00
O183   O     0.18453   0.78974   0.16667   0.00000  Uiso   1.00
O184   O     0.31547   0.71026   0.16666   0.00000  Uiso   1.00
O185   O     0.31547   0.78974   0.16666   0.00000  Uiso   1.00
O186   O     0.18453   0.71026   0.16667   0.00000  Uiso   1.00
O187   O     0.25000   0.78973   0.09511   0.00000  Uiso   1.00
O188   O     0.25000   0.71027   0.23822   0.00000  Uiso   1.00
O189   O     0.25000   0.78973   0.23822   0.00000  Uiso   1.00
O190   O     0.25000   0.71027   0.09511   0.00000  Uiso   1.00
Zn191  Zn    0.25000   0.80307   0.16667   0.00000  Uiso   1.00
Zn192  Zn    0.25000   0.69693   0.16667   0.00000  Uiso   1.00
C193   C     0.66390   0.74999   0.16653   0.00000  Uiso   1.00
C194   C     0.72854   0.94731   0.12860   0.00000  Uiso   1.00
C195   C     0.74997   0.75000   0.07287   0.00000  Uiso   1.00
C196   C     0.75003   0.75000   0.26046   0.00000  Uiso   1.00
C197   C     0.75000   0.52670   0.16668   0.00000  Uiso   1.00
C198   C     0.75000   0.97331   0.16667   0.00000  Uiso   1.00
C199   C     0.74999   0.75001   0.02179   0.00000  Uiso   1.00
C200   C     0.75001   0.75001   0.31155   0.00000  Uiso   1.00
C201   C     0.54632   0.78330   0.13721   0.00000  Uiso   1.00
C202   C     0.95336   0.71653   0.13711   0.00000  Uiso   1.00
C203   C     0.95387   0.78329   0.19395   0.00000  Uiso   1.00
C204   C     0.83609   0.75000   0.16658   0.00000  Uiso   1.00
C205   C     0.54639   0.71625   0.19365   0.00000  Uiso   1.00
C206   C     0.59267   0.78345   0.13670   0.00000  Uiso   1.00
C207   C     0.90701   0.71649   0.13661   0.00000  Uiso   1.00
C208   C     0.90766   0.78340   0.19479   0.00000  Uiso   1.00
C209   C     0.59260   0.71623   0.19447   0.00000  Uiso   1.00
C210   C     0.61580   0.74991   0.16590   0.00000  Uiso   1.00
C211   C     0.88418   0.74998   0.16597   0.00000  Uiso   1.00
C212   C     0.52382   0.74977   0.16538   0.00000  Uiso   1.00
C213   C     0.97615   0.74989   0.16545   0.00000  Uiso   1.00
C214   C     0.71687   0.60220   0.14261   0.00000  Uiso   1.00
C215   C     0.77150   0.89781   0.20378   0.00000  Uiso   1.00
C216   C     0.78312   0.60221   0.19074   0.00000  Uiso   1.00
C217   C     0.72852   0.89781   0.12955   0.00000  Uiso   1.00
C218   C     0.71601   0.55270   0.14265   0.00000  Uiso   1.00
C219   C     0.77148   0.94730   0.20474   0.00000  Uiso   1.00
C220   C     0.78398   0.55271   0.19071   0.00000  Uiso   1.00
F221   F     0.68423   0.62610   0.11831   0.00000  Uiso   1.00
F222   F     0.79316   0.87391   0.24037   0.00000  Uiso   1.00
F223   F     0.81574   0.62612   0.21506   0.00000  Uiso   1.00
F224   F     0.70689   0.87392   0.09292   0.00000  Uiso   1.00
H225   H     0.52767   0.80872   0.11527   0.00000  Uiso   1.00
H226   H     0.59415   0.84020   0.08900   0.00000  Uiso   1.00
H227   H     0.86771   0.70249   0.07704   0.00000  Uiso   1.00
H228   H     0.90503   0.65989   0.08873   0.00000  Uiso   1.00
H229   H     0.89401   0.85041   0.21487   0.00000  Uiso   1.00
H230   H     0.89539   0.81158   0.26277   0.00000  Uiso   1.00
H231   H     0.60657   0.64911   0.21396   0.00000  Uiso   1.00
H232   H     0.60540   0.68754   0.26221   0.00000  Uiso   1.00
H233   H     0.97178   0.69119   0.11501   0.00000  Uiso   1.00
H234   H     0.97240   0.80873   0.21600   0.00000  Uiso   1.00
H235   H     0.52807   0.69064   0.21554   0.00000  Uiso   1.00
H236   H     0.68839   0.53521   0.12433   0.00000  Uiso   1.00
H237   H     0.78784   0.96479   0.23568   0.00000  Uiso   1.00
H238   H     0.81159   0.53522   0.20904   0.00000  Uiso   1.00
H239   H     0.71219   0.96480   0.09765   0.00000  Uiso   1.00
H240   H     0.63148   0.79773   0.07717   0.00000  Uiso   1.00
N241   N     0.75000   0.62624   0.16667   0.00000  Uiso   1.00
N242   N     0.75000   0.87377   0.16667   0.00000  Uiso   1.00
N243   N     0.61631   0.81664   0.10601   0.00000  Uiso   1.00
N244   N     0.88305   0.68345   0.10581   0.00000  Uiso   1.00
N245   N     0.88468   0.81651   0.22587   0.00000  Uiso   1.00
N246   N     0.61588   0.68294   0.22529   0.00000  Uiso   1.00
O247   O     0.68453   0.78974   0.16667   0.00000  Uiso   1.00
O248   O     0.81547   0.71026   0.16666   0.00000  Uiso   1.00
O249   O     0.81547   0.78974   0.16666   0.00000  Uiso   1.00
O250   O     0.68453   0.71026   0.16667   0.00000  Uiso   1.00
O251   O     0.75000   0.78973   0.09511   0.00000  Uiso   1.00
O252   O     0.75000   0.71027   0.23822   0.00000  Uiso   1.00
O253   O     0.75000   0.78973   0.23822   0.00000  Uiso   1.00
O254   O     0.75000   0.71027   0.09511   0.00000  Uiso   1.00
Zn255  Zn    0.75000   0.80307   0.16667   0.00000  Uiso   1.00
Zn256  Zn    0.75000   0.69693   0.16667   0.00000  Uiso   1.00
C257   C     0.16390   0.24999   0.49986   0.00000  Uiso   1.00
C258   C     0.22854   0.44731   0.46193   0.00000  Uiso   1.00
C259   C     0.24997   0.25000   0.40621   0.00000  Uiso   1.00
C260   C     0.25003   0.25000   0.59380   0.00000  Uiso   1.00
C261   C     0.25000   0.02670   0.50001   0.00000  Uiso   1.00
C262   C     0.25000   0.47331   0.50001   0.00000  Uiso   1.00
C263   C     0.24999   0.25001   0.35512   0.00000  Uiso   1.00
C264   C     0.25001   0.25001   0.64488   0.00000  Uiso   1.00
C265   C     0.04632   0.28330   0.47055   0.00000  Uiso   1.00
C266   C     0.45336   0.21653   0.47045   0.00000  Uiso   1.00
C267   C     0.45387   0.28329   0.52729   0.00000  Uiso   1.00
C268   C     0.33609   0.25000   0.49991   0.00000  Uiso   1.00
C269   C     0.04639   0.21625   0.52698   0.00000  Uiso   1.00
C270   C     0.09267   0.28345   0.47003   0.00000  Uiso   1.00
C271   C     0.40701   0.21649   0.46995   0.00000  Uiso   1.00
C272   C     0.40766   0.28340   0.52812   0.00000  Uiso   1.00
C273   C     0.09260   0.21623   0.52781   0.00000  Uiso   1.00
C274   C     0.11580   0.24991   0.49923   0.00000  Uiso   1.00
C275   C     0.38418   0.24998   0.49930   0.00000  Uiso   1.00
C276   C     0.02382   0.24977   0.49872   0.00000  Uiso   1.00
C277   C     0.47615   0.24989   0.49878   0.00000  Uiso   1.00
C278   C     0.21687   0.10220   0.47594   0.00000  Uiso   1.00
C279   C     0.27150   0.39781   0.53711   0.00000  Uiso   1.00
C280   C     0.28312   0.10221   0.52407   0.00000  Uiso   1.00
C281   C     0.22852   0.39781   0.46288   0.00000  Uiso   1.00
C282   C     0.21601   0.05270   0.47598   0.00000  Uiso   1.00
C283   C     0.27148   0.44730   0.53807   0.00000  Uiso   1.00
C284   C     0.28398   0.05271   0.52405   0.00000  Uiso   1.00
F285   F     0.18423   0.12610   0.45165   0.00000  Uiso   1.00
F286   F     0.29316   0.37391   0.57370   0.00000  Uiso   1.00
F287   F     0.31574   0.12612   0.54839   0.00000  Uiso   1.00
F288   F     0.20689   0.37392   0.42626   0.00000  Uiso   1.00
H289   H     0.02767   0.30872   0.44860   0.00000  Uiso   1.00
H290   H     0.09415   0.34020   0.42233   0.00000  Uiso   1.00
H291   H     0.36771   0.20249   0.41037   0.00000  Uiso   1.00
H292   H     0.40503   0.15989   0.42206   0.00000  Uiso   1.00
H293   H     0.39401   0.35041   0.54821   0.00000  Uiso   1.00
H294   H     0.39539   0.31158   0.59610   0.00000  Uiso   1.00
H295   H     0.10657   0.14911   0.54729   0.00000  Uiso   1.00
H296   H     0.10540   0.18754   0.59555   0.00000  Uiso   1.00
H297   H     0.47178   0.19119   0.44835   0.00000  Uiso   1.00
H298   H     0.47240   0.30873   0.54933   0.00000  Uiso   1.00
H299   H     0.02807   0.19064   0.54887   0.00000  Uiso   1.00
H300   H     0.18839   0.03521   0.45766   0.00000  Uiso   1.00
H301   H     0.28784   0.46479   0.56902   0.00000  Uiso   1.00
H302   H     0.31159   0.03522   0.54237   0.00000  Uiso   1.00
H303   H     0.21219   0.46480   0.43098   0.00000  Uiso   1.00
H304   H     0.13148   0.29773   0.41051   0.00000  Uiso   1.00
N305   N     0.25000   0.12624   0.50000   0.00000  Uiso   1.00
N306   N     0.25000   0.37377   0.50000   0.00000  Uiso   1.00
N307   N     0.11631   0.31664   0.43934   0.00000  Uiso   1.00
N308   N     0.38305   0.18345   0.43915   0.00000  Uiso   1.00
N309   N     0.38468   0.31651   0.55921   0.00000  Uiso   1.00
N310   N     0.11588   0.18294   0.55862   0.00000  Uiso   1.00
O311   O     0.18453   0.28974   0.50000   0.00000  Uiso   1.00
O312   O     0.31547   0.21026   0.50000   0.00000  Uiso   1.00
O313   O     0.31547   0.28974   0.50000   0.00000  Uiso   1.00
O314   O     0.18453   0.21026   0.50000   0.00000  Uiso   1.00
O315   O     0.25000   0.28973   0.42845   0.00000  Uiso   1.00
O316   O     0.25000   0.21027   0.57155   0.00000  Uiso   1.00
O317   O     0.25000   0.28973   0.57155   0.00000  Uiso   1.00
O318   O     0.25000   0.21027   0.42845   0.00000  Uiso   1.00
Zn319  Zn    0.25000   0.30307   0.50000   0.00000  Uiso   1.00
Zn320  Zn    0.25000   0.19693   0.50000   0.00000  Uiso   1.00
C321   C     0.66390   0.24999   0.49986   0.00000  Uiso   1.00
C322   C     0.72854   0.44731   0.46193   0.00000  Uiso   1.00
C323   C     0.74997   0.25000   0.40621   0.00000  Uiso   1.00
C324   C     0.75003   0.25000   0.59380   0.00000  Uiso   1.00
C325   C     0.75000   0.02670   0.50001   0.00000  Uiso   1.00
C326   C     0.75000   0.47331   0.50001   0.00000  Uiso   1.00
C327   C     0.74999   0.25001   0.35512   0.00000  Uiso   1.00
C328   C     0.75001   0.25001   0.64488   0.00000  Uiso   1.00
C329   C     0.54632   0.28330   0.47055   0.00000  Uiso   1.00
C330   C     0.95336   0.21653   0.47045   0.00000  Uiso   1.00
C331   C     0.95387   0.28329   0.52729   0.00000  Uiso   1.00
C332   C     0.83609   0.25000   0.49991   0.00000  Uiso   1.00
C333   C     0.54639   0.21625   0.52698   0.00000  Uiso   1.00
C334   C     0.59267   0.28345   0.47003   0.00000  Uiso   1.00
C335   C     0.90701   0.21649   0.46995   0.00000  Uiso   1.00
C336   C     0.90766   0.28340   0.52812   0.00000  Uiso   1.00
C337   C     0.59260   0.21623   0.52781   0.00000  Uiso   1.00
C338   C     0.61580   0.24991   0.49923   0.00000  Uiso   1.00
C339   C     0.88418   0.24998   0.49930   0.00000  Uiso   1.00
C340   C     0.52382   0.24977   0.49872   0.00000  Uiso   1.00
C341   C     0.97615   0.24989   0.49878   0.00000  Uiso   1.00
C342   C     0.71687   0.10220   0.47594   0.00000  Uiso   1.00
C343   C     0.77150   0.39781   0.53711   0.00000  Uiso   1.00
C344   C     0.78312   0.10221   0.52407   0.00000  Uiso   1.00
C345   C     0.72852   0.39781   0.46288   0.00000  Uiso   1.00
C346   C     0.71601   0.05270   0.47598   0.00000  Uiso   1.00
C347   C     0.77148   0.44730   0.53807   0.00000  Uiso   1.00
C348   C     0.78398   0.05271   0.52405   0.00000  Uiso   1.00
F349   F     0.68423   0.12610   0.45165   0.00000  Uiso   1.00
F350   F     0.79316   0.37391   0.57370   0.00000  Uiso   1.00
F351   F     0.81574   0.12612   0.54839   0.00000  Uiso   1.00
F352   F     0.70689   0.37392   0.42626   0.00000  Uiso   1.00
H353   H     0.52767   0.30872   0.44860   0.00000  Uiso   1.00
H354   H     0.59415   0.34020   0.42233   0.00000  Uiso   1.00
H355   H     0.86771   0.20249   0.41037   0.00000  Uiso   1.00
H356   H     0.90503   0.15989   0.42206   0.00000  Uiso   1.00
H357   H     0.89401   0.35041   0.54821   0.00000  Uiso   1.00
H358   H     0.89539   0.31158   0.59610   0.00000  Uiso   1.00
H359   H     0.60657   0.14911   0.54729   0.00000  Uiso   1.00
H360   H     0.60540   0.18754   0.59555   0.00000  Uiso   1.00
H361   H     0.97178   0.19119   0.44835   0.00000  Uiso   1.00
H362   H     0.97240   0.30873   0.54933   0.00000  Uiso   1.00
H363   H     0.52807   0.19064   0.54887   0.00000  Uiso   1.00
H364   H     0.68839   0.03521   0.45766   0.00000  Uiso   1.00
H365   H     0.78784   0.46479   0.56902   0.00000  Uiso   1.00
H366   H     0.81159   0.03522   0.54237   0.00000  Uiso   1.00
H367   H     0.71219   0.46480   0.43098   0.00000  Uiso   1.00
H368   H     0.63148   0.29773   0.41051   0.00000  Uiso   1.00
N369   N     0.75000   0.12624   0.50000   0.00000  Uiso   1.00
N370   N     0.75000   0.37377   0.50000   0.00000  Uiso   1.00
N371   N     0.61631   0.31664   0.43934   0.00000  Uiso   1.00
N372   N     0.88305   0.18345   0.43915   0.00000  Uiso   1.00
N373   N     0.88468   0.31651   0.55921   0.00000  Uiso   1.00
N374   N     0.61588   0.18294   0.55862   0.00000  Uiso   1.00
O375   O     0.68453   0.28974   0.50000   0.00000  Uiso   1.00
O376   O     0.81547   0.21026   0.50000   0.00000  Uiso   1.00
O377   O     0.81547   0.28974   0.50000   0.00000  Uiso   1.00
O378   O     0.68453   0.21026   0.50000   0.00000  Uiso   1.00
O379   O     0.75000   0.28973   0.42845   0.00000  Uiso   1.00
O380   O     0.75000   0.21027   0.57155   0.00000  Uiso   1.00
O381   O     0.75000   0.28973   0.57155   0.00000  Uiso   1.00
O382   O     0.75000   0.21027   0.42845   0.00000  Uiso   1.00
Zn383  Zn    0.75000   0.30307   0.50000   0.00000  Uiso   1.00
Zn384  Zn    0.75000   0.19693   0.50000   0.00000  Uiso   1.00
C385   C     0.16390   0.74999   0.49986   0.00000  Uiso   1.00
C386   C     0.22854   0.94731   0.46193   0.00000  Uiso   1.00
C387   C     0.24997   0.75000   0.40621   0.00000  Uiso   1.00
C388   C     0.25003   0.75000   0.59380   0.00000  Uiso   1.00
C389   C     0.25000   0.52670   0.50001   0.00000  Uiso   1.00
C390   C     0.25000   0.97331   0.50001   0.00000  Uiso   1.00
C391   C     0.24999   0.75001   0.35512   0.00000  Uiso   1.00
C392   C     0.25001   0.75001   0.64488   0.00000  Uiso   1.00
C393   C     0.04632   0.78330   0.47055   0.00000  Uiso   1.00
C394   C     0.45336   0.71653   0.47045   0.00000  Uiso   1.00
C395   C     0.45387   0.78329   0.52729   0.00000  Uiso   1.00
C396   C     0.33609   0.75000   0.49991   0.00000  Uiso   1.00
C397   C     0.04639   0.71625   0.52698   0.00000  Uiso   1.00
C398   C     0.09267   0.78345   0.47003   0.00000  Uiso   1.00
C399   C     0.40701   0.71649   0.46995   0.00000  Uiso   1.00
C400   C     0.40766   0.78340   0.52812   0.00000  Uiso   1.00
C401   C     0.09260   0.71623   0.52781   0.00000  Uiso   1.00
C402   C     0.11580   0.74991   0.49923   0.00000  Uiso   1.00
C403   C     0.38418   0.74998   0.49930   0.00000  Uiso   1.00
C404   C     0.02382   0.74977   0.49872   0.00000  Uiso   1.00
C405   C     0.47615   0.74989   0.49878   0.00000  Uiso   1.00
C406   C     0.21687   0.60220   0.47594   0.00000  Uiso   1.00
C407   C     0.27150   0.89781   0.53711   0.00000  Uiso   1.00
C408   C     0.28312   0.60221   0.52407   0.00000  Uiso   1.00
C409   C     0.22852   0.89781   0.46288   0.00000  Uiso   1.00
C410   C     0.21601   0.55270   0.47598   0.00000  Uiso   1.00
C411   C     0.27148   0.94730   0.53807   0.00000  Uiso   1.00
C412   C     0.28398   0.55271   0.52405   0.00000  Uiso   1.00
F413   F     0.18423   0.62610   0.45165   0.00000  Uiso   1.00
F414   F     0.29316   0.87391   0.57370   0.00000  Uiso   1.00
F415   F     0.31574   0.62612   0.54839   0.00000  Uiso   1.00
F416   F     0.20689   0.87392   0.42626   0.00000  Uiso   1.00
H417   H     0.02767   0.80872   0.44860   0.00000  Uiso   1.00
H418   H     0.09415   0.84020   0.42233   0.00000  Uiso   1.00
H419   H     0.36771   0.70249   0.41037   0.00000  Uiso   1.00
H420   H     0.40503   0.65989   0.42206   0.00000  Uiso   1.00
H421   H     0.39401   0.85041   0.54821   0.00000  Uiso   1.00
H422   H     0.39539   0.81158   0.59610   0.00000  Uiso   1.00
H423   H     0.10657   0.64911   0.54729   0.00000  Uiso   1.00
H424   H     0.10540   0.68754   0.59555   0.00000  Uiso   1.00
H425   H     0.47178   0.69119   0.44835   0.00000  Uiso   1.00
H426   H     0.47240   0.80873   0.54933   0.00000  Uiso   1.00
H427   H     0.02807   0.69064   0.54887   0.00000  Uiso   1.00
H428   H     0.18839   0.53521   0.45766   0.00000  Uiso   1.00
H429   H     0.28784   0.96479   0.56902   0.00000  Uiso   1.00
H430   H     0.31159   0.53522   0.54237   0.00000  Uiso   1.00
H431   H     0.21219   0.96480   0.43098   0.00000  Uiso   1.00
H432   H     0.13148   0.79773   0.41051   0.00000  Uiso   1.00
N433   N     0.25000   0.62624   0.50000   0.00000  Uiso   1.00
N434   N     0.25000   0.87377   0.50000   0.00000  Uiso   1.00
N435   N     0.11631   0.81664   0.43934   0.00000  Uiso   1.00
N436   N     0.38305   0.68345   0.43915   0.00000  Uiso   1.00
N437   N     0.38468   0.81651   0.55921   0.00000  Uiso   1.00
N438   N     0.11588   0.68294   0.55862   0.00000  Uiso   1.00
O439   O     0.18453   0.78974   0.50000   0.00000  Uiso   1.00
O440   O     0.31547   0.71026   0.50000   0.00000  Uiso   1.00
O441   O     0.31547   0.78974   0.50000   0.00000  Uiso   1.00
O442   O     0.18453   0.71026   0.50000   0.00000  Uiso   1.00
O443   O     0.25000   0.78973   0.42845   0.00000  Uiso   1.00
O444   O     0.25000   0.71027   0.57155   0.00000  Uiso   1.00
O445   O     0.25000   0.78973   0.57155   0.00000  Uiso   1.00
O446   O     0.25000   0.71027   0.42845   0.00000  Uiso   1.00
Zn447  Zn    0.25000   0.80307   0.50000   0.00000  Uiso   1.00
Zn448  Zn    0.25000   0.69693   0.50000   0.00000  Uiso   1.00
C449   C     0.66390   0.74999   0.49986   0.00000  Uiso   1.00
C450   C     0.72854   0.94731   0.46193   0.00000  Uiso   1.00
C451   C     0.74997   0.75000   0.40621   0.00000  Uiso   1.00
C452   C     0.75003   0.75000   0.59380   0.00000  Uiso   1.00
C453   C     0.75000   0.52670   0.50001   0.00000  Uiso   1.00
C454   C     0.75000   0.97331   0.50001   0.00000  Uiso   1.00
C455   C     0.74999   0.75001   0.35512   0.00000  Uiso   1.00
C456   C     0.75001   0.75001   0.64488   0.00000  Uiso   1.00
C457   C     0.54632   0.78330   0.47055   0.00000  Uiso   1.00
C458   C     0.95336   0.71653   0.47045   0.00000  Uiso   1.00
C459   C     0.95387   0.78329   0.52729   0.00000  Uiso   1.00
C460   C     0.83609   0.75000   0.49991   0.00000  Uiso   1.00
C461   C     0.54639   0.71625   0.52698   0.00000  Uiso   1.00
C462   C     0.59267   0.78345   0.47003   0.00000  Uiso   1.00
C463   C     0.90701   0.71649   0.46995   0.00000  Uiso   1.00
C464   C     0.90766   0.78340   0.52812   0.00000  Uiso   1.00
C465   C     0.59260   0.71623   0.52781   0.00000  Uiso   1.00
C466   C     0.61580   0.74991   0.49923   0.00000  Uiso   1.00
C467   C     0.88418   0.74998   0.49930   0.00000  Uiso   1.00
C468   C     0.52382   0.74977   0.49872   0.00000  Uiso   1.00
C469   C     0.97615   0.74989   0.49878   0.00000  Uiso   1.00
C470   C     0.71687   0.60220   0.47594   0.00000  Uiso   1.00
C471   C     0.77150   0.89781   0.53711   0.00000  Uiso   1.00
C472   C     0.78312   0.60221   0.52407   0.00000  Uiso   1.00
C473   C     0.72852   0.89781   0.46288   0.00000  Uiso   1.00
C474   C     0.71601   0.55270   0.47598   0.00000  Uiso   1.00
C475   C     0.77148   0.94730   0.53807   0.00000  Uiso   1.00
C476   C     0.78398   0.55271   0.52405   0.00000  Uiso   1.00
F477   F     0.68423   0.62610   0.45165   0.00000  Uiso   1.00
F478   F     0.79316   0.87391   0.57370   0.00000  Uiso   1.00
F479   F     0.81574   0.62612   0.54839   0.00000  Uiso   1.00
F480   F     0.70689   0.87392   0.42626   0.00000  Uiso   1.00
H481   H     0.52767   0.80872   0.44860   0.00000  Uiso   1.00
H482   H     0.59415   0.84020   0.42233   0.00000  Uiso   1.00
H483   H     0.86771   0.70249   0.41037   0.00000  Uiso   1.00
H484   H     0.90503   0.65989   0.42206   0.00000  Uiso   1.00
H485   H     0.89401   0.85041   0.54821   0.00000  Uiso   1.00
H486   H     0.89539   0.81158   0.59610   0.00000  Uiso   1.00
H487   H     0.60657   0.64911   0.54729   0.00000  Uiso   1.00
H488   H     0.60540   0.68754   0.59555   0.00000  Uiso   1.00
H489   H     0.97178   0.69119   0.44835   0.00000  Uiso   1.00
H490   H     0.97240   0.80873   0.54933   0.00000  Uiso   1.00
H491   H     0.52807   0.69064   0.54887   0.00000  Uiso   1.00
H492   H     0.68839   0.53521   0.45766   0.00000  Uiso   1.00
H493   H     0.78784   0.96479   0.56902   0.00000  Uiso   1.00
H494   H     0.81159   0.53522   0.54237   0.00000  Uiso   1.00
H495   H     0.71219   0.96480   0.43098   0.00000  Uiso   1.00
H496   H     0.63148   0.79773   0.41051   0.00000  Uiso   1.00
N497   N     0.75000   0.62624   0.50000   0.00000  Uiso   1.00
N498   N     0.75000   0.87377   0.50000   0.00000  Uiso   1.00
N499   N     0.61631   0.81664   0.43934   0.00000  Uiso   1.00
N500   N     0.88305   0.68345   0.43915   0.00000  Uiso   1.00
N501   N     0.88468   0.81651   0.55921   0.00000  Uiso   1.00
N502   N     0.61588   0.68294   0.55862   0.00000  Uiso   1.00
O503   O     0.68453   0.78974   0.50000   0.00000  Uiso   1.00
O504   O     0.81547   0.71026   0.50000   0.00000  Uiso   1.00
O505   O     0.81547   0.78974   0.50000   0.00000  Uiso   1.00
O506   O     0.68453   0.71026   0.50000   0.00000  Uiso   1.00
O507   O     0.75000   0.78973   0.42845   0.00000  Uiso   1.00
O508   O     0.75000   0.71027   0.57155   0.00000  Uiso   1.00
O509   O     0.75000   0.78973   0.57155   0.00000  Uiso   1.00
O510   O     0.75000   0.71027   0.42845   0.00000  Uiso   1.00
Zn511  Zn    0.75000   0.80307   0.50000   0.00000  Uiso   1.00
Zn512  Zn    0.75000   0.69693   0.50000   0.00000  Uiso   1.00
C513   C     0.16390   0.24999   0.83320   0.00000  Uiso   1.00
C514   C     0.22854   0.44731   0.79526   0.00000  Uiso   1.00
C515   C     0.24997   0.25000   0.73954   0.00000  Uiso   1.00
C516   C     0.25003   0.25000   0.92713   0.00000  Uiso   1.00
C517   C     0.25000   0.02670   0.83334   0.00000  Uiso   1.00
C518   C     0.25000   0.47331   0.83334   0.00000  Uiso   1.00
C519   C     0.24999   0.25001   0.68846   0.00000  Uiso   1.00
C520   C     0.25001   0.25001   0.97821   0.00000  Uiso   1.00
C521   C     0.04632   0.28330   0.80388   0.00000  Uiso   1.00
C522   C     0.45336   0.21653   0.80378   0.00000  Uiso   1.00
C523   C     0.45387   0.28329   0.86062   0.00000  Uiso   1.00
C524   C     0.33609   0.25000   0.83325   0.00000  Uiso   1.00
C525   C     0.04639   0.21625   0.86031   0.00000  Uiso   1.00
C526   C     0.09267   0.28345   0.80336   0.00000  Uiso   1.00
C527   C     0.40701   0.21649   0.80328   0.00000  Uiso   1.00
C528   C     0.40766   0.28340   0.86145   0.00000  Uiso   1.00
C529   C     0.09260   0.21623   0.86114   0.00000  Uiso   1.00
C530   C     0.11580   0.24991   0.83257   0.00000  Uiso   1.00
C531   C     0.38418   0.24998   0.83263   0.00000  Uiso   1.00
C532   C     0.02382   0.24977   0.83205   0.00000  Uiso   1.00
C533   C     0.47615   0.24989   0.83211   0.00000  Uiso   1.00
C534   C     0.21687   0.10220   0.80928   0.00000  Uiso   1.00
C535   C     0.27150   0.39781   0.87044   0.00000  Uiso   1.00
C536   C     0.28312   0.10221   0.85741   0.00000  Uiso   1.00
C537   C     0.22852   0.39781   0.79621   0.00000  Uiso   1.00
C538   C     0.21601   0.05270   0.80931   0.00000  Uiso   1.00
C539   C     0.27148   0.44730   0.87141   0.00000  Uiso   1.00
C540   C     0.28398   0.05271   0.85738   0.00000  Uiso   1.00
F541   F     0.18423   0.12610   0.78498   0.00000  Uiso   1.00
F542   F     0.29316   0.37391   0.90704   0.00000  Uiso   1.00
F543   F     0.31574   0.12612   0.88172   0.00000  Uiso   1.00
F544   F     0.20689   0.37392   0.75959   0.00000  Uiso   1.00
H545   H     0.02767   0.30872   0.78193   0.00000  Uiso   1.00
H546   H     0.09415   0.34020   0.75567   0.00000  Uiso   1.00
H547   H     0.36771   0.20249   0.74370   0.00000  Uiso   1.00
H548   H     0.40503   0.15989   0.75539   0.00000  Uiso   1.00
H549   H     0.39401   0.35041   0.88154   0.00000  Uiso   1.00
H550   H     0.39539   0.31158   0.92943   0.00000  Uiso   1.00
H551   H     0.10657   0.14911   0.88063   0.00000  Uiso   1.00
H552   H     0.10540   0.18754   0.92888   0.00000  Uiso   1.00
H553   H     0.47178   0.19119   0.78168   0.00000  Uiso   1.00
H554   H     0.47240   0.30873   0.88267   0.00000  Uiso   1.00
H555   H     0.02807   0.19064   0.88220   0.00000  Uiso   1.00
H556   H     0.18839   0.03521   0.79100   0.00000  Uiso   1.00
H557   H     0.28784   0.46479   0.90235   0.00000  Uiso   1.00
H558   H     0.31159   0.03522   0.87570   0.00000  Uiso   1.00
H559   H     0.21219   0.46480   0.76432   0.00000  Uiso   1.00
H560   H     0.13148   0.29773   0.74384   0.00000  Uiso   1.00
N561   N     0.25000   0.12624   0.83333   0.00000  Uiso   1.00
N562   N     0.25000   0.37377   0.83333   0.00000  Uiso   1.00
N563   N     0.11631   0.31664   0.77268   0.00000  Uiso   1.00
N564   N     0.38305   0.18345   0.77248   0.00000  Uiso   1.00
N565   N     0.38468   0.31651   0.89254   0.00000  Uiso   1.00
N566   N     0.11588   0.18294   0.89196   0.00000  Uiso   1.00
O567   O     0.18453   0.28974   0.83334   0.00000  Uiso   1.00
O568   O     0.31547   0.21026   0.83333   0.00000  Uiso   1.00
O569   O     0.31547   0.28974   0.83333   0.00000  Uiso   1.00
O570   O     0.18453   0.21026   0.83334   0.00000  Uiso   1.00
O571   O     0.25000   0.28973   0.76178   0.00000  Uiso   1.00
O572   O     0.25000   0.21027   0.90489   0.00000  Uiso   1.00
O573   O     0.25000   0.28973   0.90489   0.00000  Uiso   1.00
O574   O     0.25000   0.21027   0.76178   0.00000  Uiso   1.00
Zn575  Zn    0.25000   0.30307   0.83333   0.00000  Uiso   1.00
Zn576  Zn    0.25000   0.19693   0.83333   0.00000  Uiso   1.00
C577   C     0.66390   0.24999   0.83320   0.00000  Uiso   1.00
C578   C     0.72854   0.44731   0.79526   0.00000  Uiso   1.00
C579   C     0.74997   0.25000   0.73954   0.00000  Uiso   1.00
C580   C     0.75003   0.25000   0.92713   0.00000  Uiso   1.00
C581   C     0.75000   0.02670   0.83334   0.00000  Uiso   1.00
C582   C     0.75000   0.47331   0.83334   0.00000  Uiso   1.00
C583   C     0.74999   0.25001   0.68846   0.00000  Uiso   1.00
C584   C     0.75001   0.25001   0.97821   0.00000  Uiso   1.00
C585   C     0.54632   0.28330   0.80388   0.00000  Uiso   1.00
C586   C     0.95336   0.21653   0.80378   0.00000  Uiso   1.00
C587   C     0.95387   0.28329   0.86062   0.00000  Uiso   1.00
C588   C     0.83609   0.25000   0.83325   0.00000  Uiso   1.00
C589   C     0.54639   0.21625   0.86031   0.00000  Uiso   1.00
C590   C     0.59267   0.28345   0.80336   0.00000  Uiso   1.00
C591   C     0.90701   0.21649   0.80328   0.00000  Uiso   1.00
C592   C     0.90766   0.28340   0.86145   0.00000  Uiso   1.00
C593   C     0.59260   0.21623   0.86114   0.00000  Uiso   1.00
C594   C     0.61580   0.24991   0.83257   0.00000  Uiso   1.00
C595   C     0.88418   0.24998   0.83263   0.00000  Uiso   1.00
C596   C     0.52382   0.24977   0.83205   0.00000  Uiso   1.00
C597   C     0.97615   0.24989   0.83211   0.00000  Uiso   1.00
C598   C     0.71687   0.10220   0.80928   0.00000  Uiso   1.00
C599   C     0.77150   0.39781   0.87044   0.00000  Uiso   1.00
C600   C     0.78312   0.10221   0.85741   0.00000  Uiso   1.00
C601   C     0.72852   0.39781   0.79621   0.00000  Uiso   1.00
C602   C     0.71601   0.05270   0.80931   0.00000  Uiso   1.00
C603   C     0.77148   0.44730   0.87141   0.00000  Uiso   1.00
C604   C     0.78398   0.05271   0.85738   0.00000  Uiso   1.00
F605   F     0.68423   0.12610   0.78498   0.00000  Uiso   1.00
F606   F     0.79316   0.37391   0.90704   0.00000  Uiso   1.00
F607   F     0.81574   0.12612   0.88172   0.00000  Uiso   1.00
F608   F     0.70689   0.37392   0.75959   0.00000  Uiso   1.00
H609   H     0.52767   0.30872   0.78193   0.00000  Uiso   1.00
H610   H     0.59415   0.34020   0.75567   0.00000  Uiso   1.00
H611   H     0.86771   0.20249   0.74370   0.00000  Uiso   1.00
H612   H     0.90503   0.15989   0.75539   0.00000  Uiso   1.00
H613   H     0.89401   0.35041   0.88154   0.00000  Uiso   1.00
H614   H     0.89539   0.31158   0.92943   0.00000  Uiso   1.00
H615   H     0.60657   0.14911   0.88063   0.00000  Uiso   1.00
H616   H     0.60540   0.18754   0.92888   0.00000  Uiso   1.00
H617   H     0.97178   0.19119   0.78168   0.00000  Uiso   1.00
H618   H     0.97240   0.30873   0.88267   0.00000  Uiso   1.00
H619   H     0.52807   0.19064   0.88220   0.00000  Uiso   1.00
H620   H     0.68839   0.03521   0.79100   0.00000  Uiso   1.00
H621   H     0.78784   0.46479   0.90235   0.00000  Uiso   1.00
H622   H     0.81159   0.03522   0.87570   0.00000  Uiso   1.00
H623   H     0.71219   0.46480   0.76432   0.00000  Uiso   1.00
H624   H     0.63148   0.29773   0.74384   0.00000  Uiso   1.00
N625   N     0.75000   0.12624   0.83333   0.00000  Uiso   1.00
N626   N     0.75000   0.37377   0.83333   0.00000  Uiso   1.00
N627   N     0.61631   0.31664   0.77268   0.00000  Uiso   1.00
N628   N     0.88305   0.18345   0.77248   0.00000  Uiso   1.00
N629   N     0.88468   0.31651   0.89254   0.00000  Uiso   1.00
N630   N     0.61588   0.18294   0.89196   0.00000  Uiso   1.00
O631   O     0.68453   0.28974   0.83334   0.00000  Uiso   1.00
O632   O     0.81547   0.21026   0.83333   0.00000  Uiso   1.00
O633   O     0.81547   0.28974   0.83333   0.00000  Uiso   1.00
O634   O     0.68453   0.21026   0.83334   0.00000  Uiso   1.00
O635   O     0.75000   0.28973   0.76178   0.00000  Uiso   1.00
O636   O     0.75000   0.21027   0.90489   0.00000  Uiso   1.00
O637   O     0.75000   0.28973   0.90489   0.00000  Uiso   1.00
O638   O     0.75000   0.21027   0.76178   0.00000  Uiso   1.00
Zn639  Zn    0.75000   0.30307   0.83333   0.00000  Uiso   1.00
Zn640  Zn    0.75000   0.19693   0.83333   0.00000  Uiso   1.00
C641   C     0.16390   0.74999   0.83320   0.00000  Uiso   1.00
C642   C     0.22854   0.94731   0.79526   0.00000  Uiso   1.00
C643   C     0.24997   0.75000   0.73954   0.00000  Uiso   1.00
C644   C     0.25003   0.75000   0.92713   0.00000  Uiso   1.00
C645   C     0.25000   0.52670   0.83334   0.00000  Uiso   1.00
C646   C     0.25000   0.97331   0.83334   0.00000  Uiso   1.00
C647   C     0.24999   0.75001   0.68846   0.00000  Uiso   1.00
C648   C     0.25001   0.75001   0.97821   0.00000  Uiso   1.00
C649   C     0.04632   0.78330   0.80388   0.00000  Uiso   1.00
C650   C     0.45336   0.71653   0.80378   0.00000  Uiso   1.00
C651   C     0.45387   0.78329   0.86062   0.00000  Uiso   1.00
C652   C     0.33609   0.75000   0.83325   0.00000  Uiso   1.00
C653   C     0.04639   0.71625   0.86031   0.00000  Uiso   1.00
C654   C     0.09267   0.78345   0.80336   0.00000  Uiso   1.00
C655   C     0.40701   0.71649   0.80328   0.00000  Uiso   1.00
C656   C     0.40766   0.78340   0.86145   0.00000  Uiso   1.00
C657   C     0.09260   0.71623   0.86114   0.00000  Uiso   1.00
C658   C     0.11580   0.74991   0.83257   0.00000  Uiso   1.00
C659   C     0.38418   0.74998   0.83263   0.00000  Uiso   1.00
C660   C     0.02382   0.74977   0.83205   0.00000  Uiso   1.00
C661   C     0.47615   0.74989   0.83211   0.00000  Uiso   1.00
C662   C     0.21687   0.60220   0.80928   0.00000  Uiso   1.00
C663   C     0.27150   0.89781   0.87044   0.00000  Uiso   1.00
C664   C     0.28312   0.60221   0.85741   0.00000  Uiso   1.00
C665   C     0.22852   0.89781   0.79621   0.00000  Uiso   1.00
C666   C     0.21601   0.55270   0.80931   0.00000  Uiso   1.00
C667   C     0.27148   0.94730   0.87141   0.00000  Uiso   1.00
C668   C     0.28398   0.55271   0.85738   0.00000  Uiso   1.00
F669   F     0.18423   0.62610   0.78498   0.00000  Uiso   1.00
F670   F     0.29316   0.87391   0.90704   0.00000  Uiso   1.00
F671   F     0.31574   0.62612   0.88172   0.00000  Uiso   1.00
F672   F     0.20689   0.87392   0.75959   0.00000  Uiso   1.00
H673   H     0.02767   0.80872   0.78193   0.00000  Uiso   1.00
H674   H     0.09415   0.84020   0.75567   0.00000  Uiso   1.00
H675   H     0.36771   0.70249   0.74370   0.00000  Uiso   1.00
H676   H     0.40503   0.65989   0.75539   0.00000  Uiso   1.00
H677   H     0.39401   0.85041   0.88154   0.00000  Uiso   1.00
H678   H     0.39539   0.81158   0.92943   0.00000  Uiso   1.00
H679   H     0.10657   0.64911   0.88063   0.00000  Uiso   1.00
H680   H     0.10540   0.68754   0.92888   0.00000  Uiso   1.00
H681   H     0.47178   0.69119   0.78168   0.00000  Uiso   1.00
H682   H     0.47240   0.80873   0.88267   0.00000  Uiso   1.00
H683   H     0.02807   0.69064   0.88220   0.00000  Uiso   1.00
H684   H     0.18839   0.53521   0.79100   0.00000  Uiso   1.00
H685   H     0.28784   0.96479   0.90235   0.00000  Uiso   1.00
H686   H     0.31159   0.53522   0.87570   0.00000  Uiso   1.00
H687   H     0.21219   0.96480   0.76432   0.00000  Uiso   1.00
H688   H     0.13148   0.79773   0.74384   0.00000  Uiso   1.00
N689   N     0.25000   0.62624   0.83333   0.00000  Uiso   1.00
N690   N     0.25000   0.87377   0.83333   0.00000  Uiso   1.00
N691   N     0.11631   0.81664   0.77268   0.00000  Uiso   1.00
N692   N     0.38305   0.68345   0.77248   0.00000  Uiso   1.00
N693   N     0.38468   0.81651   0.89254   0.00000  Uiso   1.00
N694   N     0.11588   0.68294   0.89196   0.00000  Uiso   1.00
O695   O     0.18453   0.78974   0.83334   0.00000  Uiso   1.00
O696   O     0.31547   0.71026   0.83333   0.00000  Uiso   1.00
O697   O     0.31547   0.78974   0.83333   0.00000  Uiso   1.00
O698   O     0.18453   0.71026   0.83334   0.00000  Uiso   1.00
O699   O     0.25000   0.78973   0.76178   0.00000  Uiso   1.00
O700   O     0.25000   0.71027   0.90489   0.00000  Uiso   1.00
O701   O     0.25000   0.78973   0.90489   0.00000  Uiso   1.00
O702   O     0.25000   0.71027   0.76178   0.00000  Uiso   1.00
Zn703  Zn    0.25000   0.80307   0.83333   0.00000  Uiso   1.00
Zn704  Zn    0.25000   0.69693   0.83333   0.00000  Uiso   1.00
C705   C     0.66390   0.74999   0.83320   0.00000  Uiso   1.00
C706   C     0.72854   0.94731   0.79526   0.00000  Uiso   1.00
C707   C     0.74997   0.75000   0.73954   0.00000  Uiso   1.00
C708   C     0.75003   0.75000   0.92713   0.00000  Uiso   1.00
C709   C     0.75000   0.52670   0.83334   0.00000  Uiso   1.00
C710   C     0.75000   0.97331   0.83334   0.00000  Uiso   1.00
C711   C     0.74999   0.75001   0.68846   0.00000  Uiso   1.00
C712   C     0.75001   0.75001   0.97821   0.00000  Uiso   1.00
C713   C     0.54632   0.78330   0.80388   0.00000  Uiso   1.00
C714   C     0.95336   0.71653   0.80378   0.00000  Uiso   1.00
C715   C     0.95387   0.78329   0.86062   0.00000  Uiso   1.00
C716   C     0.83609   0.75000   0.83325   0.00000  Uiso   1.00
C717   C     0.54639   0.71625   0.86031   0.00000  Uiso   1.00
C718   C     0.59267   0.78345   0.80336   0.00000  Uiso   1.00
C719   C     0.90701   0.71649   0.80328   0.00000  Uiso   1.00
C720   C     0.90766   0.78340   0.86145   0.00000  Uiso   1.00
C721   C     0.59260   0.71623   0.86114   0.00000  Uiso   1.00
C722   C     0.61580   0.74991   0.83257   0.00000  Uiso   1.00
C723   C     0.88418   0.74998   0.83263   0.00000  Uiso   1.00
C724   C     0.52382   0.74977   0.83205   0.00000  Uiso   1.00
C725   C     0.97615   0.74989   0.83211   0.00000  Uiso   1.00
C726   C     0.71687   0.60220   0.80928   0.00000  Uiso   1.00
C727   C     0.77150   0.89781   0.87044   0.00000  Uiso   1.00
C728   C     0.78312   0.60221   0.85741   0.00000  Uiso   1.00
C729   C     0.72852   0.89781   0.79621   0.00000  Uiso   1.00
C730   C     0.71601   0.55270   0.80931   0.00000  Uiso   1.00
C731   C     0.77148   0.94730   0.87141   0.00000  Uiso   1.00
C732   C     0.78398   0.55271   0.85738   0.00000  Uiso   1.00
F733   F     0.68423   0.62610   0.78498   0.00000  Uiso   1.00
F734   F     0.79316   0.87391   0.90704   0.00000  Uiso   1.00
F735   F     0.81574   0.62612   0.88172   0.00000  Uiso   1.00
F736   F     0.70689   0.87392   0.75959   0.00000  Uiso   1.00
H737   H     0.52767   0.80872   0.78193   0.00000  Uiso   1.00
H738   H     0.59415   0.84020   0.75567   0.00000  Uiso   1.00
H739   H     0.86771   0.70249   0.74370   0.00000  Uiso   1.00
H740   H     0.90503   0.65989   0.75539   0.00000  Uiso   1.00
H741   H     0.89401   0.85041   0.88154   0.00000  Uiso   1.00
H742   H     0.89539   0.81158   0.92943   0.00000  Uiso   1.00
H743   H     0.60657   0.64911   0.88063   0.00000  Uiso   1.00
H744   H     0.60540   0.68754   0.92888   0.00000  Uiso   1.00
H745   H     0.97178   0.69119   0.78168   0.00000  Uiso   1.00
H746   H     0.97240   0.80873   0.88267   0.00000  Uiso   1.00
H747   H     0.52807   0.69064   0.88220   0.00000  Uiso   1.00
H748   H     0.68839   0.53521   0.79100   0.00000  Uiso   1.00
H749   H     0.78784   0.96479   0.90235   0.00000  Uiso   1.00
H750   H     0.81159   0.53522   0.87570   0.00000  Uiso   1.00
H751   H     0.71219   0.96480   0.76432   0.00000  Uiso   1.00
H752   H     0.63148   0.79773   0.74384   0.00000  Uiso   1.00
N753   N     0.75000   0.62624   0.83333   0.00000  Uiso   1.00
N754   N     0.75000   0.87377   0.83333   0.00000  Uiso   1.00
N755   N     0.61631   0.81664   0.77268   0.00000  Uiso   1.00
N756   N     0.88305   0.68345   0.77248   0.00000  Uiso   1.00
N757   N     0.88468   0.81651   0.89254   0.00000  Uiso   1.00
N758   N     0.61588   0.68294   0.89196   0.00000  Uiso   1.00
O759   O     0.68453   0.78974   0.83334   0.00000  Uiso   1.00
O760   O     0.81547   0.71026   0.83333   0.00000  Uiso   1.00
O761   O     0.81547   0.78974   0.83333   0.00000  Uiso   1.00
O762   O     0.68453   0.71026   0.83334   0.00000  Uiso   1.00
O763   O     0.75000   0.78973   0.76178   0.00000  Uiso   1.00
O764   O     0.75000   0.71027   0.90489   0.00000  Uiso   1.00
O765   O     0.75000   0.78973   0.90489   0.00000  Uiso   1.00
O766   O     0.75000   0.71027   0.76178   0.00000  Uiso   1.00
Zn767  Zn    0.75000   0.80307   0.83333   0.00000  Uiso   1.00
Zn768  Zn    0.75000   0.69693   0.83333   0.00000  Uiso   1.00
loop_
_geom_bond_atom_site_label_1
_geom_bond_atom_site_label_2
_geom_bond_distance
_geom_bond_site_symmetry_2
_ccdc_geom_bond_type
C1     O55     1.288   .     A
C1     C18     1.442   .     S
C1     O58     1.287   .     A
C2     H47     1.081   .     S
C2     C6      1.411   .     A
C2     C25     1.407   .     A
C3     C7      1.366   .     S
C3     O62     1.276   .     A
C3     O59     1.276   .     A
C4     C8      1.366   .     S
C4     O61     1.276   .     A
C4     O60     1.276   .     A
C5     C28     1.411   .     A
C5     C26     1.411   .     A
C5     C134    1.517   1_545 S
C6     C27     1.411   .     A
C6     C133    1.517   .     S
C7     C520    1.165   1_554 S
C8     C263    1.165   .     S
C9     H33     1.084   .     S
C9     C14     1.389   .     A
C9     C20     1.391   .     A
C10    H41     1.084   .     S
C10    C15     1.389   .     A
C10    C21     1.391   .     A
C11    C16     1.385   .     A
C11    H42     1.084   .     S
C11    C21     1.390   .     A
C12    O56     1.287   .     A
C12    O57     1.288   .     A
C12    C19     1.442   .     S
C13    C17     1.385   .     A
C13    H43     1.084   .     S
C13    C20     1.390   .     A
C14    C18     1.412   .     A
C14    N51     1.439   .     S
C15    N52     1.439   .     S
C15    C19     1.412   .     A
C16    C19     1.409   .     A
C16    N53     1.434   .     S
C17    C18     1.410   .     A
C17    N54     1.434   .     S
C20    C85     1.429   1_455 S
C21    C84     1.429   .     S
C22    F29     1.355   .     S
C22    N49     1.364   .     A
C22    C26     1.407   .     A
C23    C27     1.407   .     A
C23    F30     1.355   .     S
C23    N50     1.364   .     A
C24    F31     1.355   .     S
C24    N49     1.364   .     A
C24    C28     1.407   .     A
C25    N50     1.364   .     A
C25    F32     1.355   .     S
C26    H44     1.081   .     S
C27    H45     1.081   .     S
C28    H46     1.081   .     S
H34    N51     1.046   .     S
H35    N52     1.046   .     S
H36    N52     1.046   .     S
H37    N53     1.046   .     S
H38    N53     1.046   .     S
H39    N54     1.046   .     S
H40    N54     1.046   .     S
H48    N51     1.046   .     S
N49    Zn64    2.009   .     S
N50    Zn63    2.009   .     S
O55    Zn63    1.999   .     S
O56    Zn64    1.999   .     S
O57    Zn63    1.999   .     S
O58    Zn64    1.999   .     S
O59    Zn63    1.951   .     S
O60    Zn64    1.951   .     S
O61    Zn63    1.951   .     S
O62    Zn64    1.951   .     S
C65    O119    1.288   .     A
C65    C82     1.442   .     S
C65    O122    1.287   .     A
C66    H111    1.081   .     S
C66    C70     1.411   .     A
C66    C89     1.407   .     A
C67    C71     1.366   .     S
C67    O126    1.276   .     A
C67    O123    1.276   .     A
C68    C72     1.366   .     S
C68    O125    1.276   .     A
C68    O124    1.276   .     A
C69    C92     1.411   .     A
C69    C90     1.411   .     A
C69    C198    1.517   1_545 S
C70    C91     1.411   .     A
C70    C197    1.517   .     S
C71    C584    1.165   1_554 S
C72    C327    1.165   .     S
C73    H97     1.084   .     S
C73    C78     1.389   .     A
C73    C84     1.391   .     A
C74    H105    1.084   .     S
C74    C79     1.389   .     A
C74    C85     1.391   .     A
C75    C80     1.385   .     A
C75    H106    1.084   .     S
C75    C85     1.390   .     A
C76    O120    1.287   .     A
C76    O121    1.288   .     A
C76    C83     1.442   .     S
C77    C81     1.385   .     A
C77    H107    1.084   .     S
C77    C84     1.390   .     A
C78    C82     1.412   .     A
C78    N115    1.439   .     S
C79    N116    1.439   .     S
C79    C83     1.412   .     A
C80    C83     1.409   .     A
C80    N117    1.434   .     S
C81    C82     1.410   .     A
C81    N118    1.434   .     S
C85    C20     1.429   1_655 S
C86    F93     1.355   .     S
C86    N113    1.364   .     A
C86    C90     1.407   .     A
C87    C91     1.407   .     A
C87    F94     1.355   .     S
C87    N114    1.364   .     A
C88    F95     1.355   .     S
C88    N113    1.364   .     A
C88    C92     1.407   .     A
C89    N114    1.364   .     A
C89    F96     1.355   .     S
C90    H108    1.081   .     S
C91    H109    1.081   .     S
C92    H110    1.081   .     S
H98    N115    1.046   .     S
H99    N116    1.046   .     S
H100   N116    1.046   .     S
H101   N117    1.046   .     S
H102   N117    1.046   .     S
H103   N118    1.046   .     S
H104   N118    1.046   .     S
H112   N115    1.046   .     S
N113   Zn128   2.009   .     S
N114   Zn127   2.009   .     S
O119   Zn127   1.999   .     S
O120   Zn128   1.999   .     S
O121   Zn127   1.999   .     S
O122   Zn128   1.999   .     S
O123   Zn127   1.951   .     S
O124   Zn128   1.951   .     S
O125   Zn127   1.951   .     S
O126   Zn128   1.951   .     S
C129   O183    1.288   .     A
C129   C146    1.442   .     S
C129   O186    1.287   .     A
C130   H175    1.081   .     S
C130   C134    1.411   .     A
C130   C153    1.407   .     A
C131   C135    1.366   .     S
C131   O190    1.276   .     A
C131   O187    1.276   .     A
C132   C136    1.366   .     S
C132   O189    1.276   .     A
C132   O188    1.276   .     A
C133   C156    1.411   .     A
C133   C154    1.411   .     A
C134   C155    1.411   .     A
C134   C5      1.517   1_565 S
C135   C648    1.165   1_554 S
C136   C391    1.165   .     S
C137   H161    1.084   .     S
C137   C142    1.389   .     A
C137   C148    1.391   .     A
C138   H169    1.084   .     S
C138   C143    1.389   .     A
C138   C149    1.391   .     A
C139   C144    1.385   .     A
C139   H170    1.084   .     S
C139   C149    1.390   .     A
C140   O184    1.287   .     A
C140   O185    1.288   .     A
C140   C147    1.442   .     S
C141   C145    1.385   .     A
C141   H171    1.084   .     S
C141   C148    1.390   .     A
C142   C146    1.412   .     A
C142   N179    1.439   .     S
C143   N180    1.439   .     S
C143   C147    1.412   .     A
C144   C147    1.409   .     A
C144   N181    1.434   .     S
C145   C146    1.410   .     A
C145   N182    1.434   .     S
C148   C213    1.429   1_455 S
C149   C212    1.429   .     S
C150   F157    1.355   .     S
C150   N177    1.364   .     A
C150   C154    1.407   .     A
C151   C155    1.407   .     A
C151   F158    1.355   .     S
C151   N178    1.364   .     A
C152   F159    1.355   .     S
C152   N177    1.364   .     A
C152   C156    1.407   .     A
C153   N178    1.364   .     A
C153   F160    1.355   .     S
C154   H172    1.081   .     S
C155   H173    1.081   .     S
C156   H174    1.081   .     S
H162   N179    1.046   .     S
H163   N180    1.046   .     S
H164   N180    1.046   .     S
H165   N181    1.046   .     S
H166   N181    1.046   .     S
H167   N182    1.046   .     S
H168   N182    1.046   .     S
H176   N179    1.046   .     S
N177   Zn192   2.009   .     S
N178   Zn191   2.009   .     S
O183   Zn191   1.999   .     S
O184   Zn192   1.999   .     S
O185   Zn191   1.999   .     S
O186   Zn192   1.999   .     S
O187   Zn191   1.951   .     S
O188   Zn192   1.951   .     S
O189   Zn191   1.951   .     S
O190   Zn192   1.951   .     S
C193   O247    1.288   .     A
C193   C210    1.442   .     S
C193   O250    1.287   .     A
C194   H239    1.081   .     S
C194   C198    1.411   .     A
C194   C217    1.407   .     A
C195   C199    1.366   .     S
C195   O254    1.276   .     A
C195   O251    1.276   .     A
C196   C200    1.366   .     S
C196   O253    1.276   .     A
C196   O252    1.276   .     A
C197   C220    1.411   .     A
C197   C218    1.411   .     A
C198   C219    1.411   .     A
C198   C69     1.517   1_565 S
C199   C712    1.165   1_554 S
C200   C455    1.165   .     S
C201   H225    1.084   .     S
C201   C206    1.389   .     A
C201   C212    1.391   .     A
C202   H233    1.084   .     S
C202   C207    1.389   .     A
C202   C213    1.391   .     A
C203   C208    1.385   .     A
C203   H234    1.084   .     S
C203   C213    1.390   .     A
C204   O248    1.287   .     A
C204   O249    1.288   .     A
C204   C211    1.442   .     S
C205   C209    1.385   .     A
C205   H235    1.084   .     S
C205   C212    1.390   .     A
C206   C210    1.412   .     A
C206   N243    1.439   .     S
C207   N244    1.439   .     S
C207   C211    1.412   .     A
C208   C211    1.409   .     A
C208   N245    1.434   .     S
C209   C210    1.410   .     A
C209   N246    1.434   .     S
C213   C148    1.429   1_655 S
C214   F221    1.355   .     S
C214   N241    1.364   .     A
C214   C218    1.407   .     A
C215   C219    1.407   .     A
C215   F222    1.355   .     S
C215   N242    1.364   .     A
C216   F223    1.355   .     S
C216   N241    1.364   .     A
C216   C220    1.407   .     A
C217   N242    1.364   .     A
C217   F224    1.355   .     S
C218   H236    1.081   .     S
C219   H237    1.081   .     S
C220   H238    1.081   .     S
H226   N243    1.046   .     S
H227   N244    1.046   .     S
H228   N244    1.046   .     S
H229   N245    1.046   .     S
H230   N245    1.046   .     S
H231   N246    1.046   .     S
H232   N246    1.046   .     S
H240   N243    1.046   .     S
N241   Zn256   2.009   .     S
N242   Zn255   2.009   .     S
O247   Zn255   1.999   .     S
O248   Zn256   1.999   .     S
O249   Zn255   1.999   .     S
O250   Zn256   1.999   .     S
O251   Zn255   1.951   .     S
O252   Zn256   1.951   .     S
O253   Zn255   1.951   .     S
O254   Zn256   1.951   .     S
C257   O311    1.288   .     A
C257   C274    1.442   .     S
C257   O314    1.287   .     A
C258   H303    1.081   .     S
C258   C262    1.411   .     A
C258   C281    1.407   .     A
C259   C263    1.366   .     S
C259   O318    1.276   .     A
C259   O315    1.276   .     A
C260   C264    1.366   .     S
C260   O317    1.276   .     A
C260   O316    1.276   .     A
C261   C284    1.411   .     A
C261   C282    1.411   .     A
C261   C390    1.517   1_545 S
C262   C283    1.411   .     A
C262   C389    1.517   .     S
C264   C519    1.165   .     S
C265   H289    1.084   .     S
C265   C270    1.389   .     A
C265   C276    1.391   .     A
C266   H297    1.084   .     S
C266   C271    1.389   .     A
C266   C277    1.391   .     A
C267   C272    1.385   .     A
C267   H298    1.084   .     S
C267   C277    1.390   .     A
C268   O312    1.287   .     A
C268   O313    1.288   .     A
C268   C275    1.442   .     S
C269   C273    1.385   .     A
C269   H299    1.084   .     S
C269   C276    1.390   .     A
C270   C274    1.412   .     A
C270   N307    1.439   .     S
C271   N308    1.439   .     S
C271   C275    1.412   .     A
C272   C275    1.409   .     A
C272   N309    1.434   .     S
C273   C274    1.410   .     A
C273   N310    1.434   .     S
C276   C341    1.429   1_455 S
C277   C340    1.429   .     S
C278   F285    1.355   .     S
C278   N305    1.364   .     A
C278   C282    1.407   .     A
C279   C283    1.407   .     A
C279   F286    1.355   .     S
C279   N306    1.364   .     A
C280   F287    1.355   .     S
C280   N305    1.364   .     A
C280   C284    1.407   .     A
C281   N306    1.364   .     A
C281   F288    1.355   .     S
C282   H300    1.081   .     S
C283   H301    1.081   .     S
C284   H302    1.081   .     S
H290   N307    1.046   .     S
H291   N308    1.046   .     S
H292   N308    1.046   .     S
H293   N309    1.046   .     S
H294   N309    1.046   .     S
H295   N310    1.046   .     S
H296   N310    1.046   .     S
H304   N307    1.046   .     S
N305   Zn320   2.009   .     S
N306   Zn319   2.009   .     S
O311   Zn319   1.999   .     S
O312   Zn320   1.999   .     S
O313   Zn319   1.999   .     S
O314   Zn320   1.999   .     S
O315   Zn319   1.951   .     S
O316   Zn320   1.951   .     S
O317   Zn319   1.951   .     S
O318   Zn320   1.951   .     S
C321   O375    1.288   .     A
C321   C338    1.442   .     S
C321   O378    1.287   .     A
C322   H367    1.081   .     S
C322   C326    1.411   .     A
C322   C345    1.407   .     A
C323   C327    1.366   .     S
C323   O382    1.276   .     A
C323   O379    1.276   .     A
C324   C328    1.366   .     S
C324   O381    1.276   .     A
C324   O380    1.276   .     A
C325   C348    1.411   .     A
C325   C346    1.411   .     A
C325   C454    1.517   1_545 S
C326   C347    1.411   .     A
C326   C453    1.517   .     S
C328   C583    1.165   .     S
C329   H353    1.084   .     S
C329   C334    1.389   .     A
C329   C340    1.391   .     A
C330   H361    1.084   .     S
C330   C335    1.389   .     A
C330   C341    1.391   .     A
C331   C336    1.385   .     A
C331   H362    1.084   .     S
C331   C341    1.390   .     A
C332   O376    1.287   .     A
C332   O377    1.288   .     A
C332   C339    1.442   .     S
C333   C337    1.385   .     A
C333   H363    1.084   .     S
C333   C340    1.390   .     A
C334   C338    1.412   .     A
C334   N371    1.439   .     S
C335   N372    1.439   .     S
C335   C339    1.412   .     A
C336   C339    1.409   .     A
C336   N373    1.434   .     S
C337   C338    1.410   .     A
C337   N374    1.434   .     S
C341   C276    1.429   1_655 S
C342   F349    1.355   .     S
C342   N369    1.364   .     A
C342   C346    1.407   .     A
C343   C347    1.407   .     A
C343   F350    1.355   .     S
C343   N370    1.364   .     A
C344   F351    1.355   .     S
C344   N369    1.364   .     A
C344   C348    1.407   .     A
C345   N370    1.364   .     A
C345   F352    1.355   .     S
C346   H364    1.081   .     S
C347   H365    1.081   .     S
C348   H366    1.081   .     S
H354   N371    1.046   .     S
H355   N372    1.046   .     S
H356   N372    1.046   .     S
H357   N373    1.046   .     S
H358   N373    1.046   .     S
H359   N374    1.046   .     S
H360   N374    1.046   .     S
H368   N371    1.046   .     S
N369   Zn384   2.009   .     S
N370   Zn383   2.009   .     S
O375   Zn383   1.999   .     S
O376   Zn384   1.999   .     S
O377   Zn383   1.999   .     S
O378   Zn384   1.999   .     S
O379   Zn383   1.951   .     S
O380   Zn384   1.951   .     S
O381   Zn383   1.951   .     S
O382   Zn384   1.951   .     S
C385   O439    1.288   .     A
C385   C402    1.442   .     S
C385   O442    1.287   .     A
C386   H431    1.081   .     S
C386   C390    1.411   .     A
C386   C409    1.407   .     A
C387   C391    1.366   .     S
C387   O446    1.276   .     A
C387   O443    1.276   .     A
C388   C392    1.366   .     S
C388   O445    1.276   .     A
C388   O444    1.276   .     A
C389   C412    1.411   .     A
C389   C410    1.411   .     A
C390   C411    1.411   .     A
C390   C261    1.517   1_565 S
C392   C647    1.165   .     S
C393   H417    1.084   .     S
C393   C398    1.389   .     A
C393   C404    1.391   .     A
C394   H425    1.084   .     S
C394   C399    1.389   .     A
C394   C405    1.391   .     A
C395   C400    1.385   .     A
C395   H426    1.084   .     S
C395   C405    1.390   .     A
C396   O440    1.287   .     A
C396   O441    1.288   .     A
C396   C403    1.442   .     S
C397   C401    1.385   .     A
C397   H427    1.084   .     S
C397   C404    1.390   .     A
C398   C402    1.412   .     A
C398   N435    1.439   .     S
C399   N436    1.439   .     S
C399   C403    1.412   .     A
C400   C403    1.409   .     A
C400   N437    1.434   .     S
C401   C402    1.410   .     A
C401   N438    1.434   .     S
C404   C469    1.429   1_455 S
C405   C468    1.429   .     S
C406   F413    1.355   .     S
C406   N433    1.364   .     A
C406   C410    1.407   .     A
C407   C411    1.407   .     A
C407   F414    1.355   .     S
C407   N434    1.364   .     A
C408   F415    1.355   .     S
C408   N433    1.364   .     A
C408   C412    1.407   .     A
C409   N434    1.364   .     A
C409   F416    1.355   .     S
C410   H428    1.081   .     S
C411   H429    1.081   .     S
C412   H430    1.081   .     S
H418   N435    1.046   .     S
H419   N436    1.046   .     S
H420   N436    1.046   .     S
H421   N437    1.046   .     S
H422   N437    1.046   .     S
H423   N438    1.046   .     S
H424   N438    1.046   .     S
H432   N435    1.046   .     S
N433   Zn448   2.009   .     S
N434   Zn447   2.009   .     S
O439   Zn447   1.999   .     S
O440   Zn448   1.999   .     S
O441   Zn447   1.999   .     S
O442   Zn448   1.999   .     S
O443   Zn447   1.951   .     S
O444   Zn448   1.951   .     S
O445   Zn447   1.951   .     S
O446   Zn448   1.951   .     S
C449   O503    1.288   .     A
C449   C466    1.442   .     S
C449   O506    1.287   .     A
C450   H495    1.081   .     S
C450   C454    1.411   .     A
C450   C473    1.407   .     A
C451   C455    1.366   .     S
C451   O510    1.276   .     A
C451   O507    1.276   .     A
C452   C456    1.366   .     S
C452   O509    1.276   .     A
C452   O508    1.276   .     A
C453   C476    1.411   .     A
C453   C474    1.411   .     A
C454   C475    1.411   .     A
C454   C325    1.517   1_565 S
C456   C711    1.165   .     S
C457   H481    1.084   .     S
C457   C462    1.389   .     A
C457   C468    1.391   .     A
C458   H489    1.084   .     S
C458   C463    1.389   .     A
C458   C469    1.391   .     A
C459   C464    1.385   .     A
C459   H490    1.084   .     S
C459   C469    1.390   .     A
C460   O504    1.287   .     A
C460   O505    1.288   .     A
C460   C467    1.442   .     S
C461   C465    1.385   .     A
C461   H491    1.084   .     S
C461   C468    1.390   .     A
C462   C466    1.412   .     A
C462   N499    1.439   .     S
C463   N500    1.439   .     S
C463   C467    1.412   .     A
C464   C467    1.409   .     A
C464   N501    1.434   .     S
C465   C466    1.410   .     A
C465   N502    1.434   .     S
C469   C404    1.429   1_655 S
C470   F477    1.355   .     S
C470   N497    1.364   .     A
C470   C474    1.407   .     A
C471   C475    1.407   .     A
C471   F478    1.355   .     S
C471   N498    1.364   .     A
C472   F479    1.355   .     S
C472   N497    1.364   .     A
C472   C476    1.407   .     A
C473   N498    1.364   .     A
C473   F480    1.355   .     S
C474   H492    1.081   .     S
C475   H493    1.081   .     S
C476   H494    1.081   .     S
H482   N499    1.046   .     S
H483   N500    1.046   .     S
H484   N500    1.046   .     S
H485   N501    1.046   .     S
H486   N501    1.046   .     S
H487   N502    1.046   .     S
H488   N502    1.046   .     S
H496   N499    1.046   .     S
N497   Zn512   2.009   .     S
N498   Zn511   2.009   .     S
O503   Zn511   1.999   .     S
O504   Zn512   1.999   .     S
O505   Zn511   1.999   .     S
O506   Zn512   1.999   .     S
O507   Zn511   1.951   .     S
O508   Zn512   1.951   .     S
O509   Zn511   1.951   .     S
O510   Zn512   1.951   .     S
C513   O567    1.288   .     A
C513   C530    1.442   .     S
C513   O570    1.287   .     A
C514   H559    1.081   .     S
C514   C518    1.411   .     A
C514   C537    1.407   .     A
C515   C519    1.366   .     S
C515   O574    1.276   .     A
C515   O571    1.276   .     A
C516   C520    1.366   .     S
C516   O573    1.276   .     A
C516   O572    1.276   .     A
C517   C540    1.411   .     A
C517   C538    1.411   .     A
C517   C646    1.517   1_545 S
C518   C539    1.411   .     A
C518   C645    1.517   .     S
C520   C7      1.165   1_556 S
C521   H545    1.084   .     S
C521   C526    1.389   .     A
C521   C532    1.391   .     A
C522   H553    1.084   .     S
C522   C527    1.389   .     A
C522   C533    1.391   .     A
C523   C528    1.385   .     A
C523   H554    1.084   .     S
C523   C533    1.390   .     A
C524   O568    1.287   .     A
C524   O569    1.288   .     A
C524   C531    1.442   .     S
C525   C529    1.385   .     A
C525   H555    1.084   .     S
C525   C532    1.390   .     A
C526   C530    1.412   .     A
C526   N563    1.439   .     S
C527   N564    1.439   .     S
C527   C531    1.412   .     A
C528   C531    1.409   .     A
C528   N565    1.434   .     S
C529   C530    1.410   .     A
C529   N566    1.434   .     S
C532   C597    1.429   1_455 S
C533   C596    1.429   .     S
C534   F541    1.355   .     S
C534   N561    1.364   .     A
C534   C538    1.407   .     A
C535   C539    1.407   .     A
C535   F542    1.355   .     S
C535   N562    1.364   .     A
C536   F543    1.355   .     S
C536   N561    1.364   .     A
C536   C540    1.407   .     A
C537   N562    1.364   .     A
C537   F544    1.355   .     S
C538   H556    1.081   .     S
C539   H557    1.081   .     S
C540   H558    1.081   .     S
H546   N563    1.046   .     S
H547   N564    1.046   .     S
H548   N564    1.046   .     S
H549   N565    1.046   .     S
H550   N565    1.046   .     S
H551   N566    1.046   .     S
H552   N566    1.046   .     S
H560   N563    1.046   .     S
N561   Zn576   2.009   .     S
N562   Zn575   2.009   .     S
O567   Zn575   1.999   .     S
O568   Zn576   1.999   .     S
O569   Zn575   1.999   .     S
O570   Zn576   1.999   .     S
O571   Zn575   1.951   .     S
O572   Zn576   1.951   .     S
O573   Zn575   1.951   .     S
O574   Zn576   1.951   .     S
C577   O631    1.288   .     A
C577   C594    1.442   .     S
C577   O634    1.287   .     A
C578   H623    1.081   .     S
C578   C582    1.411   .     A
C578   C601    1.407   .     A
C579   C583    1.366   .     S
C579   O638    1.276   .     A
C579   O635    1.276   .     A
C580   C584    1.366   .     S
C580   O637    1.276   .     A
C580   O636    1.276   .     A
C581   C604    1.411   .     A
C581   C602    1.411   .     A
C581   C710    1.517   1_545 S
C582   C603    1.411   .     A
C582   C709    1.517   .     S
C584   C71     1.165   1_556 S
C585   H609    1.084   .     S
C585   C590    1.389   .     A
C585   C596    1.391   .     A
C586   H617    1.084   .     S
C586   C591    1.389   .     A
C586   C597    1.391   .     A
C587   C592    1.385   .     A
C587   H618    1.084   .     S
C587   C597    1.390   .     A
C588   O632    1.287   .     A
C588   O633    1.288   .     A
C588   C595    1.442   .     S
C589   C593    1.385   .     A
C589   H619    1.084   .     S
C589   C596    1.390   .     A
C590   C594    1.412   .     A
C590   N627    1.439   .     S
C591   N628    1.439   .     S
C591   C595    1.412   .     A
C592   C595    1.409   .     A
C592   N629    1.434   .     S
C593   C594    1.410   .     A
C593   N630    1.434   .     S
C597   C532    1.429   1_655 S
C598   F605    1.355   .     S
C598   N625    1.364   .     A
C598   C602    1.407   .     A
C599   C603    1.407   .     A
C599   F606    1.355   .     S
C599   N626    1.364   .     A
C600   F607    1.355   .     S
C600   N625    1.364   .     A
C600   C604    1.407   .     A
C601   N626    1.364   .     A
C601   F608    1.355   .     S
C602   H620    1.081   .     S
C603   H621    1.081   .     S
C604   H622    1.081   .     S
H610   N627    1.046   .     S
H611   N628    1.046   .     S
H612   N628    1.046   .     S
H613   N629    1.046   .     S
H614   N629    1.046   .     S
H615   N630    1.046   .     S
H616   N630    1.046   .     S
H624   N627    1.046   .     S
N625   Zn640   2.009   .     S
N626   Zn639   2.009   .     S
O631   Zn639   1.999   .     S
O632   Zn640   1.999   .     S
O633   Zn639   1.999   .     S
O634   Zn640   1.999   .     S
O635   Zn639   1.951   .     S
O636   Zn640   1.951   .     S
O637   Zn639   1.951   .     S
O638   Zn640   1.951   .     S
C641   O695    1.288   .     A
C641   C658    1.442   .     S
C641   O698    1.287   .     A
C642   H687    1.081   .     S
C642   C646    1.411   .     A
C642   C665    1.407   .     A
C643   C647    1.366   .     S
C643   O702    1.276   .     A
C643   O699    1.276   .     A
C644   C648    1.366   .     S
C644   O701    1.276   .     A
C644   O700    1.276   .     A
C645   C668    1.411   .     A
C645   C666    1.411   .     A
C646   C667    1.411   .     A
C646   C517    1.517   1_565 S
C648   C135    1.165   1_556 S
C649   H673    1.084   .     S
C649   C654    1.389   .     A
C649   C660    1.391   .     A
C650   H681    1.084   .     S
C650   C655    1.389   .     A
C650   C661    1.391   .     A
C651   C656    1.385   .     A
C651   H682    1.084   .     S
C651   C661    1.390   .     A
C652   O696    1.287   .     A
C652   O697    1.288   .     A
C652   C659    1.442   .     S
C653   C657    1.385   .     A
C653   H683    1.084   .     S
C653   C660    1.390   .     A
C654   C658    1.412   .     A
C654   N691    1.439   .     S
C655   N692    1.439   .     S
C655   C659    1.412   .     A
C656   C659    1.409   .     A
C656   N693    1.434   .     S
C657   C658    1.410   .     A
C657   N694    1.434   .     S
C660   C725    1.429   1_455 S
C661   C724    1.429   .     S
C662   F669    1.355   .     S
C662   N689    1.364   .     A
C662   C666    1.407   .     A
C663   C667    1.407   .     A
C663   F670    1.355   .     S
C663   N690    1.364   .     A
C664   F671    1.355   .     S
C664   N689    1.364   .     A
C664   C668    1.407   .     A
C665   N690    1.364   .     A
C665   F672    1.355   .     S
C666   H684    1.081   .     S
C667   H685    1.081   .     S
C668   H686    1.081   .     S
H674   N691    1.046   .     S
H675   N692    1.046   .     S
H676   N692    1.046   .     S
H677   N693    1.046   .     S
H678   N693    1.046   .     S
H679   N694    1.046   .     S
H680   N694    1.046   .     S
H688   N691    1.046   .     S
N689   Zn704   2.009   .     S
N690   Zn703   2.009   .     S
O695   Zn703   1.999   .     S
O696   Zn704   1.999   .     S
O697   Zn703   1.999   .     S
O698   Zn704   1.999   .     S
O699   Zn703   1.951   .     S
O700   Zn704   1.951   .     S
O701   Zn703   1.951   .     S
O702   Zn704   1.951   .     S
C705   O759    1.288   .     A
C705   C722    1.442   .     S
C705   O762    1.287   .     A
C706   H751    1.081   .     S
C706   C710    1.411   .     A
C706   C729    1.407   .     A
C707   C711    1.366   .     S
C707   O766    1.276   .     A
C707   O763    1.276   .     A
C708   C712    1.366   .     S
C708   O765    1.276   .     A
C708   O764    1.276   .     A
C709   C732    1.411   .     A
C709   C730    1.411   .     A
C710   C731    1.411   .     A
C710   C581    1.517   1_565 S
C712   C199    1.165   1_556 S
C713   H737    1.084   .     S
C713   C718    1.389   .     A
C713   C724    1.391   .     A
C714   H745    1.084   .     S
C714   C719    1.389   .     A
C714   C725    1.391   .     A
C715   C720    1.385   .     A
C715   H746    1.084   .     S
C715   C725    1.390   .     A
C716   O760    1.287   .     A
C716   O761    1.288   .     A
C716   C723    1.442   .     S
C717   C721    1.385   .     A
C717   H747    1.084   .     S
C717   C724    1.390   .     A
C718   C722    1.412   .     A
C718   N755    1.439   .     S
C719   N756    1.439   .     S
C719   C723    1.412   .     A
C720   C723    1.409   .     A
C720   N757    1.434   .     S
C721   C722    1.410   .     A
C721   N758    1.434   .     S
C725   C660    1.429   1_655 S
C726   F733    1.355   .     S
C726   N753    1.364   .     A
C726   C730    1.407   .     A
C727   C731    1.407   .     A
C727   F734    1.355   .     S
C727   N754    1.364   .     A
C728   F735    1.355   .     S
C728   N753    1.364   .     A
C728   C732    1.407   .     A
C729   N754    1.364   .     A
C729   F736    1.355   .     S
C730   H748    1.081   .     S
C731   H749    1.081   .     S
C732   H750    1.081   .     S
H738   N755    1.046   .     S
H739   N756    1.046   .     S
H740   N756    1.046   .     S
H741   N757    1.046   .     S
H742   N757    1.046   .     S
H743   N758    1.046   .     S
H744   N758    1.046   .     S
H752   N755    1.046   .     S
N753   Zn768   2.009   .     S
N754   Zn767   2.009   .     S
O759   Zn767   1.999   .     S
O760   Zn768   1.999   .     S
O761   Zn767   1.999   .     S
O762   Zn768   1.999   .     S
O763   Zn767   1.951   .     S
O764   Zn768   1.951   .     S
O765   Zn767   1.951   .     S
O766   Zn768   1.951   .     S
