data_str_m3_o10_o17_pcu_sym.132
_audit_creation_date              2020-01-03
_audit_creation_method            'Materials Studio'
_symmetry_space_group_name_H-M    'P1'
_symmetry_Int_Tables_number       1
_symmetry_cell_setting            triclinic
loop_
_symmetry_equiv_pos_as_xyz
  x,y,z
_cell_length_a                    23.3116
_cell_length_b                    25.3789
_cell_length_c                    29.9874
_cell_angle_alpha                 90.3031
_cell_angle_beta                  85.6585
_cell_angle_gamma                 94.6358
loop_
_atom_site_label
_atom_site_type_symbol
_atom_site_fract_x
_atom_site_fract_y
_atom_site_fract_z
_atom_site_U_iso_or_equiv
_atom_site_adp_type
_atom_site_occupancy
C1     C     0.18248   0.26484   0.25419   0.00000  Uiso   1.00
C2     C     0.20309   0.20454   0.40507   0.00000  Uiso   1.00
C3     C     0.16495   0.16916   0.11587   0.00000  Uiso   1.00
C4     C     0.16885   0.16483   0.38417   0.00000  Uiso   1.00
C5     C     0.19887   0.20931   0.09145   0.00000  Uiso   1.00
C6     C     0.13632   0.12410   0.40889   0.00000  Uiso   1.00
C7     C     0.19441   0.21121   0.04507   0.00000  Uiso   1.00
C8     C     0.14085   0.12258   0.45518   0.00000  Uiso   1.00
C9     C     0.16788   0.16699   0.02343   0.00000  Uiso   1.00
C10    C     0.16779   0.16662   0.47669   0.00000  Uiso   1.00
C11    C     0.14096   0.12335   0.04849   0.00000  Uiso   1.00
C12    C     0.15164   0.06857   0.25765   0.00000  Uiso   1.00
C13    C     0.19415   0.21042   0.45158   0.00000  Uiso   1.00
C14    C     0.21293   0.25690   0.02018   0.00000  Uiso   1.00
C15    C     0.12017   0.07748   0.48021   0.00000  Uiso   1.00
C16    C     0.08062   0.09905   0.12110   0.00000  Uiso   1.00
C17    C     0.25264   0.23556   0.37831   0.00000  Uiso   1.00
C18    C     0.23725   0.24992   0.11561   0.00000  Uiso   1.00
C19    C     0.09903   0.08110   0.38671   0.00000  Uiso   1.00
C20    C     0.21780   0.31074   0.45200   0.00000  Uiso   1.00
C21    C     0.11630   0.02320   0.04821   0.00000  Uiso   1.00
C22    C     0.25127   0.00766   0.27551   0.00000  Uiso   1.00
C23    C     0.21068   0.25793   0.47404   0.00000  Uiso   1.00
C24    C     0.09306   0.32743   0.30194   0.00000  Uiso   1.00
C25    C     0.12361   0.07605   0.02616   0.00000  Uiso   1.00
C26    C     0.19190   0.31895   0.26781   0.00000  Uiso   1.00
C27    C     0.14566   0.01450   0.27407   0.00000  Uiso   1.00
C28    C     0.16737   0.16625   0.33641   0.00000  Uiso   1.00
C29    C     0.16611   0.16755   0.16363   0.00000  Uiso   1.00
C30    C     0.13092   0.12960   0.09480   0.00000  Uiso   1.00
H31    H     0.22469   0.29369   0.03659   0.00000  Uiso   1.00
H32    H     0.28183   0.25939   0.39944   0.00000  Uiso   1.00
H33    H     0.26623   0.27652   0.09337   0.00000  Uiso   1.00
H34    H     0.21023   0.27412   0.13838   0.00000  Uiso   1.00
H35    H     0.26752   0.22984   0.13518   0.00000  Uiso   1.00
H36    H     0.11826   0.04279   0.38861   0.00000  Uiso   1.00
H37    H     0.05490   0.07774   0.40377   0.00000  Uiso   1.00
H38    H     0.09380   0.08781   0.35113   0.00000  Uiso   1.00
H39    H     0.25431   0.05231   0.45169   0.00000  Uiso   1.00
H40    H     0.07955   0.28171   0.04846   0.00000  Uiso   1.00
H41    H     0.29816   0.06353   0.30900   0.00000  Uiso   1.00
H42    H     0.10427   0.04171   0.46395   0.00000  Uiso   1.00
H43    H     0.05783   0.27714   0.35037   0.00000  Uiso   1.00
H44    H     0.00432   0.12680   0.21700   0.00000  Uiso   1.00
H45    H     0.32901   0.20651   0.28303   0.00000  Uiso   1.00
H46    H     0.05224   0.12718   0.13812   0.00000  Uiso   1.00
H47    H     0.05163   0.07542   0.09967   0.00000  Uiso   1.00
H48    H     0.09654   0.07300   0.14630   0.00000  Uiso   1.00
H49    H     0.28107   0.20776   0.36089   0.00000  Uiso   1.00
H50    H     0.23592   0.26145   0.35340   0.00000  Uiso   1.00
N51    N     0.31678   0.15265   0.23783   0.00000  Uiso   1.00
N52    N     0.01656   0.18068   0.26217   0.00000  Uiso   1.00
O53    O     0.12975   0.24619   0.25298   0.00000  Uiso   1.00
O54    O     0.25387   0.01812   0.46912   0.00000  Uiso   1.00
O55    O     0.14349   0.01455   0.08035   0.00000  Uiso   1.00
O56    O     0.08000   0.31597   0.03113   0.00000  Uiso   1.00
O57    O     0.29213   0.33032   0.25004   0.00000  Uiso   1.00
O58    O     0.25899   0.04310   0.31093   0.00000  Uiso   1.00
O59    O     0.04788   0.01428   0.29946   0.00000  Uiso   1.00
O60    O     0.09618   0.28692   0.33297   0.00000  Uiso   1.00
O61    O     0.20358   0.08714   0.24701   0.00000  Uiso   1.00
O62    O     0.22613   0.23721   0.24518   0.00000  Uiso   1.00
O63    O     0.10720   0.09613   0.25481   0.00000  Uiso   1.00
O64    O     0.11847   0.17117   0.31997   0.00000  Uiso   1.00
O65    O     0.21486   0.16216   0.18002   0.00000  Uiso   1.00
O66    O     0.21485   0.16219   0.31217   0.00000  Uiso   1.00
O67    O     0.11848   0.17115   0.18782   0.00000  Uiso   1.00
O68    O     0.19080   0.31918   0.41975   0.00000  Uiso   1.00
Zn69   Zn    0.10231   0.17266   0.25521   0.00000  Uiso   1.00
Zn70   Zn    0.23102   0.16067   0.24479   0.00000  Uiso   1.00
C71    C     0.51582   0.26484   0.25419   0.00000  Uiso   1.00
C72    C     0.53642   0.20454   0.40507   0.00000  Uiso   1.00
C73    C     0.49829   0.16916   0.11587   0.00000  Uiso   1.00
C74    C     0.50218   0.16483   0.38417   0.00000  Uiso   1.00
C75    C     0.53220   0.20931   0.09145   0.00000  Uiso   1.00
C76    C     0.46965   0.12410   0.40889   0.00000  Uiso   1.00
C77    C     0.52774   0.21121   0.04507   0.00000  Uiso   1.00
C78    C     0.47418   0.12258   0.45518   0.00000  Uiso   1.00
C79    C     0.50122   0.16699   0.02343   0.00000  Uiso   1.00
C80    C     0.50113   0.16662   0.47669   0.00000  Uiso   1.00
C81    C     0.47429   0.12335   0.04849   0.00000  Uiso   1.00
C82    C     0.48497   0.06857   0.25765   0.00000  Uiso   1.00
C83    C     0.52748   0.21042   0.45158   0.00000  Uiso   1.00
C84    C     0.54626   0.25690   0.02018   0.00000  Uiso   1.00
C85    C     0.45350   0.07748   0.48021   0.00000  Uiso   1.00
C86    C     0.41396   0.09905   0.12110   0.00000  Uiso   1.00
C87    C     0.58597   0.23556   0.37831   0.00000  Uiso   1.00
C88    C     0.57058   0.24992   0.11561   0.00000  Uiso   1.00
C89    C     0.43236   0.08110   0.38671   0.00000  Uiso   1.00
C90    C     0.55113   0.31074   0.45200   0.00000  Uiso   1.00
C91    C     0.44964   0.02320   0.04821   0.00000  Uiso   1.00
C92    C     0.58461   0.00766   0.27551   0.00000  Uiso   1.00
C93    C     0.54401   0.25793   0.47404   0.00000  Uiso   1.00
C94    C     0.42640   0.32743   0.30194   0.00000  Uiso   1.00
C95    C     0.45694   0.07605   0.02616   0.00000  Uiso   1.00
C96    C     0.52523   0.31895   0.26781   0.00000  Uiso   1.00
C97    C     0.47899   0.01450   0.27407   0.00000  Uiso   1.00
C98    C     0.50071   0.16625   0.33641   0.00000  Uiso   1.00
C99    C     0.49944   0.16755   0.16363   0.00000  Uiso   1.00
C100   C     0.46425   0.12960   0.09480   0.00000  Uiso   1.00
H101   H     0.55802   0.29369   0.03659   0.00000  Uiso   1.00
H102   H     0.61517   0.25939   0.39944   0.00000  Uiso   1.00
H103   H     0.59956   0.27652   0.09337   0.00000  Uiso   1.00
H104   H     0.54356   0.27412   0.13838   0.00000  Uiso   1.00
H105   H     0.60086   0.22984   0.13518   0.00000  Uiso   1.00
H106   H     0.45159   0.04279   0.38861   0.00000  Uiso   1.00
H107   H     0.38824   0.07774   0.40377   0.00000  Uiso   1.00
H108   H     0.42713   0.08781   0.35113   0.00000  Uiso   1.00
H109   H     0.58765   0.05231   0.45169   0.00000  Uiso   1.00
H110   H     0.41288   0.28171   0.04846   0.00000  Uiso   1.00
H111   H     0.63150   0.06353   0.30900   0.00000  Uiso   1.00
H112   H     0.43760   0.04171   0.46395   0.00000  Uiso   1.00
H113   H     0.39116   0.27714   0.35037   0.00000  Uiso   1.00
H114   H     0.33766   0.12680   0.21700   0.00000  Uiso   1.00
H115   H     0.66235   0.20651   0.28303   0.00000  Uiso   1.00
H116   H     0.38558   0.12718   0.13812   0.00000  Uiso   1.00
H117   H     0.38497   0.07542   0.09967   0.00000  Uiso   1.00
H118   H     0.42987   0.07300   0.14630   0.00000  Uiso   1.00
H119   H     0.61440   0.20776   0.36089   0.00000  Uiso   1.00
H120   H     0.56925   0.26145   0.35340   0.00000  Uiso   1.00
N121   N     0.65011   0.15265   0.23783   0.00000  Uiso   1.00
N122   N     0.34989   0.18068   0.26217   0.00000  Uiso   1.00
O123   O     0.46308   0.24619   0.25298   0.00000  Uiso   1.00
O124   O     0.58720   0.01812   0.46912   0.00000  Uiso   1.00
O125   O     0.47682   0.01455   0.08035   0.00000  Uiso   1.00
O126   O     0.41333   0.31597   0.03113   0.00000  Uiso   1.00
O127   O     0.62546   0.33032   0.25004   0.00000  Uiso   1.00
O128   O     0.59233   0.04310   0.31093   0.00000  Uiso   1.00
O129   O     0.38122   0.01428   0.29946   0.00000  Uiso   1.00
O130   O     0.42951   0.28692   0.33297   0.00000  Uiso   1.00
O131   O     0.53692   0.08714   0.24701   0.00000  Uiso   1.00
O132   O     0.55946   0.23721   0.24518   0.00000  Uiso   1.00
O133   O     0.44054   0.09613   0.25481   0.00000  Uiso   1.00
O134   O     0.45181   0.17117   0.31997   0.00000  Uiso   1.00
O135   O     0.54819   0.16216   0.18002   0.00000  Uiso   1.00
O136   O     0.54819   0.16219   0.31217   0.00000  Uiso   1.00
O137   O     0.45181   0.17115   0.18782   0.00000  Uiso   1.00
O138   O     0.52413   0.31918   0.41975   0.00000  Uiso   1.00
Zn139  Zn    0.43565   0.17266   0.25521   0.00000  Uiso   1.00
Zn140  Zn    0.56435   0.16067   0.24479   0.00000  Uiso   1.00
C141   C     0.84915   0.26484   0.25419   0.00000  Uiso   1.00
C142   C     0.86975   0.20454   0.40507   0.00000  Uiso   1.00
C143   C     0.83162   0.16916   0.11587   0.00000  Uiso   1.00
C144   C     0.83552   0.16483   0.38417   0.00000  Uiso   1.00
C145   C     0.86553   0.20931   0.09145   0.00000  Uiso   1.00
C146   C     0.80299   0.12410   0.40889   0.00000  Uiso   1.00
C147   C     0.86108   0.21121   0.04507   0.00000  Uiso   1.00
C148   C     0.80752   0.12258   0.45518   0.00000  Uiso   1.00
C149   C     0.83455   0.16699   0.02343   0.00000  Uiso   1.00
C150   C     0.83446   0.16662   0.47669   0.00000  Uiso   1.00
C151   C     0.80763   0.12335   0.04849   0.00000  Uiso   1.00
C152   C     0.81831   0.06857   0.25765   0.00000  Uiso   1.00
C153   C     0.86082   0.21042   0.45158   0.00000  Uiso   1.00
C154   C     0.87959   0.25690   0.02018   0.00000  Uiso   1.00
C155   C     0.78684   0.07748   0.48021   0.00000  Uiso   1.00
C156   C     0.74729   0.09905   0.12110   0.00000  Uiso   1.00
C157   C     0.91931   0.23556   0.37831   0.00000  Uiso   1.00
C158   C     0.90392   0.24992   0.11561   0.00000  Uiso   1.00
C159   C     0.76570   0.08110   0.38671   0.00000  Uiso   1.00
C160   C     0.88446   0.31074   0.45200   0.00000  Uiso   1.00
C161   C     0.78297   0.02320   0.04821   0.00000  Uiso   1.00
C162   C     0.91794   0.00766   0.27551   0.00000  Uiso   1.00
C163   C     0.87734   0.25793   0.47404   0.00000  Uiso   1.00
C164   C     0.75973   0.32743   0.30194   0.00000  Uiso   1.00
C165   C     0.79027   0.07605   0.02616   0.00000  Uiso   1.00
C166   C     0.85856   0.31895   0.26781   0.00000  Uiso   1.00
C167   C     0.81233   0.01450   0.27407   0.00000  Uiso   1.00
C168   C     0.83404   0.16625   0.33641   0.00000  Uiso   1.00
C169   C     0.83277   0.16755   0.16363   0.00000  Uiso   1.00
C170   C     0.79759   0.12960   0.09480   0.00000  Uiso   1.00
H171   H     0.89136   0.29369   0.03659   0.00000  Uiso   1.00
H172   H     0.94850   0.25939   0.39944   0.00000  Uiso   1.00
H173   H     0.93289   0.27652   0.09337   0.00000  Uiso   1.00
H174   H     0.87690   0.27412   0.13838   0.00000  Uiso   1.00
H175   H     0.93419   0.22984   0.13518   0.00000  Uiso   1.00
H176   H     0.78492   0.04279   0.38861   0.00000  Uiso   1.00
H177   H     0.72157   0.07774   0.40377   0.00000  Uiso   1.00
H178   H     0.76047   0.08781   0.35113   0.00000  Uiso   1.00
H179   H     0.92098   0.05231   0.45169   0.00000  Uiso   1.00
H180   H     0.74621   0.28171   0.04846   0.00000  Uiso   1.00
H181   H     0.96483   0.06353   0.30900   0.00000  Uiso   1.00
H182   H     0.77093   0.04171   0.46395   0.00000  Uiso   1.00
H183   H     0.72449   0.27714   0.35037   0.00000  Uiso   1.00
H184   H     0.67099   0.12680   0.21700   0.00000  Uiso   1.00
H185   H     0.99568   0.20651   0.28303   0.00000  Uiso   1.00
H186   H     0.71891   0.12718   0.13812   0.00000  Uiso   1.00
H187   H     0.71830   0.07542   0.09967   0.00000  Uiso   1.00
H188   H     0.76321   0.07300   0.14630   0.00000  Uiso   1.00
H189   H     0.94774   0.20776   0.36089   0.00000  Uiso   1.00
H190   H     0.90259   0.26145   0.35340   0.00000  Uiso   1.00
N191   N     0.98344   0.15265   0.23783   0.00000  Uiso   1.00
N192   N     0.68322   0.18068   0.26217   0.00000  Uiso   1.00
O193   O     0.79642   0.24619   0.25298   0.00000  Uiso   1.00
O194   O     0.92054   0.01812   0.46912   0.00000  Uiso   1.00
O195   O     0.81015   0.01455   0.08035   0.00000  Uiso   1.00
O196   O     0.74666   0.31597   0.03113   0.00000  Uiso   1.00
O197   O     0.95879   0.33032   0.25004   0.00000  Uiso   1.00
O198   O     0.92566   0.04310   0.31093   0.00000  Uiso   1.00
O199   O     0.71455   0.01428   0.29946   0.00000  Uiso   1.00
O200   O     0.76284   0.28692   0.33297   0.00000  Uiso   1.00
O201   O     0.87025   0.08714   0.24701   0.00000  Uiso   1.00
O202   O     0.89280   0.23721   0.24518   0.00000  Uiso   1.00
O203   O     0.77387   0.09613   0.25481   0.00000  Uiso   1.00
O204   O     0.78514   0.17117   0.31997   0.00000  Uiso   1.00
O205   O     0.88153   0.16216   0.18002   0.00000  Uiso   1.00
O206   O     0.88152   0.16219   0.31217   0.00000  Uiso   1.00
O207   O     0.78515   0.17115   0.18782   0.00000  Uiso   1.00
O208   O     0.85747   0.31918   0.41975   0.00000  Uiso   1.00
Zn209  Zn    0.76898   0.17266   0.25521   0.00000  Uiso   1.00
Zn210  Zn    0.89769   0.16067   0.24479   0.00000  Uiso   1.00
C211   C     0.18248   0.59818   0.25419   0.00000  Uiso   1.00
C212   C     0.20309   0.53787   0.40507   0.00000  Uiso   1.00
C213   C     0.16495   0.50249   0.11587   0.00000  Uiso   1.00
C214   C     0.16885   0.49817   0.38417   0.00000  Uiso   1.00
C215   C     0.19887   0.54264   0.09145   0.00000  Uiso   1.00
C216   C     0.13632   0.45744   0.40889   0.00000  Uiso   1.00
C217   C     0.19441   0.54454   0.04507   0.00000  Uiso   1.00
C218   C     0.14085   0.45591   0.45518   0.00000  Uiso   1.00
C219   C     0.16788   0.50032   0.02343   0.00000  Uiso   1.00
C220   C     0.16779   0.49995   0.47669   0.00000  Uiso   1.00
C221   C     0.14096   0.45668   0.04849   0.00000  Uiso   1.00
C222   C     0.15164   0.40190   0.25765   0.00000  Uiso   1.00
C223   C     0.19415   0.54375   0.45158   0.00000  Uiso   1.00
C224   C     0.21293   0.59023   0.02018   0.00000  Uiso   1.00
C225   C     0.12017   0.41081   0.48021   0.00000  Uiso   1.00
C226   C     0.08062   0.43238   0.12110   0.00000  Uiso   1.00
C227   C     0.25264   0.56889   0.37831   0.00000  Uiso   1.00
C228   C     0.23725   0.58326   0.11561   0.00000  Uiso   1.00
C229   C     0.09903   0.41443   0.38671   0.00000  Uiso   1.00
C230   C     0.21780   0.64408   0.45200   0.00000  Uiso   1.00
C231   C     0.11630   0.35653   0.04821   0.00000  Uiso   1.00
C232   C     0.25127   0.34100   0.27551   0.00000  Uiso   1.00
C233   C     0.21068   0.59126   0.47404   0.00000  Uiso   1.00
C234   C     0.09306   0.66077   0.30194   0.00000  Uiso   1.00
C235   C     0.12361   0.40939   0.02616   0.00000  Uiso   1.00
C236   C     0.19190   0.65229   0.26781   0.00000  Uiso   1.00
C237   C     0.14566   0.34783   0.27407   0.00000  Uiso   1.00
C238   C     0.16737   0.49958   0.33641   0.00000  Uiso   1.00
C239   C     0.16611   0.50089   0.16363   0.00000  Uiso   1.00
C240   C     0.13092   0.46294   0.09480   0.00000  Uiso   1.00
H241   H     0.22469   0.62702   0.03659   0.00000  Uiso   1.00
H242   H     0.28183   0.59273   0.39944   0.00000  Uiso   1.00
H243   H     0.26623   0.60986   0.09337   0.00000  Uiso   1.00
H244   H     0.21023   0.60746   0.13838   0.00000  Uiso   1.00
H245   H     0.26752   0.56317   0.13518   0.00000  Uiso   1.00
H246   H     0.11826   0.37612   0.38861   0.00000  Uiso   1.00
H247   H     0.05490   0.41107   0.40377   0.00000  Uiso   1.00
H248   H     0.09380   0.42115   0.35113   0.00000  Uiso   1.00
H249   H     0.25431   0.38564   0.45169   0.00000  Uiso   1.00
H250   H     0.07955   0.61505   0.04846   0.00000  Uiso   1.00
H251   H     0.29816   0.39687   0.30900   0.00000  Uiso   1.00
H252   H     0.10427   0.37505   0.46395   0.00000  Uiso   1.00
H253   H     0.05783   0.61047   0.35037   0.00000  Uiso   1.00
H254   H     0.00432   0.46014   0.21700   0.00000  Uiso   1.00
H255   H     0.32901   0.53984   0.28303   0.00000  Uiso   1.00
H256   H     0.05224   0.46051   0.13812   0.00000  Uiso   1.00
H257   H     0.05163   0.40876   0.09967   0.00000  Uiso   1.00
H258   H     0.09654   0.40633   0.14630   0.00000  Uiso   1.00
H259   H     0.28107   0.54109   0.36089   0.00000  Uiso   1.00
H260   H     0.23592   0.59479   0.35340   0.00000  Uiso   1.00
N261   N     0.31678   0.48598   0.23783   0.00000  Uiso   1.00
N262   N     0.01656   0.51402   0.26217   0.00000  Uiso   1.00
O263   O     0.12975   0.57952   0.25298   0.00000  Uiso   1.00
O264   O     0.25387   0.35146   0.46912   0.00000  Uiso   1.00
O265   O     0.14349   0.34789   0.08035   0.00000  Uiso   1.00
O266   O     0.08000   0.64930   0.03113   0.00000  Uiso   1.00
O267   O     0.29213   0.66365   0.25004   0.00000  Uiso   1.00
O268   O     0.25899   0.37644   0.31093   0.00000  Uiso   1.00
O269   O     0.04788   0.34761   0.29946   0.00000  Uiso   1.00
O270   O     0.09618   0.62026   0.33297   0.00000  Uiso   1.00
O271   O     0.20358   0.42048   0.24701   0.00000  Uiso   1.00
O272   O     0.22613   0.57054   0.24518   0.00000  Uiso   1.00
O273   O     0.10720   0.42946   0.25481   0.00000  Uiso   1.00
O274   O     0.11847   0.50450   0.31997   0.00000  Uiso   1.00
O275   O     0.21486   0.49550   0.18002   0.00000  Uiso   1.00
O276   O     0.21485   0.49552   0.31217   0.00000  Uiso   1.00
O277   O     0.11848   0.50448   0.18782   0.00000  Uiso   1.00
O278   O     0.19080   0.65251   0.41975   0.00000  Uiso   1.00
Zn279  Zn    0.10231   0.50600   0.25521   0.00000  Uiso   1.00
Zn280  Zn    0.23102   0.49400   0.24479   0.00000  Uiso   1.00
C281   C     0.51582   0.59818   0.25419   0.00000  Uiso   1.00
C282   C     0.53642   0.53787   0.40507   0.00000  Uiso   1.00
C283   C     0.49829   0.50249   0.11587   0.00000  Uiso   1.00
C284   C     0.50218   0.49817   0.38417   0.00000  Uiso   1.00
C285   C     0.53220   0.54264   0.09145   0.00000  Uiso   1.00
C286   C     0.46965   0.45744   0.40889   0.00000  Uiso   1.00
C287   C     0.52774   0.54454   0.04507   0.00000  Uiso   1.00
C288   C     0.47418   0.45591   0.45518   0.00000  Uiso   1.00
C289   C     0.50122   0.50032   0.02343   0.00000  Uiso   1.00
C290   C     0.50113   0.49995   0.47669   0.00000  Uiso   1.00
C291   C     0.47429   0.45668   0.04849   0.00000  Uiso   1.00
C292   C     0.48497   0.40190   0.25765   0.00000  Uiso   1.00
C293   C     0.52748   0.54375   0.45158   0.00000  Uiso   1.00
C294   C     0.54626   0.59023   0.02018   0.00000  Uiso   1.00
C295   C     0.45350   0.41081   0.48021   0.00000  Uiso   1.00
C296   C     0.41396   0.43238   0.12110   0.00000  Uiso   1.00
C297   C     0.58597   0.56889   0.37831   0.00000  Uiso   1.00
C298   C     0.57058   0.58326   0.11561   0.00000  Uiso   1.00
C299   C     0.43236   0.41443   0.38671   0.00000  Uiso   1.00
C300   C     0.55113   0.64408   0.45200   0.00000  Uiso   1.00
C301   C     0.44964   0.35653   0.04821   0.00000  Uiso   1.00
C302   C     0.58461   0.34100   0.27551   0.00000  Uiso   1.00
C303   C     0.54401   0.59126   0.47404   0.00000  Uiso   1.00
C304   C     0.42640   0.66077   0.30194   0.00000  Uiso   1.00
C305   C     0.45694   0.40939   0.02616   0.00000  Uiso   1.00
C306   C     0.52523   0.65229   0.26781   0.00000  Uiso   1.00
C307   C     0.47899   0.34783   0.27407   0.00000  Uiso   1.00
C308   C     0.50071   0.49958   0.33641   0.00000  Uiso   1.00
C309   C     0.49944   0.50089   0.16363   0.00000  Uiso   1.00
C310   C     0.46425   0.46294   0.09480   0.00000  Uiso   1.00
H311   H     0.55802   0.62702   0.03659   0.00000  Uiso   1.00
H312   H     0.61517   0.59273   0.39944   0.00000  Uiso   1.00
H313   H     0.59956   0.60986   0.09337   0.00000  Uiso   1.00
H314   H     0.54356   0.60746   0.13838   0.00000  Uiso   1.00
H315   H     0.60086   0.56317   0.13518   0.00000  Uiso   1.00
H316   H     0.45159   0.37612   0.38861   0.00000  Uiso   1.00
H317   H     0.38824   0.41107   0.40377   0.00000  Uiso   1.00
H318   H     0.42713   0.42115   0.35113   0.00000  Uiso   1.00
H319   H     0.58765   0.38564   0.45169   0.00000  Uiso   1.00
H320   H     0.41288   0.61505   0.04846   0.00000  Uiso   1.00
H321   H     0.63150   0.39687   0.30900   0.00000  Uiso   1.00
H322   H     0.43760   0.37505   0.46395   0.00000  Uiso   1.00
H323   H     0.39116   0.61047   0.35037   0.00000  Uiso   1.00
H324   H     0.33766   0.46014   0.21700   0.00000  Uiso   1.00
H325   H     0.66235   0.53984   0.28303   0.00000  Uiso   1.00
H326   H     0.38558   0.46051   0.13812   0.00000  Uiso   1.00
H327   H     0.38497   0.40876   0.09967   0.00000  Uiso   1.00
H328   H     0.42987   0.40633   0.14630   0.00000  Uiso   1.00
H329   H     0.61440   0.54109   0.36089   0.00000  Uiso   1.00
H330   H     0.56925   0.59479   0.35340   0.00000  Uiso   1.00
N331   N     0.65011   0.48598   0.23783   0.00000  Uiso   1.00
N332   N     0.34989   0.51402   0.26217   0.00000  Uiso   1.00
O333   O     0.46308   0.57952   0.25298   0.00000  Uiso   1.00
O334   O     0.58720   0.35146   0.46912   0.00000  Uiso   1.00
O335   O     0.47682   0.34789   0.08035   0.00000  Uiso   1.00
O336   O     0.41333   0.64930   0.03113   0.00000  Uiso   1.00
O337   O     0.62546   0.66365   0.25004   0.00000  Uiso   1.00
O338   O     0.59233   0.37644   0.31093   0.00000  Uiso   1.00
O339   O     0.38122   0.34761   0.29946   0.00000  Uiso   1.00
O340   O     0.42951   0.62026   0.33297   0.00000  Uiso   1.00
O341   O     0.53692   0.42048   0.24701   0.00000  Uiso   1.00
O342   O     0.55946   0.57054   0.24518   0.00000  Uiso   1.00
O343   O     0.44054   0.42946   0.25481   0.00000  Uiso   1.00
O344   O     0.45181   0.50450   0.31997   0.00000  Uiso   1.00
O345   O     0.54819   0.49550   0.18002   0.00000  Uiso   1.00
O346   O     0.54819   0.49552   0.31217   0.00000  Uiso   1.00
O347   O     0.45181   0.50448   0.18782   0.00000  Uiso   1.00
O348   O     0.52413   0.65251   0.41975   0.00000  Uiso   1.00
Zn349  Zn    0.43565   0.50600   0.25521   0.00000  Uiso   1.00
Zn350  Zn    0.56435   0.49400   0.24479   0.00000  Uiso   1.00
C351   C     0.84915   0.59818   0.25419   0.00000  Uiso   1.00
C352   C     0.86975   0.53787   0.40507   0.00000  Uiso   1.00
C353   C     0.83162   0.50249   0.11587   0.00000  Uiso   1.00
C354   C     0.83552   0.49817   0.38417   0.00000  Uiso   1.00
C355   C     0.86553   0.54264   0.09145   0.00000  Uiso   1.00
C356   C     0.80299   0.45744   0.40889   0.00000  Uiso   1.00
C357   C     0.86108   0.54454   0.04507   0.00000  Uiso   1.00
C358   C     0.80752   0.45591   0.45518   0.00000  Uiso   1.00
C359   C     0.83455   0.50032   0.02343   0.00000  Uiso   1.00
C360   C     0.83446   0.49995   0.47669   0.00000  Uiso   1.00
C361   C     0.80763   0.45668   0.04849   0.00000  Uiso   1.00
C362   C     0.81831   0.40190   0.25765   0.00000  Uiso   1.00
C363   C     0.86082   0.54375   0.45158   0.00000  Uiso   1.00
C364   C     0.87959   0.59023   0.02018   0.00000  Uiso   1.00
C365   C     0.78684   0.41081   0.48021   0.00000  Uiso   1.00
C366   C     0.74729   0.43238   0.12110   0.00000  Uiso   1.00
C367   C     0.91931   0.56889   0.37831   0.00000  Uiso   1.00
C368   C     0.90392   0.58326   0.11561   0.00000  Uiso   1.00
C369   C     0.76570   0.41443   0.38671   0.00000  Uiso   1.00
C370   C     0.88446   0.64408   0.45200   0.00000  Uiso   1.00
C371   C     0.78297   0.35653   0.04821   0.00000  Uiso   1.00
C372   C     0.91794   0.34100   0.27551   0.00000  Uiso   1.00
C373   C     0.87734   0.59126   0.47404   0.00000  Uiso   1.00
C374   C     0.75973   0.66077   0.30194   0.00000  Uiso   1.00
C375   C     0.79027   0.40939   0.02616   0.00000  Uiso   1.00
C376   C     0.85856   0.65229   0.26781   0.00000  Uiso   1.00
C377   C     0.81233   0.34783   0.27407   0.00000  Uiso   1.00
C378   C     0.83404   0.49958   0.33641   0.00000  Uiso   1.00
C379   C     0.83277   0.50089   0.16363   0.00000  Uiso   1.00
C380   C     0.79759   0.46294   0.09480   0.00000  Uiso   1.00
H381   H     0.89136   0.62702   0.03659   0.00000  Uiso   1.00
H382   H     0.94850   0.59273   0.39944   0.00000  Uiso   1.00
H383   H     0.93289   0.60986   0.09337   0.00000  Uiso   1.00
H384   H     0.87690   0.60746   0.13838   0.00000  Uiso   1.00
H385   H     0.93419   0.56317   0.13518   0.00000  Uiso   1.00
H386   H     0.78492   0.37612   0.38861   0.00000  Uiso   1.00
H387   H     0.72157   0.41107   0.40377   0.00000  Uiso   1.00
H388   H     0.76047   0.42115   0.35113   0.00000  Uiso   1.00
H389   H     0.92098   0.38564   0.45169   0.00000  Uiso   1.00
H390   H     0.74621   0.61505   0.04846   0.00000  Uiso   1.00
H391   H     0.96483   0.39687   0.30900   0.00000  Uiso   1.00
H392   H     0.77093   0.37505   0.46395   0.00000  Uiso   1.00
H393   H     0.72449   0.61047   0.35037   0.00000  Uiso   1.00
H394   H     0.67099   0.46014   0.21700   0.00000  Uiso   1.00
H395   H     0.99568   0.53984   0.28303   0.00000  Uiso   1.00
H396   H     0.71891   0.46051   0.13812   0.00000  Uiso   1.00
H397   H     0.71830   0.40876   0.09967   0.00000  Uiso   1.00
H398   H     0.76321   0.40633   0.14630   0.00000  Uiso   1.00
H399   H     0.94774   0.54109   0.36089   0.00000  Uiso   1.00
H400   H     0.90259   0.59479   0.35340   0.00000  Uiso   1.00
N401   N     0.98344   0.48598   0.23783   0.00000  Uiso   1.00
N402   N     0.68322   0.51402   0.26217   0.00000  Uiso   1.00
O403   O     0.79642   0.57952   0.25298   0.00000  Uiso   1.00
O404   O     0.92054   0.35146   0.46912   0.00000  Uiso   1.00
O405   O     0.81015   0.34789   0.08035   0.00000  Uiso   1.00
O406   O     0.74666   0.64930   0.03113   0.00000  Uiso   1.00
O407   O     0.95879   0.66365   0.25004   0.00000  Uiso   1.00
O408   O     0.92566   0.37644   0.31093   0.00000  Uiso   1.00
O409   O     0.71455   0.34761   0.29946   0.00000  Uiso   1.00
O410   O     0.76284   0.62026   0.33297   0.00000  Uiso   1.00
O411   O     0.87025   0.42048   0.24701   0.00000  Uiso   1.00
O412   O     0.89280   0.57054   0.24518   0.00000  Uiso   1.00
O413   O     0.77387   0.42946   0.25481   0.00000  Uiso   1.00
O414   O     0.78514   0.50450   0.31997   0.00000  Uiso   1.00
O415   O     0.88153   0.49550   0.18002   0.00000  Uiso   1.00
O416   O     0.88152   0.49552   0.31217   0.00000  Uiso   1.00
O417   O     0.78515   0.50448   0.18782   0.00000  Uiso   1.00
O418   O     0.85747   0.65251   0.41975   0.00000  Uiso   1.00
Zn419  Zn    0.76898   0.50600   0.25521   0.00000  Uiso   1.00
Zn420  Zn    0.89769   0.49400   0.24479   0.00000  Uiso   1.00
C421   C     0.18248   0.93151   0.25419   0.00000  Uiso   1.00
C422   C     0.20309   0.87121   0.40507   0.00000  Uiso   1.00
C423   C     0.16495   0.83582   0.11587   0.00000  Uiso   1.00
C424   C     0.16885   0.83150   0.38417   0.00000  Uiso   1.00
C425   C     0.19887   0.87597   0.09145   0.00000  Uiso   1.00
C426   C     0.13632   0.79077   0.40889   0.00000  Uiso   1.00
C427   C     0.19441   0.87787   0.04507   0.00000  Uiso   1.00
C428   C     0.14085   0.78924   0.45518   0.00000  Uiso   1.00
C429   C     0.16788   0.83365   0.02343   0.00000  Uiso   1.00
C430   C     0.16779   0.83329   0.47669   0.00000  Uiso   1.00
C431   C     0.14096   0.79002   0.04849   0.00000  Uiso   1.00
C432   C     0.15164   0.73524   0.25765   0.00000  Uiso   1.00
C433   C     0.19415   0.87708   0.45158   0.00000  Uiso   1.00
C434   C     0.21293   0.92356   0.02018   0.00000  Uiso   1.00
C435   C     0.12017   0.74415   0.48021   0.00000  Uiso   1.00
C436   C     0.08062   0.76572   0.12110   0.00000  Uiso   1.00
C437   C     0.25264   0.90222   0.37831   0.00000  Uiso   1.00
C438   C     0.23725   0.91659   0.11561   0.00000  Uiso   1.00
C439   C     0.09903   0.74776   0.38671   0.00000  Uiso   1.00
C440   C     0.21780   0.97741   0.45200   0.00000  Uiso   1.00
C441   C     0.11630   0.68986   0.04821   0.00000  Uiso   1.00
C442   C     0.25127   0.67433   0.27551   0.00000  Uiso   1.00
C443   C     0.21068   0.92460   0.47404   0.00000  Uiso   1.00
C444   C     0.09306   0.99410   0.30194   0.00000  Uiso   1.00
C445   C     0.12361   0.74272   0.02616   0.00000  Uiso   1.00
C446   C     0.19190   0.98562   0.26781   0.00000  Uiso   1.00
C447   C     0.14566   0.68116   0.27407   0.00000  Uiso   1.00
C448   C     0.16737   0.83291   0.33641   0.00000  Uiso   1.00
C449   C     0.16611   0.83422   0.16363   0.00000  Uiso   1.00
C450   C     0.13092   0.79627   0.09480   0.00000  Uiso   1.00
H451   H     0.22469   0.96035   0.03659   0.00000  Uiso   1.00
H452   H     0.28183   0.92606   0.39944   0.00000  Uiso   1.00
H453   H     0.26623   0.94319   0.09337   0.00000  Uiso   1.00
H454   H     0.21023   0.94079   0.13838   0.00000  Uiso   1.00
H455   H     0.26752   0.89651   0.13518   0.00000  Uiso   1.00
H456   H     0.11826   0.70946   0.38861   0.00000  Uiso   1.00
H457   H     0.05490   0.74441   0.40377   0.00000  Uiso   1.00
H458   H     0.09380   0.75448   0.35113   0.00000  Uiso   1.00
H459   H     0.25431   0.71897   0.45169   0.00000  Uiso   1.00
H460   H     0.07955   0.94838   0.04846   0.00000  Uiso   1.00
H461   H     0.29816   0.73020   0.30900   0.00000  Uiso   1.00
H462   H     0.10427   0.70838   0.46395   0.00000  Uiso   1.00
H463   H     0.05783   0.94381   0.35037   0.00000  Uiso   1.00
H464   H     0.00432   0.79347   0.21700   0.00000  Uiso   1.00
H465   H     0.32901   0.87318   0.28303   0.00000  Uiso   1.00
H466   H     0.05224   0.79385   0.13812   0.00000  Uiso   1.00
H467   H     0.05163   0.74209   0.09967   0.00000  Uiso   1.00
H468   H     0.09654   0.73967   0.14630   0.00000  Uiso   1.00
H469   H     0.28107   0.87443   0.36089   0.00000  Uiso   1.00
H470   H     0.23592   0.92812   0.35340   0.00000  Uiso   1.00
N471   N     0.31678   0.81932   0.23783   0.00000  Uiso   1.00
N472   N     0.01656   0.84735   0.26217   0.00000  Uiso   1.00
O473   O     0.12975   0.91286   0.25298   0.00000  Uiso   1.00
O474   O     0.25387   0.68479   0.46912   0.00000  Uiso   1.00
O475   O     0.14349   0.68122   0.08035   0.00000  Uiso   1.00
O476   O     0.08000   0.98263   0.03113   0.00000  Uiso   1.00
O477   O     0.29213   0.99698   0.25004   0.00000  Uiso   1.00
O478   O     0.25899   0.70977   0.31093   0.00000  Uiso   1.00
O479   O     0.04788   0.68094   0.29946   0.00000  Uiso   1.00
O480   O     0.09618   0.95359   0.33297   0.00000  Uiso   1.00
O481   O     0.20358   0.75381   0.24701   0.00000  Uiso   1.00
O482   O     0.22613   0.90387   0.24518   0.00000  Uiso   1.00
O483   O     0.10720   0.76279   0.25481   0.00000  Uiso   1.00
O484   O     0.11847   0.83784   0.31997   0.00000  Uiso   1.00
O485   O     0.21486   0.82883   0.18002   0.00000  Uiso   1.00
O486   O     0.21485   0.82885   0.31217   0.00000  Uiso   1.00
O487   O     0.11848   0.83781   0.18782   0.00000  Uiso   1.00
O488   O     0.19080   0.98584   0.41975   0.00000  Uiso   1.00
Zn489  Zn    0.10231   0.83933   0.25521   0.00000  Uiso   1.00
Zn490  Zn    0.23102   0.82734   0.24479   0.00000  Uiso   1.00
C491   C     0.51582   0.93151   0.25419   0.00000  Uiso   1.00
C492   C     0.53642   0.87121   0.40507   0.00000  Uiso   1.00
C493   C     0.49829   0.83582   0.11587   0.00000  Uiso   1.00
C494   C     0.50218   0.83150   0.38417   0.00000  Uiso   1.00
C495   C     0.53220   0.87597   0.09145   0.00000  Uiso   1.00
C496   C     0.46965   0.79077   0.40889   0.00000  Uiso   1.00
C497   C     0.52774   0.87787   0.04507   0.00000  Uiso   1.00
C498   C     0.47418   0.78924   0.45518   0.00000  Uiso   1.00
C499   C     0.50122   0.83365   0.02343   0.00000  Uiso   1.00
C500   C     0.50113   0.83329   0.47669   0.00000  Uiso   1.00
C501   C     0.47429   0.79002   0.04849   0.00000  Uiso   1.00
C502   C     0.48497   0.73524   0.25765   0.00000  Uiso   1.00
C503   C     0.52748   0.87708   0.45158   0.00000  Uiso   1.00
C504   C     0.54626   0.92356   0.02018   0.00000  Uiso   1.00
C505   C     0.45350   0.74415   0.48021   0.00000  Uiso   1.00
C506   C     0.41396   0.76572   0.12110   0.00000  Uiso   1.00
C507   C     0.58597   0.90222   0.37831   0.00000  Uiso   1.00
C508   C     0.57058   0.91659   0.11561   0.00000  Uiso   1.00
C509   C     0.43236   0.74776   0.38671   0.00000  Uiso   1.00
C510   C     0.55113   0.97741   0.45200   0.00000  Uiso   1.00
C511   C     0.44964   0.68986   0.04821   0.00000  Uiso   1.00
C512   C     0.58461   0.67433   0.27551   0.00000  Uiso   1.00
C513   C     0.54401   0.92460   0.47404   0.00000  Uiso   1.00
C514   C     0.42640   0.99410   0.30194   0.00000  Uiso   1.00
C515   C     0.45694   0.74272   0.02616   0.00000  Uiso   1.00
C516   C     0.52523   0.98562   0.26781   0.00000  Uiso   1.00
C517   C     0.47899   0.68116   0.27407   0.00000  Uiso   1.00
C518   C     0.50071   0.83291   0.33641   0.00000  Uiso   1.00
C519   C     0.49944   0.83422   0.16363   0.00000  Uiso   1.00
C520   C     0.46425   0.79627   0.09480   0.00000  Uiso   1.00
H521   H     0.55802   0.96035   0.03659   0.00000  Uiso   1.00
H522   H     0.61517   0.92606   0.39944   0.00000  Uiso   1.00
H523   H     0.59956   0.94319   0.09337   0.00000  Uiso   1.00
H524   H     0.54356   0.94079   0.13838   0.00000  Uiso   1.00
H525   H     0.60086   0.89651   0.13518   0.00000  Uiso   1.00
H526   H     0.45159   0.70946   0.38861   0.00000  Uiso   1.00
H527   H     0.38824   0.74441   0.40377   0.00000  Uiso   1.00
H528   H     0.42713   0.75448   0.35113   0.00000  Uiso   1.00
H529   H     0.58765   0.71897   0.45169   0.00000  Uiso   1.00
H530   H     0.41288   0.94838   0.04846   0.00000  Uiso   1.00
H531   H     0.63150   0.73020   0.30900   0.00000  Uiso   1.00
H532   H     0.43760   0.70838   0.46395   0.00000  Uiso   1.00
H533   H     0.39116   0.94381   0.35037   0.00000  Uiso   1.00
H534   H     0.33766   0.79347   0.21700   0.00000  Uiso   1.00
H535   H     0.66235   0.87318   0.28303   0.00000  Uiso   1.00
H536   H     0.38558   0.79385   0.13812   0.00000  Uiso   1.00
H537   H     0.38497   0.74209   0.09967   0.00000  Uiso   1.00
H538   H     0.42987   0.73967   0.14630   0.00000  Uiso   1.00
H539   H     0.61440   0.87443   0.36089   0.00000  Uiso   1.00
H540   H     0.56925   0.92812   0.35340   0.00000  Uiso   1.00
N541   N     0.65011   0.81932   0.23783   0.00000  Uiso   1.00
N542   N     0.34989   0.84735   0.26217   0.00000  Uiso   1.00
O543   O     0.46308   0.91286   0.25298   0.00000  Uiso   1.00
O544   O     0.58720   0.68479   0.46912   0.00000  Uiso   1.00
O545   O     0.47682   0.68122   0.08035   0.00000  Uiso   1.00
O546   O     0.41333   0.98263   0.03113   0.00000  Uiso   1.00
O547   O     0.62546   0.99698   0.25004   0.00000  Uiso   1.00
O548   O     0.59233   0.70977   0.31093   0.00000  Uiso   1.00
O549   O     0.38122   0.68094   0.29946   0.00000  Uiso   1.00
O550   O     0.42951   0.95359   0.33297   0.00000  Uiso   1.00
O551   O     0.53692   0.75381   0.24701   0.00000  Uiso   1.00
O552   O     0.55946   0.90387   0.24518   0.00000  Uiso   1.00
O553   O     0.44054   0.76279   0.25481   0.00000  Uiso   1.00
O554   O     0.45181   0.83784   0.31997   0.00000  Uiso   1.00
O555   O     0.54819   0.82883   0.18002   0.00000  Uiso   1.00
O556   O     0.54819   0.82885   0.31217   0.00000  Uiso   1.00
O557   O     0.45181   0.83781   0.18782   0.00000  Uiso   1.00
O558   O     0.52413   0.98584   0.41975   0.00000  Uiso   1.00
Zn559  Zn    0.43565   0.83933   0.25521   0.00000  Uiso   1.00
Zn560  Zn    0.56435   0.82734   0.24479   0.00000  Uiso   1.00
C561   C     0.84915   0.93151   0.25419   0.00000  Uiso   1.00
C562   C     0.86975   0.87121   0.40507   0.00000  Uiso   1.00
C563   C     0.83162   0.83582   0.11587   0.00000  Uiso   1.00
C564   C     0.83552   0.83150   0.38417   0.00000  Uiso   1.00
C565   C     0.86553   0.87597   0.09145   0.00000  Uiso   1.00
C566   C     0.80299   0.79077   0.40889   0.00000  Uiso   1.00
C567   C     0.86108   0.87787   0.04507   0.00000  Uiso   1.00
C568   C     0.80752   0.78924   0.45518   0.00000  Uiso   1.00
C569   C     0.83455   0.83365   0.02343   0.00000  Uiso   1.00
C570   C     0.83446   0.83329   0.47669   0.00000  Uiso   1.00
C571   C     0.80763   0.79002   0.04849   0.00000  Uiso   1.00
C572   C     0.81831   0.73524   0.25765   0.00000  Uiso   1.00
C573   C     0.86082   0.87708   0.45158   0.00000  Uiso   1.00
C574   C     0.87959   0.92356   0.02018   0.00000  Uiso   1.00
C575   C     0.78684   0.74415   0.48021   0.00000  Uiso   1.00
C576   C     0.74729   0.76572   0.12110   0.00000  Uiso   1.00
C577   C     0.91931   0.90222   0.37831   0.00000  Uiso   1.00
C578   C     0.90392   0.91659   0.11561   0.00000  Uiso   1.00
C579   C     0.76570   0.74776   0.38671   0.00000  Uiso   1.00
C580   C     0.88446   0.97741   0.45200   0.00000  Uiso   1.00
C581   C     0.78297   0.68986   0.04821   0.00000  Uiso   1.00
C582   C     0.91794   0.67433   0.27551   0.00000  Uiso   1.00
C583   C     0.87734   0.92460   0.47404   0.00000  Uiso   1.00
C584   C     0.75973   0.99410   0.30194   0.00000  Uiso   1.00
C585   C     0.79027   0.74272   0.02616   0.00000  Uiso   1.00
C586   C     0.85856   0.98562   0.26781   0.00000  Uiso   1.00
C587   C     0.81233   0.68116   0.27407   0.00000  Uiso   1.00
C588   C     0.83404   0.83291   0.33641   0.00000  Uiso   1.00
C589   C     0.83277   0.83422   0.16363   0.00000  Uiso   1.00
C590   C     0.79759   0.79627   0.09480   0.00000  Uiso   1.00
H591   H     0.89136   0.96035   0.03659   0.00000  Uiso   1.00
H592   H     0.94850   0.92606   0.39944   0.00000  Uiso   1.00
H593   H     0.93289   0.94319   0.09337   0.00000  Uiso   1.00
H594   H     0.87690   0.94079   0.13838   0.00000  Uiso   1.00
H595   H     0.93419   0.89651   0.13518   0.00000  Uiso   1.00
H596   H     0.78492   0.70946   0.38861   0.00000  Uiso   1.00
H597   H     0.72157   0.74441   0.40377   0.00000  Uiso   1.00
H598   H     0.76047   0.75448   0.35113   0.00000  Uiso   1.00
H599   H     0.92098   0.71897   0.45169   0.00000  Uiso   1.00
H600   H     0.74621   0.94838   0.04846   0.00000  Uiso   1.00
H601   H     0.96483   0.73020   0.30900   0.00000  Uiso   1.00
H602   H     0.77093   0.70838   0.46395   0.00000  Uiso   1.00
H603   H     0.72449   0.94381   0.35037   0.00000  Uiso   1.00
H604   H     0.67099   0.79347   0.21700   0.00000  Uiso   1.00
H605   H     0.99568   0.87318   0.28303   0.00000  Uiso   1.00
H606   H     0.71891   0.79385   0.13812   0.00000  Uiso   1.00
H607   H     0.71830   0.74209   0.09967   0.00000  Uiso   1.00
H608   H     0.76321   0.73967   0.14630   0.00000  Uiso   1.00
H609   H     0.94774   0.87443   0.36089   0.00000  Uiso   1.00
H610   H     0.90259   0.92812   0.35340   0.00000  Uiso   1.00
N611   N     0.98344   0.81932   0.23783   0.00000  Uiso   1.00
N612   N     0.68322   0.84735   0.26217   0.00000  Uiso   1.00
O613   O     0.79642   0.91286   0.25298   0.00000  Uiso   1.00
O614   O     0.92054   0.68479   0.46912   0.00000  Uiso   1.00
O615   O     0.81015   0.68122   0.08035   0.00000  Uiso   1.00
O616   O     0.74666   0.98263   0.03113   0.00000  Uiso   1.00
O617   O     0.95879   0.99698   0.25004   0.00000  Uiso   1.00
O618   O     0.92566   0.70977   0.31093   0.00000  Uiso   1.00
O619   O     0.71455   0.68094   0.29946   0.00000  Uiso   1.00
O620   O     0.76284   0.95359   0.33297   0.00000  Uiso   1.00
O621   O     0.87025   0.75381   0.24701   0.00000  Uiso   1.00
O622   O     0.89280   0.90387   0.24518   0.00000  Uiso   1.00
O623   O     0.77387   0.76279   0.25481   0.00000  Uiso   1.00
O624   O     0.78514   0.83784   0.31997   0.00000  Uiso   1.00
O625   O     0.88153   0.82883   0.18002   0.00000  Uiso   1.00
O626   O     0.88152   0.82885   0.31217   0.00000  Uiso   1.00
O627   O     0.78515   0.83781   0.18782   0.00000  Uiso   1.00
O628   O     0.85747   0.98584   0.41975   0.00000  Uiso   1.00
Zn629  Zn    0.76898   0.83933   0.25521   0.00000  Uiso   1.00
Zn630  Zn    0.89769   0.82734   0.24479   0.00000  Uiso   1.00
C631   C     0.18248   0.26484   0.75419   0.00000  Uiso   1.00
C632   C     0.20309   0.20454   0.90507   0.00000  Uiso   1.00
C633   C     0.16495   0.16916   0.61587   0.00000  Uiso   1.00
C634   C     0.16885   0.16483   0.88417   0.00000  Uiso   1.00
C635   C     0.19887   0.20931   0.59145   0.00000  Uiso   1.00
C636   C     0.13632   0.12410   0.90889   0.00000  Uiso   1.00
C637   C     0.19441   0.21121   0.54507   0.00000  Uiso   1.00
C638   C     0.14085   0.12258   0.95518   0.00000  Uiso   1.00
C639   C     0.16788   0.16699   0.52343   0.00000  Uiso   1.00
C640   C     0.16779   0.16662   0.97669   0.00000  Uiso   1.00
C641   C     0.14096   0.12335   0.54849   0.00000  Uiso   1.00
C642   C     0.15164   0.06857   0.75765   0.00000  Uiso   1.00
C643   C     0.19415   0.21042   0.95158   0.00000  Uiso   1.00
C644   C     0.21293   0.25690   0.52018   0.00000  Uiso   1.00
C645   C     0.12017   0.07748   0.98021   0.00000  Uiso   1.00
C646   C     0.08062   0.09905   0.62110   0.00000  Uiso   1.00
C647   C     0.25264   0.23556   0.87831   0.00000  Uiso   1.00
C648   C     0.23725   0.24992   0.61561   0.00000  Uiso   1.00
C649   C     0.09903   0.08110   0.88671   0.00000  Uiso   1.00
C650   C     0.21780   0.31074   0.95200   0.00000  Uiso   1.00
C651   C     0.11630   0.02320   0.54821   0.00000  Uiso   1.00
C652   C     0.25127   0.00766   0.77551   0.00000  Uiso   1.00
C653   C     0.21068   0.25793   0.97404   0.00000  Uiso   1.00
C654   C     0.09306   0.32743   0.80194   0.00000  Uiso   1.00
C655   C     0.12361   0.07605   0.52616   0.00000  Uiso   1.00
C656   C     0.19190   0.31895   0.76781   0.00000  Uiso   1.00
C657   C     0.14566   0.01450   0.77407   0.00000  Uiso   1.00
C658   C     0.16737   0.16625   0.83641   0.00000  Uiso   1.00
C659   C     0.16611   0.16755   0.66363   0.00000  Uiso   1.00
C660   C     0.13092   0.12960   0.59480   0.00000  Uiso   1.00
H661   H     0.22469   0.29369   0.53659   0.00000  Uiso   1.00
H662   H     0.28183   0.25939   0.89944   0.00000  Uiso   1.00
H663   H     0.26623   0.27652   0.59337   0.00000  Uiso   1.00
H664   H     0.21023   0.27412   0.63838   0.00000  Uiso   1.00
H665   H     0.26752   0.22984   0.63518   0.00000  Uiso   1.00
H666   H     0.11826   0.04279   0.88861   0.00000  Uiso   1.00
H667   H     0.05490   0.07774   0.90377   0.00000  Uiso   1.00
H668   H     0.09380   0.08781   0.85113   0.00000  Uiso   1.00
H669   H     0.25431   0.05231   0.95169   0.00000  Uiso   1.00
H670   H     0.07955   0.28171   0.54846   0.00000  Uiso   1.00
H671   H     0.29816   0.06353   0.80900   0.00000  Uiso   1.00
H672   H     0.10427   0.04171   0.96395   0.00000  Uiso   1.00
H673   H     0.05783   0.27714   0.85037   0.00000  Uiso   1.00
H674   H     0.00432   0.12680   0.71700   0.00000  Uiso   1.00
H675   H     0.32901   0.20651   0.78303   0.00000  Uiso   1.00
H676   H     0.05224   0.12718   0.63812   0.00000  Uiso   1.00
H677   H     0.05163   0.07542   0.59967   0.00000  Uiso   1.00
H678   H     0.09654   0.07300   0.64630   0.00000  Uiso   1.00
H679   H     0.28107   0.20776   0.86089   0.00000  Uiso   1.00
H680   H     0.23592   0.26145   0.85340   0.00000  Uiso   1.00
N681   N     0.31678   0.15265   0.73783   0.00000  Uiso   1.00
N682   N     0.01656   0.18068   0.76217   0.00000  Uiso   1.00
O683   O     0.12975   0.24619   0.75298   0.00000  Uiso   1.00
O684   O     0.25387   0.01812   0.96912   0.00000  Uiso   1.00
O685   O     0.14349   0.01455   0.58035   0.00000  Uiso   1.00
O686   O     0.08000   0.31597   0.53113   0.00000  Uiso   1.00
O687   O     0.29213   0.33032   0.75004   0.00000  Uiso   1.00
O688   O     0.25899   0.04310   0.81093   0.00000  Uiso   1.00
O689   O     0.04788   0.01428   0.79946   0.00000  Uiso   1.00
O690   O     0.09618   0.28692   0.83297   0.00000  Uiso   1.00
O691   O     0.20358   0.08714   0.74701   0.00000  Uiso   1.00
O692   O     0.22613   0.23721   0.74518   0.00000  Uiso   1.00
O693   O     0.10720   0.09613   0.75481   0.00000  Uiso   1.00
O694   O     0.11847   0.17117   0.81997   0.00000  Uiso   1.00
O695   O     0.21486   0.16216   0.68002   0.00000  Uiso   1.00
O696   O     0.21485   0.16219   0.81217   0.00000  Uiso   1.00
O697   O     0.11848   0.17115   0.68782   0.00000  Uiso   1.00
O698   O     0.19080   0.31918   0.91975   0.00000  Uiso   1.00
Zn699  Zn    0.10231   0.17266   0.75521   0.00000  Uiso   1.00
Zn700  Zn    0.23102   0.16067   0.74479   0.00000  Uiso   1.00
C701   C     0.51582   0.26484   0.75419   0.00000  Uiso   1.00
C702   C     0.53642   0.20454   0.90507   0.00000  Uiso   1.00
C703   C     0.49829   0.16916   0.61587   0.00000  Uiso   1.00
C704   C     0.50218   0.16483   0.88417   0.00000  Uiso   1.00
C705   C     0.53220   0.20931   0.59145   0.00000  Uiso   1.00
C706   C     0.46965   0.12410   0.90889   0.00000  Uiso   1.00
C707   C     0.52774   0.21121   0.54507   0.00000  Uiso   1.00
C708   C     0.47418   0.12258   0.95518   0.00000  Uiso   1.00
C709   C     0.50122   0.16699   0.52343   0.00000  Uiso   1.00
C710   C     0.50113   0.16662   0.97669   0.00000  Uiso   1.00
C711   C     0.47429   0.12335   0.54849   0.00000  Uiso   1.00
C712   C     0.48497   0.06857   0.75765   0.00000  Uiso   1.00
C713   C     0.52748   0.21042   0.95158   0.00000  Uiso   1.00
C714   C     0.54626   0.25690   0.52018   0.00000  Uiso   1.00
C715   C     0.45350   0.07748   0.98021   0.00000  Uiso   1.00
C716   C     0.41396   0.09905   0.62110   0.00000  Uiso   1.00
C717   C     0.58597   0.23556   0.87831   0.00000  Uiso   1.00
C718   C     0.57058   0.24992   0.61561   0.00000  Uiso   1.00
C719   C     0.43236   0.08110   0.88671   0.00000  Uiso   1.00
C720   C     0.55113   0.31074   0.95200   0.00000  Uiso   1.00
C721   C     0.44964   0.02320   0.54821   0.00000  Uiso   1.00
C722   C     0.58461   0.00766   0.77551   0.00000  Uiso   1.00
C723   C     0.54401   0.25793   0.97404   0.00000  Uiso   1.00
C724   C     0.42640   0.32743   0.80194   0.00000  Uiso   1.00
C725   C     0.45694   0.07605   0.52616   0.00000  Uiso   1.00
C726   C     0.52523   0.31895   0.76781   0.00000  Uiso   1.00
C727   C     0.47899   0.01450   0.77407   0.00000  Uiso   1.00
C728   C     0.50071   0.16625   0.83641   0.00000  Uiso   1.00
C729   C     0.49944   0.16755   0.66363   0.00000  Uiso   1.00
C730   C     0.46425   0.12960   0.59480   0.00000  Uiso   1.00
H731   H     0.55802   0.29369   0.53659   0.00000  Uiso   1.00
H732   H     0.61517   0.25939   0.89944   0.00000  Uiso   1.00
H733   H     0.59956   0.27652   0.59337   0.00000  Uiso   1.00
H734   H     0.54356   0.27412   0.63838   0.00000  Uiso   1.00
H735   H     0.60086   0.22984   0.63518   0.00000  Uiso   1.00
H736   H     0.45159   0.04279   0.88861   0.00000  Uiso   1.00
H737   H     0.38824   0.07774   0.90377   0.00000  Uiso   1.00
H738   H     0.42713   0.08781   0.85113   0.00000  Uiso   1.00
H739   H     0.58765   0.05231   0.95169   0.00000  Uiso   1.00
H740   H     0.41288   0.28171   0.54846   0.00000  Uiso   1.00
H741   H     0.63150   0.06353   0.80900   0.00000  Uiso   1.00
H742   H     0.43760   0.04171   0.96395   0.00000  Uiso   1.00
H743   H     0.39116   0.27714   0.85037   0.00000  Uiso   1.00
H744   H     0.33766   0.12680   0.71700   0.00000  Uiso   1.00
H745   H     0.66235   0.20651   0.78303   0.00000  Uiso   1.00
H746   H     0.38558   0.12718   0.63812   0.00000  Uiso   1.00
H747   H     0.38497   0.07542   0.59967   0.00000  Uiso   1.00
H748   H     0.42987   0.07300   0.64630   0.00000  Uiso   1.00
H749   H     0.61440   0.20776   0.86089   0.00000  Uiso   1.00
H750   H     0.56925   0.26145   0.85340   0.00000  Uiso   1.00
N751   N     0.65011   0.15265   0.73783   0.00000  Uiso   1.00
N752   N     0.34989   0.18068   0.76217   0.00000  Uiso   1.00
O753   O     0.46308   0.24619   0.75298   0.00000  Uiso   1.00
O754   O     0.58720   0.01812   0.96912   0.00000  Uiso   1.00
O755   O     0.47682   0.01455   0.58035   0.00000  Uiso   1.00
O756   O     0.41333   0.31597   0.53113   0.00000  Uiso   1.00
O757   O     0.62546   0.33032   0.75004   0.00000  Uiso   1.00
O758   O     0.59233   0.04310   0.81093   0.00000  Uiso   1.00
O759   O     0.38122   0.01428   0.79946   0.00000  Uiso   1.00
O760   O     0.42951   0.28692   0.83297   0.00000  Uiso   1.00
O761   O     0.53692   0.08714   0.74701   0.00000  Uiso   1.00
O762   O     0.55946   0.23721   0.74518   0.00000  Uiso   1.00
O763   O     0.44054   0.09613   0.75481   0.00000  Uiso   1.00
O764   O     0.45181   0.17117   0.81997   0.00000  Uiso   1.00
O765   O     0.54819   0.16216   0.68002   0.00000  Uiso   1.00
O766   O     0.54819   0.16219   0.81217   0.00000  Uiso   1.00
O767   O     0.45181   0.17115   0.68782   0.00000  Uiso   1.00
O768   O     0.52413   0.31918   0.91975   0.00000  Uiso   1.00
Zn769  Zn    0.43565   0.17266   0.75521   0.00000  Uiso   1.00
Zn770  Zn    0.56435   0.16067   0.74479   0.00000  Uiso   1.00
C771   C     0.84915   0.26484   0.75419   0.00000  Uiso   1.00
C772   C     0.86975   0.20454   0.90507   0.00000  Uiso   1.00
C773   C     0.83162   0.16916   0.61587   0.00000  Uiso   1.00
C774   C     0.83552   0.16483   0.88417   0.00000  Uiso   1.00
C775   C     0.86553   0.20931   0.59145   0.00000  Uiso   1.00
C776   C     0.80299   0.12410   0.90889   0.00000  Uiso   1.00
C777   C     0.86108   0.21121   0.54507   0.00000  Uiso   1.00
C778   C     0.80752   0.12258   0.95518   0.00000  Uiso   1.00
C779   C     0.83455   0.16699   0.52343   0.00000  Uiso   1.00
C780   C     0.83446   0.16662   0.97669   0.00000  Uiso   1.00
C781   C     0.80763   0.12335   0.54849   0.00000  Uiso   1.00
C782   C     0.81831   0.06857   0.75765   0.00000  Uiso   1.00
C783   C     0.86082   0.21042   0.95158   0.00000  Uiso   1.00
C784   C     0.87959   0.25690   0.52018   0.00000  Uiso   1.00
C785   C     0.78684   0.07748   0.98021   0.00000  Uiso   1.00
C786   C     0.74729   0.09905   0.62110   0.00000  Uiso   1.00
C787   C     0.91931   0.23556   0.87831   0.00000  Uiso   1.00
C788   C     0.90392   0.24992   0.61561   0.00000  Uiso   1.00
C789   C     0.76570   0.08110   0.88671   0.00000  Uiso   1.00
C790   C     0.88446   0.31074   0.95200   0.00000  Uiso   1.00
C791   C     0.78297   0.02320   0.54821   0.00000  Uiso   1.00
C792   C     0.91794   0.00766   0.77551   0.00000  Uiso   1.00
C793   C     0.87734   0.25793   0.97404   0.00000  Uiso   1.00
C794   C     0.75973   0.32743   0.80194   0.00000  Uiso   1.00
C795   C     0.79027   0.07605   0.52616   0.00000  Uiso   1.00
C796   C     0.85856   0.31895   0.76781   0.00000  Uiso   1.00
C797   C     0.81233   0.01450   0.77407   0.00000  Uiso   1.00
C798   C     0.83404   0.16625   0.83641   0.00000  Uiso   1.00
C799   C     0.83277   0.16755   0.66363   0.00000  Uiso   1.00
C800   C     0.79759   0.12960   0.59480   0.00000  Uiso   1.00
H801   H     0.89136   0.29369   0.53659   0.00000  Uiso   1.00
H802   H     0.94850   0.25939   0.89944   0.00000  Uiso   1.00
H803   H     0.93289   0.27652   0.59337   0.00000  Uiso   1.00
H804   H     0.87690   0.27412   0.63838   0.00000  Uiso   1.00
H805   H     0.93419   0.22984   0.63518   0.00000  Uiso   1.00
H806   H     0.78492   0.04279   0.88861   0.00000  Uiso   1.00
H807   H     0.72157   0.07774   0.90377   0.00000  Uiso   1.00
H808   H     0.76047   0.08781   0.85113   0.00000  Uiso   1.00
H809   H     0.92098   0.05231   0.95169   0.00000  Uiso   1.00
H810   H     0.74621   0.28171   0.54846   0.00000  Uiso   1.00
H811   H     0.96483   0.06353   0.80900   0.00000  Uiso   1.00
H812   H     0.77093   0.04171   0.96395   0.00000  Uiso   1.00
H813   H     0.72449   0.27714   0.85037   0.00000  Uiso   1.00
H814   H     0.67099   0.12680   0.71700   0.00000  Uiso   1.00
H815   H     0.99568   0.20651   0.78303   0.00000  Uiso   1.00
H816   H     0.71891   0.12718   0.63812   0.00000  Uiso   1.00
H817   H     0.71830   0.07542   0.59967   0.00000  Uiso   1.00
H818   H     0.76321   0.07300   0.64630   0.00000  Uiso   1.00
H819   H     0.94774   0.20776   0.86089   0.00000  Uiso   1.00
H820   H     0.90259   0.26145   0.85340   0.00000  Uiso   1.00
N821   N     0.98344   0.15265   0.73783   0.00000  Uiso   1.00
N822   N     0.68322   0.18068   0.76217   0.00000  Uiso   1.00
O823   O     0.79642   0.24619   0.75298   0.00000  Uiso   1.00
O824   O     0.92054   0.01812   0.96912   0.00000  Uiso   1.00
O825   O     0.81015   0.01455   0.58035   0.00000  Uiso   1.00
O826   O     0.74666   0.31597   0.53113   0.00000  Uiso   1.00
O827   O     0.95879   0.33032   0.75004   0.00000  Uiso   1.00
O828   O     0.92566   0.04310   0.81093   0.00000  Uiso   1.00
O829   O     0.71455   0.01428   0.79946   0.00000  Uiso   1.00
O830   O     0.76284   0.28692   0.83297   0.00000  Uiso   1.00
O831   O     0.87025   0.08714   0.74701   0.00000  Uiso   1.00
O832   O     0.89280   0.23721   0.74518   0.00000  Uiso   1.00
O833   O     0.77387   0.09613   0.75481   0.00000  Uiso   1.00
O834   O     0.78514   0.17117   0.81997   0.00000  Uiso   1.00
O835   O     0.88153   0.16216   0.68002   0.00000  Uiso   1.00
O836   O     0.88152   0.16219   0.81217   0.00000  Uiso   1.00
O837   O     0.78515   0.17115   0.68782   0.00000  Uiso   1.00
O838   O     0.85747   0.31918   0.91975   0.00000  Uiso   1.00
Zn839  Zn    0.76898   0.17266   0.75521   0.00000  Uiso   1.00
Zn840  Zn    0.89769   0.16067   0.74479   0.00000  Uiso   1.00
C841   C     0.18248   0.59818   0.75419   0.00000  Uiso   1.00
C842   C     0.20309   0.53787   0.90507   0.00000  Uiso   1.00
C843   C     0.16495   0.50249   0.61587   0.00000  Uiso   1.00
C844   C     0.16885   0.49817   0.88417   0.00000  Uiso   1.00
C845   C     0.19887   0.54264   0.59145   0.00000  Uiso   1.00
C846   C     0.13632   0.45744   0.90889   0.00000  Uiso   1.00
C847   C     0.19441   0.54454   0.54507   0.00000  Uiso   1.00
C848   C     0.14085   0.45591   0.95518   0.00000  Uiso   1.00
C849   C     0.16788   0.50032   0.52343   0.00000  Uiso   1.00
C850   C     0.16779   0.49995   0.97669   0.00000  Uiso   1.00
C851   C     0.14096   0.45668   0.54849   0.00000  Uiso   1.00
C852   C     0.15164   0.40190   0.75765   0.00000  Uiso   1.00
C853   C     0.19415   0.54375   0.95158   0.00000  Uiso   1.00
C854   C     0.21293   0.59023   0.52018   0.00000  Uiso   1.00
C855   C     0.12017   0.41081   0.98021   0.00000  Uiso   1.00
C856   C     0.08062   0.43238   0.62110   0.00000  Uiso   1.00
C857   C     0.25264   0.56889   0.87831   0.00000  Uiso   1.00
C858   C     0.23725   0.58326   0.61561   0.00000  Uiso   1.00
C859   C     0.09903   0.41443   0.88671   0.00000  Uiso   1.00
C860   C     0.21780   0.64408   0.95200   0.00000  Uiso   1.00
C861   C     0.11630   0.35653   0.54821   0.00000  Uiso   1.00
C862   C     0.25127   0.34100   0.77551   0.00000  Uiso   1.00
C863   C     0.21068   0.59126   0.97404   0.00000  Uiso   1.00
C864   C     0.09306   0.66077   0.80194   0.00000  Uiso   1.00
C865   C     0.12361   0.40939   0.52616   0.00000  Uiso   1.00
C866   C     0.19190   0.65229   0.76781   0.00000  Uiso   1.00
C867   C     0.14566   0.34783   0.77407   0.00000  Uiso   1.00
C868   C     0.16737   0.49958   0.83641   0.00000  Uiso   1.00
C869   C     0.16611   0.50089   0.66363   0.00000  Uiso   1.00
C870   C     0.13092   0.46294   0.59480   0.00000  Uiso   1.00
H871   H     0.22469   0.62702   0.53659   0.00000  Uiso   1.00
H872   H     0.28183   0.59273   0.89944   0.00000  Uiso   1.00
H873   H     0.26623   0.60986   0.59337   0.00000  Uiso   1.00
H874   H     0.21023   0.60746   0.63838   0.00000  Uiso   1.00
H875   H     0.26752   0.56317   0.63518   0.00000  Uiso   1.00
H876   H     0.11826   0.37612   0.88861   0.00000  Uiso   1.00
H877   H     0.05490   0.41107   0.90377   0.00000  Uiso   1.00
H878   H     0.09380   0.42115   0.85113   0.00000  Uiso   1.00
H879   H     0.25431   0.38564   0.95169   0.00000  Uiso   1.00
H880   H     0.07955   0.61505   0.54846   0.00000  Uiso   1.00
H881   H     0.29816   0.39687   0.80900   0.00000  Uiso   1.00
H882   H     0.10427   0.37505   0.96395   0.00000  Uiso   1.00
H883   H     0.05783   0.61047   0.85037   0.00000  Uiso   1.00
H884   H     0.00432   0.46014   0.71700   0.00000  Uiso   1.00
H885   H     0.32901   0.53984   0.78303   0.00000  Uiso   1.00
H886   H     0.05224   0.46051   0.63812   0.00000  Uiso   1.00
H887   H     0.05163   0.40876   0.59967   0.00000  Uiso   1.00
H888   H     0.09654   0.40633   0.64630   0.00000  Uiso   1.00
H889   H     0.28107   0.54109   0.86089   0.00000  Uiso   1.00
H890   H     0.23592   0.59479   0.85340   0.00000  Uiso   1.00
N891   N     0.31678   0.48598   0.73783   0.00000  Uiso   1.00
N892   N     0.01656   0.51402   0.76217   0.00000  Uiso   1.00
O893   O     0.12975   0.57952   0.75298   0.00000  Uiso   1.00
O894   O     0.25387   0.35146   0.96912   0.00000  Uiso   1.00
O895   O     0.14349   0.34789   0.58035   0.00000  Uiso   1.00
O896   O     0.08000   0.64930   0.53113   0.00000  Uiso   1.00
O897   O     0.29213   0.66365   0.75004   0.00000  Uiso   1.00
O898   O     0.25899   0.37644   0.81093   0.00000  Uiso   1.00
O899   O     0.04788   0.34761   0.79946   0.00000  Uiso   1.00
O900   O     0.09618   0.62026   0.83297   0.00000  Uiso   1.00
O901   O     0.20358   0.42048   0.74701   0.00000  Uiso   1.00
O902   O     0.22613   0.57054   0.74518   0.00000  Uiso   1.00
O903   O     0.10720   0.42946   0.75481   0.00000  Uiso   1.00
O904   O     0.11847   0.50450   0.81997   0.00000  Uiso   1.00
O905   O     0.21486   0.49550   0.68002   0.00000  Uiso   1.00
O906   O     0.21485   0.49552   0.81217   0.00000  Uiso   1.00
O907   O     0.11848   0.50448   0.68782   0.00000  Uiso   1.00
O908   O     0.19080   0.65251   0.91975   0.00000  Uiso   1.00
Zn909  Zn    0.10231   0.50600   0.75521   0.00000  Uiso   1.00
Zn910  Zn    0.23102   0.49400   0.74479   0.00000  Uiso   1.00
C911   C     0.51582   0.59818   0.75419   0.00000  Uiso   1.00
C912   C     0.53642   0.53787   0.90507   0.00000  Uiso   1.00
C913   C     0.49829   0.50249   0.61587   0.00000  Uiso   1.00
C914   C     0.50218   0.49817   0.88417   0.00000  Uiso   1.00
C915   C     0.53220   0.54264   0.59145   0.00000  Uiso   1.00
C916   C     0.46965   0.45744   0.90889   0.00000  Uiso   1.00
C917   C     0.52774   0.54454   0.54507   0.00000  Uiso   1.00
C918   C     0.47418   0.45591   0.95518   0.00000  Uiso   1.00
C919   C     0.50122   0.50032   0.52343   0.00000  Uiso   1.00
C920   C     0.50113   0.49995   0.97669   0.00000  Uiso   1.00
C921   C     0.47429   0.45668   0.54849   0.00000  Uiso   1.00
C922   C     0.48497   0.40190   0.75765   0.00000  Uiso   1.00
C923   C     0.52748   0.54375   0.95158   0.00000  Uiso   1.00
C924   C     0.54626   0.59023   0.52018   0.00000  Uiso   1.00
C925   C     0.45350   0.41081   0.98021   0.00000  Uiso   1.00
C926   C     0.41396   0.43238   0.62110   0.00000  Uiso   1.00
C927   C     0.58597   0.56889   0.87831   0.00000  Uiso   1.00
C928   C     0.57058   0.58326   0.61561   0.00000  Uiso   1.00
C929   C     0.43236   0.41443   0.88671   0.00000  Uiso   1.00
C930   C     0.55113   0.64408   0.95200   0.00000  Uiso   1.00
C931   C     0.44964   0.35653   0.54821   0.00000  Uiso   1.00
C932   C     0.58461   0.34100   0.77551   0.00000  Uiso   1.00
C933   C     0.54401   0.59126   0.97404   0.00000  Uiso   1.00
C934   C     0.42640   0.66077   0.80194   0.00000  Uiso   1.00
C935   C     0.45694   0.40939   0.52616   0.00000  Uiso   1.00
C936   C     0.52523   0.65229   0.76781   0.00000  Uiso   1.00
C937   C     0.47899   0.34783   0.77407   0.00000  Uiso   1.00
C938   C     0.50071   0.49958   0.83641   0.00000  Uiso   1.00
C939   C     0.49944   0.50089   0.66363   0.00000  Uiso   1.00
C940   C     0.46425   0.46294   0.59480   0.00000  Uiso   1.00
H941   H     0.55802   0.62702   0.53659   0.00000  Uiso   1.00
H942   H     0.61517   0.59273   0.89944   0.00000  Uiso   1.00
H943   H     0.59956   0.60986   0.59337   0.00000  Uiso   1.00
H944   H     0.54356   0.60746   0.63838   0.00000  Uiso   1.00
H945   H     0.60086   0.56317   0.63518   0.00000  Uiso   1.00
H946   H     0.45159   0.37612   0.88861   0.00000  Uiso   1.00
H947   H     0.38824   0.41107   0.90377   0.00000  Uiso   1.00
H948   H     0.42713   0.42115   0.85113   0.00000  Uiso   1.00
H949   H     0.58765   0.38564   0.95169   0.00000  Uiso   1.00
H950   H     0.41288   0.61505   0.54846   0.00000  Uiso   1.00
H951   H     0.63150   0.39687   0.80900   0.00000  Uiso   1.00
H952   H     0.43760   0.37505   0.96395   0.00000  Uiso   1.00
H953   H     0.39116   0.61047   0.85037   0.00000  Uiso   1.00
H954   H     0.33766   0.46014   0.71700   0.00000  Uiso   1.00
H955   H     0.66235   0.53984   0.78303   0.00000  Uiso   1.00
H956   H     0.38558   0.46051   0.63812   0.00000  Uiso   1.00
H957   H     0.38497   0.40876   0.59967   0.00000  Uiso   1.00
H958   H     0.42987   0.40633   0.64630   0.00000  Uiso   1.00
H959   H     0.61440   0.54109   0.86089   0.00000  Uiso   1.00
H960   H     0.56925   0.59479   0.85340   0.00000  Uiso   1.00
N961   N     0.65011   0.48598   0.73783   0.00000  Uiso   1.00
N962   N     0.34989   0.51402   0.76217   0.00000  Uiso   1.00
O963   O     0.46308   0.57952   0.75298   0.00000  Uiso   1.00
O964   O     0.58720   0.35146   0.96912   0.00000  Uiso   1.00
O965   O     0.47682   0.34789   0.58035   0.00000  Uiso   1.00
O966   O     0.41333   0.64930   0.53113   0.00000  Uiso   1.00
O967   O     0.62546   0.66365   0.75004   0.00000  Uiso   1.00
O968   O     0.59233   0.37644   0.81093   0.00000  Uiso   1.00
O969   O     0.38122   0.34761   0.79946   0.00000  Uiso   1.00
O970   O     0.42951   0.62026   0.83297   0.00000  Uiso   1.00
O971   O     0.53692   0.42048   0.74701   0.00000  Uiso   1.00
O972   O     0.55946   0.57054   0.74518   0.00000  Uiso   1.00
O973   O     0.44054   0.42946   0.75481   0.00000  Uiso   1.00
O974   O     0.45181   0.50450   0.81997   0.00000  Uiso   1.00
O975   O     0.54819   0.49550   0.68002   0.00000  Uiso   1.00
O976   O     0.54819   0.49552   0.81217   0.00000  Uiso   1.00
O977   O     0.45181   0.50448   0.68782   0.00000  Uiso   1.00
O978   O     0.52413   0.65251   0.91975   0.00000  Uiso   1.00
Zn979  Zn    0.43565   0.50600   0.75521   0.00000  Uiso   1.00
Zn980  Zn    0.56435   0.49400   0.74479   0.00000  Uiso   1.00
C981   C     0.84915   0.59818   0.75419   0.00000  Uiso   1.00
C982   C     0.86975   0.53787   0.90507   0.00000  Uiso   1.00
C983   C     0.83162   0.50249   0.61587   0.00000  Uiso   1.00
C984   C     0.83552   0.49817   0.88417   0.00000  Uiso   1.00
C985   C     0.86553   0.54264   0.59145   0.00000  Uiso   1.00
C986   C     0.80299   0.45744   0.90889   0.00000  Uiso   1.00
C987   C     0.86108   0.54454   0.54507   0.00000  Uiso   1.00
C988   C     0.80752   0.45591   0.95518   0.00000  Uiso   1.00
C989   C     0.83455   0.50032   0.52343   0.00000  Uiso   1.00
C990   C     0.83446   0.49995   0.97669   0.00000  Uiso   1.00
C991   C     0.80763   0.45668   0.54849   0.00000  Uiso   1.00
C992   C     0.81831   0.40190   0.75765   0.00000  Uiso   1.00
C993   C     0.86082   0.54375   0.95158   0.00000  Uiso   1.00
C994   C     0.87959   0.59023   0.52018   0.00000  Uiso   1.00
C995   C     0.78684   0.41081   0.98021   0.00000  Uiso   1.00
C996   C     0.74729   0.43238   0.62110   0.00000  Uiso   1.00
C997   C     0.91931   0.56889   0.87831   0.00000  Uiso   1.00
C998   C     0.90392   0.58326   0.61561   0.00000  Uiso   1.00
C999   C     0.76570   0.41443   0.88671   0.00000  Uiso   1.00
C1000  C     0.88446   0.64408   0.95200   0.00000  Uiso   1.00
C1001  C     0.78297   0.35653   0.54821   0.00000  Uiso   1.00
C1002  C     0.91794   0.34100   0.77551   0.00000  Uiso   1.00
C1003  C     0.87734   0.59126   0.97404   0.00000  Uiso   1.00
C1004  C     0.75973   0.66077   0.80194   0.00000  Uiso   1.00
C1005  C     0.79027   0.40939   0.52616   0.00000  Uiso   1.00
C1006  C     0.85856   0.65229   0.76781   0.00000  Uiso   1.00
C1007  C     0.81233   0.34783   0.77407   0.00000  Uiso   1.00
C1008  C     0.83404   0.49958   0.83641   0.00000  Uiso   1.00
C1009  C     0.83277   0.50089   0.66363   0.00000  Uiso   1.00
C1010  C     0.79759   0.46294   0.59480   0.00000  Uiso   1.00
H1011  H     0.89136   0.62702   0.53659   0.00000  Uiso   1.00
H1012  H     0.94850   0.59273   0.89944   0.00000  Uiso   1.00
H1013  H     0.93289   0.60986   0.59337   0.00000  Uiso   1.00
H1014  H     0.87690   0.60746   0.63838   0.00000  Uiso   1.00
H1015  H     0.93419   0.56317   0.63518   0.00000  Uiso   1.00
H1016  H     0.78492   0.37612   0.88861   0.00000  Uiso   1.00
H1017  H     0.72157   0.41107   0.90377   0.00000  Uiso   1.00
H1018  H     0.76047   0.42115   0.85113   0.00000  Uiso   1.00
H1019  H     0.92098   0.38564   0.95169   0.00000  Uiso   1.00
H1020  H     0.74621   0.61505   0.54846   0.00000  Uiso   1.00
H1021  H     0.96483   0.39687   0.80900   0.00000  Uiso   1.00
H1022  H     0.77093   0.37505   0.96395   0.00000  Uiso   1.00
H1023  H     0.72449   0.61047   0.85037   0.00000  Uiso   1.00
H1024  H     0.67099   0.46014   0.71700   0.00000  Uiso   1.00
H1025  H     0.99568   0.53984   0.78303   0.00000  Uiso   1.00
H1026  H     0.71891   0.46051   0.63812   0.00000  Uiso   1.00
H1027  H     0.71830   0.40876   0.59967   0.00000  Uiso   1.00
H1028  H     0.76321   0.40633   0.64630   0.00000  Uiso   1.00
H1029  H     0.94774   0.54109   0.86089   0.00000  Uiso   1.00
H1030  H     0.90259   0.59479   0.85340   0.00000  Uiso   1.00
N1031  N     0.98344   0.48598   0.73783   0.00000  Uiso   1.00
N1032  N     0.68322   0.51402   0.76217   0.00000  Uiso   1.00
O1033  O     0.79642   0.57952   0.75298   0.00000  Uiso   1.00
O1034  O     0.92054   0.35146   0.96912   0.00000  Uiso   1.00
O1035  O     0.81015   0.34789   0.58035   0.00000  Uiso   1.00
O1036  O     0.74666   0.64930   0.53113   0.00000  Uiso   1.00
O1037  O     0.95879   0.66365   0.75004   0.00000  Uiso   1.00
O1038  O     0.92566   0.37644   0.81093   0.00000  Uiso   1.00
O1039  O     0.71455   0.34761   0.79946   0.00000  Uiso   1.00
O1040  O     0.76284   0.62026   0.83297   0.00000  Uiso   1.00
O1041  O     0.87025   0.42048   0.74701   0.00000  Uiso   1.00
O1042  O     0.89280   0.57054   0.74518   0.00000  Uiso   1.00
O1043  O     0.77387   0.42946   0.75481   0.00000  Uiso   1.00
O1044  O     0.78514   0.50450   0.81997   0.00000  Uiso   1.00
O1045  O     0.88153   0.49550   0.68002   0.00000  Uiso   1.00
O1046  O     0.88152   0.49552   0.81217   0.00000  Uiso   1.00
O1047  O     0.78515   0.50448   0.68782   0.00000  Uiso   1.00
O1048  O     0.85747   0.65251   0.91975   0.00000  Uiso   1.00
Zn1049 Zn    0.76898   0.50600   0.75521   0.00000  Uiso   1.00
Zn1050 Zn    0.89769   0.49400   0.74479   0.00000  Uiso   1.00
C1051  C     0.18248   0.93151   0.75419   0.00000  Uiso   1.00
C1052  C     0.20309   0.87121   0.90507   0.00000  Uiso   1.00
C1053  C     0.16495   0.83582   0.61587   0.00000  Uiso   1.00
C1054  C     0.16885   0.83150   0.88417   0.00000  Uiso   1.00
C1055  C     0.19887   0.87597   0.59145   0.00000  Uiso   1.00
C1056  C     0.13632   0.79077   0.90889   0.00000  Uiso   1.00
C1057  C     0.19441   0.87787   0.54507   0.00000  Uiso   1.00
C1058  C     0.14085   0.78924   0.95518   0.00000  Uiso   1.00
C1059  C     0.16788   0.83365   0.52343   0.00000  Uiso   1.00
C1060  C     0.16779   0.83329   0.97669   0.00000  Uiso   1.00
C1061  C     0.14096   0.79002   0.54849   0.00000  Uiso   1.00
C1062  C     0.15164   0.73524   0.75765   0.00000  Uiso   1.00
C1063  C     0.19415   0.87708   0.95158   0.00000  Uiso   1.00
C1064  C     0.21293   0.92356   0.52018   0.00000  Uiso   1.00
C1065  C     0.12017   0.74415   0.98021   0.00000  Uiso   1.00
C1066  C     0.08062   0.76572   0.62110   0.00000  Uiso   1.00
C1067  C     0.25264   0.90222   0.87831   0.00000  Uiso   1.00
C1068  C     0.23725   0.91659   0.61561   0.00000  Uiso   1.00
C1069  C     0.09903   0.74776   0.88671   0.00000  Uiso   1.00
C1070  C     0.21780   0.97741   0.95200   0.00000  Uiso   1.00
C1071  C     0.11630   0.68986   0.54821   0.00000  Uiso   1.00
C1072  C     0.25127   0.67433   0.77551   0.00000  Uiso   1.00
C1073  C     0.21068   0.92460   0.97404   0.00000  Uiso   1.00
C1074  C     0.09306   0.99410   0.80194   0.00000  Uiso   1.00
C1075  C     0.12361   0.74272   0.52616   0.00000  Uiso   1.00
C1076  C     0.19190   0.98562   0.76781   0.00000  Uiso   1.00
C1077  C     0.14566   0.68116   0.77407   0.00000  Uiso   1.00
C1078  C     0.16737   0.83291   0.83641   0.00000  Uiso   1.00
C1079  C     0.16611   0.83422   0.66363   0.00000  Uiso   1.00
C1080  C     0.13092   0.79627   0.59480   0.00000  Uiso   1.00
H1081  H     0.22469   0.96035   0.53659   0.00000  Uiso   1.00
H1082  H     0.28183   0.92606   0.89944   0.00000  Uiso   1.00
H1083  H     0.26623   0.94319   0.59337   0.00000  Uiso   1.00
H1084  H     0.21023   0.94079   0.63838   0.00000  Uiso   1.00
H1085  H     0.26752   0.89651   0.63518   0.00000  Uiso   1.00
H1086  H     0.11826   0.70946   0.88861   0.00000  Uiso   1.00
H1087  H     0.05490   0.74441   0.90377   0.00000  Uiso   1.00
H1088  H     0.09380   0.75448   0.85113   0.00000  Uiso   1.00
H1089  H     0.25431   0.71897   0.95169   0.00000  Uiso   1.00
H1090  H     0.07955   0.94838   0.54846   0.00000  Uiso   1.00
H1091  H     0.29816   0.73020   0.80900   0.00000  Uiso   1.00
H1092  H     0.10427   0.70838   0.96395   0.00000  Uiso   1.00
H1093  H     0.05783   0.94381   0.85037   0.00000  Uiso   1.00
H1094  H     0.00432   0.79347   0.71700   0.00000  Uiso   1.00
H1095  H     0.32901   0.87318   0.78303   0.00000  Uiso   1.00
H1096  H     0.05224   0.79385   0.63812   0.00000  Uiso   1.00
H1097  H     0.05163   0.74209   0.59967   0.00000  Uiso   1.00
H1098  H     0.09654   0.73967   0.64630   0.00000  Uiso   1.00
H1099  H     0.28107   0.87443   0.86089   0.00000  Uiso   1.00
H1100  H     0.23592   0.92812   0.85340   0.00000  Uiso   1.00
N1101  N     0.31678   0.81932   0.73783   0.00000  Uiso   1.00
N1102  N     0.01656   0.84735   0.76217   0.00000  Uiso   1.00
O1103  O     0.12975   0.91286   0.75298   0.00000  Uiso   1.00
O1104  O     0.25387   0.68479   0.96912   0.00000  Uiso   1.00
O1105  O     0.14349   0.68122   0.58035   0.00000  Uiso   1.00
O1106  O     0.08000   0.98263   0.53113   0.00000  Uiso   1.00
O1107  O     0.29213   0.99698   0.75004   0.00000  Uiso   1.00
O1108  O     0.25899   0.70977   0.81093   0.00000  Uiso   1.00
O1109  O     0.04788   0.68094   0.79946   0.00000  Uiso   1.00
O1110  O     0.09618   0.95359   0.83297   0.00000  Uiso   1.00
O1111  O     0.20358   0.75381   0.74701   0.00000  Uiso   1.00
O1112  O     0.22613   0.90387   0.74518   0.00000  Uiso   1.00
O1113  O     0.10720   0.76279   0.75481   0.00000  Uiso   1.00
O1114  O     0.11847   0.83784   0.81997   0.00000  Uiso   1.00
O1115  O     0.21486   0.82883   0.68002   0.00000  Uiso   1.00
O1116  O     0.21485   0.82885   0.81217   0.00000  Uiso   1.00
O1117  O     0.11848   0.83781   0.68782   0.00000  Uiso   1.00
O1118  O     0.19080   0.98584   0.91975   0.00000  Uiso   1.00
Zn1119 Zn    0.10231   0.83933   0.75521   0.00000  Uiso   1.00
Zn1120 Zn    0.23102   0.82734   0.74479   0.00000  Uiso   1.00
C1121  C     0.51582   0.93151   0.75419   0.00000  Uiso   1.00
C1122  C     0.53642   0.87121   0.90507   0.00000  Uiso   1.00
C1123  C     0.49829   0.83582   0.61587   0.00000  Uiso   1.00
C1124  C     0.50218   0.83150   0.88417   0.00000  Uiso   1.00
C1125  C     0.53220   0.87597   0.59145   0.00000  Uiso   1.00
C1126  C     0.46965   0.79077   0.90889   0.00000  Uiso   1.00
C1127  C     0.52774   0.87787   0.54507   0.00000  Uiso   1.00
C1128  C     0.47418   0.78924   0.95518   0.00000  Uiso   1.00
C1129  C     0.50122   0.83365   0.52343   0.00000  Uiso   1.00
C1130  C     0.50113   0.83329   0.97669   0.00000  Uiso   1.00
C1131  C     0.47429   0.79002   0.54849   0.00000  Uiso   1.00
C1132  C     0.48497   0.73524   0.75765   0.00000  Uiso   1.00
C1133  C     0.52748   0.87708   0.95158   0.00000  Uiso   1.00
C1134  C     0.54626   0.92356   0.52018   0.00000  Uiso   1.00
C1135  C     0.45350   0.74415   0.98021   0.00000  Uiso   1.00
C1136  C     0.41396   0.76572   0.62110   0.00000  Uiso   1.00
C1137  C     0.58597   0.90222   0.87831   0.00000  Uiso   1.00
C1138  C     0.57058   0.91659   0.61561   0.00000  Uiso   1.00
C1139  C     0.43236   0.74776   0.88671   0.00000  Uiso   1.00
C1140  C     0.55113   0.97741   0.95200   0.00000  Uiso   1.00
C1141  C     0.44964   0.68986   0.54821   0.00000  Uiso   1.00
C1142  C     0.58461   0.67433   0.77551   0.00000  Uiso   1.00
C1143  C     0.54401   0.92460   0.97404   0.00000  Uiso   1.00
C1144  C     0.42640   0.99410   0.80194   0.00000  Uiso   1.00
C1145  C     0.45694   0.74272   0.52616   0.00000  Uiso   1.00
C1146  C     0.52523   0.98562   0.76781   0.00000  Uiso   1.00
C1147  C     0.47899   0.68116   0.77407   0.00000  Uiso   1.00
C1148  C     0.50071   0.83291   0.83641   0.00000  Uiso   1.00
C1149  C     0.49944   0.83422   0.66363   0.00000  Uiso   1.00
C1150  C     0.46425   0.79627   0.59480   0.00000  Uiso   1.00
H1151  H     0.55802   0.96035   0.53659   0.00000  Uiso   1.00
H1152  H     0.61517   0.92606   0.89944   0.00000  Uiso   1.00
H1153  H     0.59956   0.94319   0.59337   0.00000  Uiso   1.00
H1154  H     0.54356   0.94079   0.63838   0.00000  Uiso   1.00
H1155  H     0.60086   0.89651   0.63518   0.00000  Uiso   1.00
H1156  H     0.45159   0.70946   0.88861   0.00000  Uiso   1.00
H1157  H     0.38824   0.74441   0.90377   0.00000  Uiso   1.00
H1158  H     0.42713   0.75448   0.85113   0.00000  Uiso   1.00
H1159  H     0.58765   0.71897   0.95169   0.00000  Uiso   1.00
H1160  H     0.41288   0.94838   0.54846   0.00000  Uiso   1.00
H1161  H     0.63150   0.73020   0.80900   0.00000  Uiso   1.00
H1162  H     0.43760   0.70838   0.96395   0.00000  Uiso   1.00
H1163  H     0.39116   0.94381   0.85037   0.00000  Uiso   1.00
H1164  H     0.33766   0.79347   0.71700   0.00000  Uiso   1.00
H1165  H     0.66235   0.87318   0.78303   0.00000  Uiso   1.00
H1166  H     0.38558   0.79385   0.63812   0.00000  Uiso   1.00
H1167  H     0.38497   0.74209   0.59967   0.00000  Uiso   1.00
H1168  H     0.42987   0.73967   0.64630   0.00000  Uiso   1.00
H1169  H     0.61440   0.87443   0.86089   0.00000  Uiso   1.00
H1170  H     0.56925   0.92812   0.85340   0.00000  Uiso   1.00
N1171  N     0.65011   0.81932   0.73783   0.00000  Uiso   1.00
N1172  N     0.34989   0.84735   0.76217   0.00000  Uiso   1.00
O1173  O     0.46308   0.91286   0.75298   0.00000  Uiso   1.00
O1174  O     0.58720   0.68479   0.96912   0.00000  Uiso   1.00
O1175  O     0.47682   0.68122   0.58035   0.00000  Uiso   1.00
O1176  O     0.41333   0.98263   0.53113   0.00000  Uiso   1.00
O1177  O     0.62546   0.99698   0.75004   0.00000  Uiso   1.00
O1178  O     0.59233   0.70977   0.81093   0.00000  Uiso   1.00
O1179  O     0.38122   0.68094   0.79946   0.00000  Uiso   1.00
O1180  O     0.42951   0.95359   0.83297   0.00000  Uiso   1.00
O1181  O     0.53692   0.75381   0.74701   0.00000  Uiso   1.00
O1182  O     0.55946   0.90387   0.74518   0.00000  Uiso   1.00
O1183  O     0.44054   0.76279   0.75481   0.00000  Uiso   1.00
O1184  O     0.45181   0.83784   0.81997   0.00000  Uiso   1.00
O1185  O     0.54819   0.82883   0.68002   0.00000  Uiso   1.00
O1186  O     0.54819   0.82885   0.81217   0.00000  Uiso   1.00
O1187  O     0.45181   0.83781   0.68782   0.00000  Uiso   1.00
O1188  O     0.52413   0.98584   0.91975   0.00000  Uiso   1.00
Zn1189 Zn    0.43565   0.83933   0.75521   0.00000  Uiso   1.00
Zn1190 Zn    0.56435   0.82734   0.74479   0.00000  Uiso   1.00
C1191  C     0.84915   0.93151   0.75419   0.00000  Uiso   1.00
C1192  C     0.86975   0.87121   0.90507   0.00000  Uiso   1.00
C1193  C     0.83162   0.83582   0.61587   0.00000  Uiso   1.00
C1194  C     0.83552   0.83150   0.88417   0.00000  Uiso   1.00
C1195  C     0.86553   0.87597   0.59145   0.00000  Uiso   1.00
C1196  C     0.80299   0.79077   0.90889   0.00000  Uiso   1.00
C1197  C     0.86108   0.87787   0.54507   0.00000  Uiso   1.00
C1198  C     0.80752   0.78924   0.95518   0.00000  Uiso   1.00
C1199  C     0.83455   0.83365   0.52343   0.00000  Uiso   1.00
C1200  C     0.83446   0.83329   0.97669   0.00000  Uiso   1.00
C1201  C     0.80763   0.79002   0.54849   0.00000  Uiso   1.00
C1202  C     0.81831   0.73524   0.75765   0.00000  Uiso   1.00
C1203  C     0.86082   0.87708   0.95158   0.00000  Uiso   1.00
C1204  C     0.87959   0.92356   0.52018   0.00000  Uiso   1.00
C1205  C     0.78684   0.74415   0.98021   0.00000  Uiso   1.00
C1206  C     0.74729   0.76572   0.62110   0.00000  Uiso   1.00
C1207  C     0.91931   0.90222   0.87831   0.00000  Uiso   1.00
C1208  C     0.90392   0.91659   0.61561   0.00000  Uiso   1.00
C1209  C     0.76570   0.74776   0.88671   0.00000  Uiso   1.00
C1210  C     0.88446   0.97741   0.95200   0.00000  Uiso   1.00
C1211  C     0.78297   0.68986   0.54821   0.00000  Uiso   1.00
C1212  C     0.91794   0.67433   0.77551   0.00000  Uiso   1.00
C1213  C     0.87734   0.92460   0.97404   0.00000  Uiso   1.00
C1214  C     0.75973   0.99410   0.80194   0.00000  Uiso   1.00
C1215  C     0.79027   0.74272   0.52616   0.00000  Uiso   1.00
C1216  C     0.85856   0.98562   0.76781   0.00000  Uiso   1.00
C1217  C     0.81233   0.68116   0.77407   0.00000  Uiso   1.00
C1218  C     0.83404   0.83291   0.83641   0.00000  Uiso   1.00
C1219  C     0.83277   0.83422   0.66363   0.00000  Uiso   1.00
C1220  C     0.79759   0.79627   0.59480   0.00000  Uiso   1.00
H1221  H     0.89136   0.96035   0.53659   0.00000  Uiso   1.00
H1222  H     0.94850   0.92606   0.89944   0.00000  Uiso   1.00
H1223  H     0.93289   0.94319   0.59337   0.00000  Uiso   1.00
H1224  H     0.87690   0.94079   0.63838   0.00000  Uiso   1.00
H1225  H     0.93419   0.89651   0.63518   0.00000  Uiso   1.00
H1226  H     0.78492   0.70946   0.88861   0.00000  Uiso   1.00
H1227  H     0.72157   0.74441   0.90377   0.00000  Uiso   1.00
H1228  H     0.76047   0.75448   0.85113   0.00000  Uiso   1.00
H1229  H     0.92098   0.71897   0.95169   0.00000  Uiso   1.00
H1230  H     0.74621   0.94838   0.54846   0.00000  Uiso   1.00
H1231  H     0.96483   0.73020   0.80900   0.00000  Uiso   1.00
H1232  H     0.77093   0.70838   0.96395   0.00000  Uiso   1.00
H1233  H     0.72449   0.94381   0.85037   0.00000  Uiso   1.00
H1234  H     0.67099   0.79347   0.71700   0.00000  Uiso   1.00
H1235  H     0.99568   0.87318   0.78303   0.00000  Uiso   1.00
H1236  H     0.71891   0.79385   0.63812   0.00000  Uiso   1.00
H1237  H     0.71830   0.74209   0.59967   0.00000  Uiso   1.00
H1238  H     0.76321   0.73967   0.64630   0.00000  Uiso   1.00
H1239  H     0.94774   0.87443   0.86089   0.00000  Uiso   1.00
H1240  H     0.90259   0.92812   0.85340   0.00000  Uiso   1.00
N1241  N     0.98344   0.81932   0.73783   0.00000  Uiso   1.00
N1242  N     0.68322   0.84735   0.76217   0.00000  Uiso   1.00
O1243  O     0.79642   0.91286   0.75298   0.00000  Uiso   1.00
O1244  O     0.92054   0.68479   0.96912   0.00000  Uiso   1.00
O1245  O     0.81015   0.68122   0.58035   0.00000  Uiso   1.00
O1246  O     0.74666   0.98263   0.53113   0.00000  Uiso   1.00
O1247  O     0.95879   0.99698   0.75004   0.00000  Uiso   1.00
O1248  O     0.92566   0.70977   0.81093   0.00000  Uiso   1.00
O1249  O     0.71455   0.68094   0.79946   0.00000  Uiso   1.00
O1250  O     0.76284   0.95359   0.83297   0.00000  Uiso   1.00
O1251  O     0.87025   0.75381   0.74701   0.00000  Uiso   1.00
O1252  O     0.89280   0.90387   0.74518   0.00000  Uiso   1.00
O1253  O     0.77387   0.76279   0.75481   0.00000  Uiso   1.00
O1254  O     0.78514   0.83784   0.81997   0.00000  Uiso   1.00
O1255  O     0.88153   0.82883   0.68002   0.00000  Uiso   1.00
O1256  O     0.88152   0.82885   0.81217   0.00000  Uiso   1.00
O1257  O     0.78515   0.83781   0.68782   0.00000  Uiso   1.00
O1258  O     0.85747   0.98584   0.91975   0.00000  Uiso   1.00
Zn1259 Zn    0.76898   0.83933   0.75521   0.00000  Uiso   1.00
Zn1260 Zn    0.89769   0.82734   0.74479   0.00000  Uiso   1.00
loop_
_geom_bond_atom_site_label_1
_geom_bond_atom_site_label_2
_geom_bond_distance
_geom_bond_site_symmetry_2
_ccdc_geom_bond_type
C1     O62     1.293   .     A
C1     C26     1.435   .     S
C1     O53     1.284   .     A
C2     C4      1.409   .     A
C2     C17     1.522   .     S
C2     C13     1.403   .     A
C3     C30     1.406   .     A
C3     C5      1.411   .     A
C3     C29     1.435   .     S
C4     C28     1.436   .     S
C4     C6      1.411   .     A
C5     C7      1.404   .     A
C5     C18     1.526   .     S
C6     C8      1.401   .     A
C6     C19     1.522   .     S
C7     C9      1.416   .     A
C7     C14     1.403   .     A
C8     C10     1.414   .     A
C8     C15     1.404   .     A
C9     C11     1.418   .     A
C9     C640    1.402   1_554 S
C10    C13     1.417   .     A
C10    C639    1.402   .     S
C11    C25     1.417   .     A
C11    C30     1.401   .     A
C12    O61     1.281   .     A
C12    C27     1.453   .     S
C12    O63     1.304   .     A
C13    C23     1.418   .     A
C14    H31     1.079   .     S
C14    C653    1.389   1_554 S
C15    H42     1.081   .     S
C15    C655    1.387   .     S
C16    H48     1.111   .     S
C16    H47     1.107   .     S
C16    H46     1.109   .     S
C16    C30     1.522   .     S
C17    H50     1.110   .     S
C17    H32     1.107   .     S
C17    H49     1.109   .     S
C18    H34     1.111   .     S
C18    H33     1.104   .     S
C18    H35     1.107   .     S
C19    H36     1.106   .     S
C19    H38     1.099   .     S
C19    H37     1.111   .     S
C20    C23     1.489   .     S
C20    O68     1.222   .     D
C20    O264    1.399   .     S
C21    O55     1.223   .     D
C21    C25     1.490   .     S
C21    O476    1.399   1_545 S
C22    O58     1.401   .     S
C22    C446    1.485   1_545 S
C22    O477    1.222   1_545 S
C23    C644    1.389   .     S
C24    O60     1.400   .     S
C24    C237    1.489   .     S
C24    O269    1.215   .     S
C25    C645    1.387   1_554 S
C26    C232    1.485   .     S
C26    C237    1.353   .     S
C27    C446    1.353   1_545 S
C27    C444    1.489   1_545 S
C28    O66     1.288   .     A
C28    O64     1.291   .     A
C29    O67     1.289   .     A
C29    O65     1.289   .     A
H39    O54     1.014   .     S
H40    O56     1.014   .     S
H41    O58     1.011   .     S
H43    O60     1.014   .     S
H44    N191    1.029   1_455 S
H45    N122    1.029   .     S
N51    Zn70    2.021   .     S
N51    H114    1.029   .     S
N51    N122    1.275   .     S
N52    Zn69    2.021   .     S
N52    N191    1.275   1_455 S
N52    H185    1.029   1_455 S
O53    Zn69    1.923   .     S
O54    C440    1.399   1_545 S
O56    C231    1.399   .     S
O57    C232    1.222   .     S
O59    C444    1.215   1_545 S
O61    Zn70    1.923   .     S
O62    Zn70    1.955   .     S
O63    Zn69    1.955   .     S
O64    Zn69    2.007   .     S
O65    Zn70    2.007   .     S
O66    Zn70    2.028   .     S
O67    Zn69    2.028   .     S
C71    O132    1.293   .     A
C71    C96     1.435   .     S
C71    O123    1.284   .     A
C72    C74     1.409   .     A
C72    C87     1.522   .     S
C72    C83     1.403   .     A
C73    C100    1.406   .     A
C73    C75     1.411   .     A
C73    C99     1.435   .     S
C74    C98     1.436   .     S
C74    C76     1.411   .     A
C75    C77     1.404   .     A
C75    C88     1.526   .     S
C76    C78     1.401   .     A
C76    C89     1.522   .     S
C77    C79     1.416   .     A
C77    C84     1.403   .     A
C78    C80     1.414   .     A
C78    C85     1.404   .     A
C79    C81     1.418   .     A
C79    C710    1.402   1_554 S
C80    C83     1.417   .     A
C80    C709    1.402   .     S
C81    C95     1.417   .     A
C81    C100    1.401   .     A
C82    O131    1.281   .     A
C82    C97     1.453   .     S
C82    O133    1.304   .     A
C83    C93     1.418   .     A
C84    H101    1.079   .     S
C84    C723    1.389   1_554 S
C85    H112    1.081   .     S
C85    C725    1.387   .     S
C86    H118    1.111   .     S
C86    H117    1.107   .     S
C86    H116    1.109   .     S
C86    C100    1.522   .     S
C87    H120    1.110   .     S
C87    H102    1.107   .     S
C87    H119    1.109   .     S
C88    H104    1.111   .     S
C88    H103    1.104   .     S
C88    H105    1.107   .     S
C89    H106    1.106   .     S
C89    H108    1.099   .     S
C89    H107    1.111   .     S
C90    C93     1.489   .     S
C90    O138    1.222   .     D
C90    O334    1.399   .     S
C91    O125    1.223   .     D
C91    C95     1.490   .     S
C91    O546    1.399   1_545 S
C92    O128    1.401   .     S
C92    C516    1.485   1_545 S
C92    O547    1.222   1_545 S
C93    C714    1.389   .     S
C94    O130    1.400   .     S
C94    C307    1.489   .     S
C94    O339    1.215   .     S
C95    C715    1.387   1_554 S
C96    C302    1.485   .     S
C96    C307    1.353   .     S
C97    C516    1.353   1_545 S
C97    C514    1.489   1_545 S
C98    O136    1.288   .     A
C98    O134    1.291   .     A
C99    O137    1.289   .     A
C99    O135    1.289   .     A
H109   O124    1.014   .     S
H110   O126    1.014   .     S
H111   O128    1.011   .     S
H113   O130    1.014   .     S
H115   N192    1.029   .     S
N121   Zn140   2.021   .     S
N121   H184    1.029   .     S
N121   N192    1.275   .     S
N122   Zn139   2.021   .     S
O123   Zn139   1.923   .     S
O124   C510    1.399   1_545 S
O126   C301    1.399   .     S
O127   C302    1.222   .     S
O129   C514    1.215   1_545 S
O131   Zn140   1.923   .     S
O132   Zn140   1.955   .     S
O133   Zn139   1.955   .     S
O134   Zn139   2.007   .     S
O135   Zn140   2.007   .     S
O136   Zn140   2.028   .     S
O137   Zn139   2.028   .     S
C141   O202    1.293   .     A
C141   C166    1.435   .     S
C141   O193    1.284   .     A
C142   C144    1.409   .     A
C142   C157    1.522   .     S
C142   C153    1.403   .     A
C143   C170    1.406   .     A
C143   C145    1.411   .     A
C143   C169    1.435   .     S
C144   C168    1.436   .     S
C144   C146    1.411   .     A
C145   C147    1.404   .     A
C145   C158    1.526   .     S
C146   C148    1.401   .     A
C146   C159    1.522   .     S
C147   C149    1.416   .     A
C147   C154    1.403   .     A
C148   C150    1.414   .     A
C148   C155    1.404   .     A
C149   C151    1.418   .     A
C149   C780    1.402   1_554 S
C150   C153    1.417   .     A
C150   C779    1.402   .     S
C151   C165    1.417   .     A
C151   C170    1.401   .     A
C152   O201    1.281   .     A
C152   C167    1.453   .     S
C152   O203    1.304   .     A
C153   C163    1.418   .     A
C154   H171    1.079   .     S
C154   C793    1.389   1_554 S
C155   H182    1.081   .     S
C155   C795    1.387   .     S
C156   H188    1.111   .     S
C156   H187    1.107   .     S
C156   H186    1.109   .     S
C156   C170    1.522   .     S
C157   H190    1.110   .     S
C157   H172    1.107   .     S
C157   H189    1.109   .     S
C158   H174    1.111   .     S
C158   H173    1.104   .     S
C158   H175    1.107   .     S
C159   H176    1.106   .     S
C159   H178    1.099   .     S
C159   H177    1.111   .     S
C160   C163    1.489   .     S
C160   O208    1.222   .     D
C160   O404    1.399   .     S
C161   O195    1.223   .     D
C161   C165    1.490   .     S
C161   O616    1.399   1_545 S
C162   O198    1.401   .     S
C162   C586    1.485   1_545 S
C162   O617    1.222   1_545 S
C163   C784    1.389   .     S
C164   O200    1.400   .     S
C164   C377    1.489   .     S
C164   O409    1.215   .     S
C165   C785    1.387   1_554 S
C166   C372    1.485   .     S
C166   C377    1.353   .     S
C167   C586    1.353   1_545 S
C167   C584    1.489   1_545 S
C168   O206    1.288   .     A
C168   O204    1.291   .     A
C169   O207    1.289   .     A
C169   O205    1.289   .     A
H179   O194    1.014   .     S
H180   O196    1.014   .     S
H181   O198    1.011   .     S
H183   O200    1.014   .     S
H185   N52     1.029   1_655 S
N191   Zn210   2.021   .     S
N191   H44     1.029   1_655 S
N191   N52     1.275   1_655 S
N192   Zn209   2.021   .     S
O193   Zn209   1.923   .     S
O194   C580    1.399   1_545 S
O196   C371    1.399   .     S
O197   C372    1.222   .     S
O199   C584    1.215   1_545 S
O201   Zn210   1.923   .     S
O202   Zn210   1.955   .     S
O203   Zn209   1.955   .     S
O204   Zn209   2.007   .     S
O205   Zn210   2.007   .     S
O206   Zn210   2.028   .     S
O207   Zn209   2.028   .     S
C211   O272    1.293   .     A
C211   C236    1.435   .     S
C211   O263    1.284   .     A
C212   C214    1.409   .     A
C212   C227    1.522   .     S
C212   C223    1.403   .     A
C213   C240    1.406   .     A
C213   C215    1.411   .     A
C213   C239    1.435   .     S
C214   C238    1.436   .     S
C214   C216    1.411   .     A
C215   C217    1.404   .     A
C215   C228    1.526   .     S
C216   C218    1.401   .     A
C216   C229    1.522   .     S
C217   C219    1.416   .     A
C217   C224    1.403   .     A
C218   C220    1.414   .     A
C218   C225    1.404   .     A
C219   C221    1.418   .     A
C219   C850    1.402   1_554 S
C220   C223    1.417   .     A
C220   C849    1.402   .     S
C221   C235    1.417   .     A
C221   C240    1.401   .     A
C222   O271    1.281   .     A
C222   C237    1.453   .     S
C222   O273    1.304   .     A
C223   C233    1.418   .     A
C224   H241    1.079   .     S
C224   C863    1.389   1_554 S
C225   H252    1.081   .     S
C225   C865    1.387   .     S
C226   H258    1.111   .     S
C226   H257    1.107   .     S
C226   H256    1.109   .     S
C226   C240    1.522   .     S
C227   H260    1.110   .     S
C227   H242    1.107   .     S
C227   H259    1.109   .     S
C228   H244    1.111   .     S
C228   H243    1.104   .     S
C228   H245    1.107   .     S
C229   H246    1.106   .     S
C229   H248    1.099   .     S
C229   H247    1.111   .     S
C230   C233    1.489   .     S
C230   O278    1.222   .     D
C230   O474    1.399   .     S
C231   O265    1.223   .     D
C231   C235    1.490   .     S
C232   O268    1.401   .     S
C233   C854    1.389   .     S
C234   O270    1.400   .     S
C234   C447    1.489   .     S
C234   O479    1.215   .     S
C235   C855    1.387   1_554 S
C236   C442    1.485   .     S
C236   C447    1.353   .     S
C238   O276    1.288   .     A
C238   O274    1.291   .     A
C239   O277    1.289   .     A
C239   O275    1.289   .     A
H249   O264    1.014   .     S
H250   O266    1.014   .     S
H251   O268    1.011   .     S
H253   O270    1.014   .     S
H254   N401    1.029   1_455 S
H255   N332    1.029   .     S
N261   Zn280   2.021   .     S
N261   H324    1.029   .     S
N261   N332    1.275   .     S
N262   Zn279   2.021   .     S
N262   N401    1.275   1_455 S
N262   H395    1.029   1_455 S
O263   Zn279   1.923   .     S
O266   C441    1.399   .     S
O267   C442    1.222   .     S
O271   Zn280   1.923   .     S
O272   Zn280   1.955   .     S
O273   Zn279   1.955   .     S
O274   Zn279   2.007   .     S
O275   Zn280   2.007   .     S
O276   Zn280   2.028   .     S
O277   Zn279   2.028   .     S
C281   O342    1.293   .     A
C281   C306    1.435   .     S
C281   O333    1.284   .     A
C282   C284    1.409   .     A
C282   C297    1.522   .     S
C282   C293    1.403   .     A
C283   C310    1.406   .     A
C283   C285    1.411   .     A
C283   C309    1.435   .     S
C284   C308    1.436   .     S
C284   C286    1.411   .     A
C285   C287    1.404   .     A
C285   C298    1.526   .     S
C286   C288    1.401   .     A
C286   C299    1.522   .     S
C287   C289    1.416   .     A
C287   C294    1.403   .     A
C288   C290    1.414   .     A
C288   C295    1.404   .     A
C289   C291    1.418   .     A
C289   C920    1.402   1_554 S
C290   C293    1.417   .     A
C290   C919    1.402   .     S
C291   C305    1.417   .     A
C291   C310    1.401   .     A
C292   O341    1.281   .     A
C292   C307    1.453   .     S
C292   O343    1.304   .     A
C293   C303    1.418   .     A
C294   H311    1.079   .     S
C294   C933    1.389   1_554 S
C295   H322    1.081   .     S
C295   C935    1.387   .     S
C296   H328    1.111   .     S
C296   H327    1.107   .     S
C296   H326    1.109   .     S
C296   C310    1.522   .     S
C297   H330    1.110   .     S
C297   H312    1.107   .     S
C297   H329    1.109   .     S
C298   H314    1.111   .     S
C298   H313    1.104   .     S
C298   H315    1.107   .     S
C299   H316    1.106   .     S
C299   H318    1.099   .     S
C299   H317    1.111   .     S
C300   C303    1.489   .     S
C300   O348    1.222   .     D
C300   O544    1.399   .     S
C301   O335    1.223   .     D
C301   C305    1.490   .     S
C302   O338    1.401   .     S
C303   C924    1.389   .     S
C304   O340    1.400   .     S
C304   C517    1.489   .     S
C304   O549    1.215   .     S
C305   C925    1.387   1_554 S
C306   C512    1.485   .     S
C306   C517    1.353   .     S
C308   O346    1.288   .     A
C308   O344    1.291   .     A
C309   O347    1.289   .     A
C309   O345    1.289   .     A
H319   O334    1.014   .     S
H320   O336    1.014   .     S
H321   O338    1.011   .     S
H323   O340    1.014   .     S
H325   N402    1.029   .     S
N331   Zn350   2.021   .     S
N331   H394    1.029   .     S
N331   N402    1.275   .     S
N332   Zn349   2.021   .     S
O333   Zn349   1.923   .     S
O336   C511    1.399   .     S
O337   C512    1.222   .     S
O341   Zn350   1.923   .     S
O342   Zn350   1.955   .     S
O343   Zn349   1.955   .     S
O344   Zn349   2.007   .     S
O345   Zn350   2.007   .     S
O346   Zn350   2.028   .     S
O347   Zn349   2.028   .     S
C351   O412    1.293   .     A
C351   C376    1.435   .     S
C351   O403    1.284   .     A
C352   C354    1.409   .     A
C352   C367    1.522   .     S
C352   C363    1.403   .     A
C353   C380    1.406   .     A
C353   C355    1.411   .     A
C353   C379    1.435   .     S
C354   C378    1.436   .     S
C354   C356    1.411   .     A
C355   C357    1.404   .     A
C355   C368    1.526   .     S
C356   C358    1.401   .     A
C356   C369    1.522   .     S
C357   C359    1.416   .     A
C357   C364    1.403   .     A
C358   C360    1.414   .     A
C358   C365    1.404   .     A
C359   C361    1.418   .     A
C359   C990    1.402   1_554 S
C360   C363    1.417   .     A
C360   C989    1.402   .     S
C361   C375    1.417   .     A
C361   C380    1.401   .     A
C362   O411    1.281   .     A
C362   C377    1.453   .     S
C362   O413    1.304   .     A
C363   C373    1.418   .     A
C364   H381    1.079   .     S
C364   C1003   1.389   1_554 S
C365   H392    1.081   .     S
C365   C1005   1.387   .     S
C366   H398    1.111   .     S
C366   H397    1.107   .     S
C366   H396    1.109   .     S
C366   C380    1.522   .     S
C367   H400    1.110   .     S
C367   H382    1.107   .     S
C367   H399    1.109   .     S
C368   H384    1.111   .     S
C368   H383    1.104   .     S
C368   H385    1.107   .     S
C369   H386    1.106   .     S
C369   H388    1.099   .     S
C369   H387    1.111   .     S
C370   C373    1.489   .     S
C370   O418    1.222   .     D
C370   O614    1.399   .     S
C371   O405    1.223   .     D
C371   C375    1.490   .     S
C372   O408    1.401   .     S
C373   C994    1.389   .     S
C374   O410    1.400   .     S
C374   C587    1.489   .     S
C374   O619    1.215   .     S
C375   C995    1.387   1_554 S
C376   C582    1.485   .     S
C376   C587    1.353   .     S
C378   O416    1.288   .     A
C378   O414    1.291   .     A
C379   O417    1.289   .     A
C379   O415    1.289   .     A
H389   O404    1.014   .     S
H390   O406    1.014   .     S
H391   O408    1.011   .     S
H393   O410    1.014   .     S
H395   N262    1.029   1_655 S
N401   Zn420   2.021   .     S
N401   H254    1.029   1_655 S
N401   N262    1.275   1_655 S
N402   Zn419   2.021   .     S
O403   Zn419   1.923   .     S
O406   C581    1.399   .     S
O407   C582    1.222   .     S
O411   Zn420   1.923   .     S
O412   Zn420   1.955   .     S
O413   Zn419   1.955   .     S
O414   Zn419   2.007   .     S
O415   Zn420   2.007   .     S
O416   Zn420   2.028   .     S
O417   Zn419   2.028   .     S
C421   O482    1.293   .     A
C421   C446    1.435   .     S
C421   O473    1.284   .     A
C422   C424    1.409   .     A
C422   C437    1.522   .     S
C422   C433    1.403   .     A
C423   C450    1.406   .     A
C423   C425    1.411   .     A
C423   C449    1.435   .     S
C424   C448    1.436   .     S
C424   C426    1.411   .     A
C425   C427    1.404   .     A
C425   C438    1.526   .     S
C426   C428    1.401   .     A
C426   C439    1.522   .     S
C427   C429    1.416   .     A
C427   C434    1.403   .     A
C428   C430    1.414   .     A
C428   C435    1.404   .     A
C429   C431    1.418   .     A
C429   C1060   1.402   1_554 S
C430   C433    1.417   .     A
C430   C1059   1.402   .     S
C431   C445    1.417   .     A
C431   C450    1.401   .     A
C432   O481    1.281   .     A
C432   C447    1.453   .     S
C432   O483    1.304   .     A
C433   C443    1.418   .     A
C434   H451    1.079   .     S
C434   C1073   1.389   1_554 S
C435   H462    1.081   .     S
C435   C1075   1.387   .     S
C436   H468    1.111   .     S
C436   H467    1.107   .     S
C436   H466    1.109   .     S
C436   C450    1.522   .     S
C437   H470    1.110   .     S
C437   H452    1.107   .     S
C437   H469    1.109   .     S
C438   H454    1.111   .     S
C438   H453    1.104   .     S
C438   H455    1.107   .     S
C439   H456    1.106   .     S
C439   H458    1.099   .     S
C439   H457    1.111   .     S
C440   C443    1.489   .     S
C440   O488    1.222   .     D
C440   O54     1.399   1_565 S
C441   O475    1.223   .     D
C441   C445    1.490   .     S
C442   O478    1.401   .     S
C443   C1064   1.389   .     S
C444   O480    1.400   .     S
C444   C27     1.489   1_565 S
C444   O59     1.215   1_565 S
C445   C1065   1.387   1_554 S
C446   C22     1.485   1_565 S
C446   C27     1.353   1_565 S
C448   O486    1.288   .     A
C448   O484    1.291   .     A
C449   O487    1.289   .     A
C449   O485    1.289   .     A
H459   O474    1.014   .     S
H460   O476    1.014   .     S
H461   O478    1.011   .     S
H463   O480    1.014   .     S
H464   N611    1.029   1_455 S
H465   N542    1.029   .     S
N471   Zn490   2.021   .     S
N471   H534    1.029   .     S
N471   N542    1.275   .     S
N472   Zn489   2.021   .     S
N472   N611    1.275   1_455 S
N472   H605    1.029   1_455 S
O473   Zn489   1.923   .     S
O476   C21     1.399   1_565 S
O477   C22     1.222   1_565 S
O481   Zn490   1.923   .     S
O482   Zn490   1.955   .     S
O483   Zn489   1.955   .     S
O484   Zn489   2.007   .     S
O485   Zn490   2.007   .     S
O486   Zn490   2.028   .     S
O487   Zn489   2.028   .     S
C491   O552    1.293   .     A
C491   C516    1.435   .     S
C491   O543    1.284   .     A
C492   C494    1.409   .     A
C492   C507    1.522   .     S
C492   C503    1.403   .     A
C493   C520    1.406   .     A
C493   C495    1.411   .     A
C493   C519    1.435   .     S
C494   C518    1.436   .     S
C494   C496    1.411   .     A
C495   C497    1.404   .     A
C495   C508    1.526   .     S
C496   C498    1.401   .     A
C496   C509    1.522   .     S
C497   C499    1.416   .     A
C497   C504    1.403   .     A
C498   C500    1.414   .     A
C498   C505    1.404   .     A
C499   C501    1.418   .     A
C499   C1130   1.402   1_554 S
C500   C503    1.417   .     A
C500   C1129   1.402   .     S
C501   C515    1.417   .     A
C501   C520    1.401   .     A
C502   O551    1.281   .     A
C502   C517    1.453   .     S
C502   O553    1.304   .     A
C503   C513    1.418   .     A
C504   H521    1.079   .     S
C504   C1143   1.389   1_554 S
C505   H532    1.081   .     S
C505   C1145   1.387   .     S
C506   H538    1.111   .     S
C506   H537    1.107   .     S
C506   H536    1.109   .     S
C506   C520    1.522   .     S
C507   H540    1.110   .     S
C507   H522    1.107   .     S
C507   H539    1.109   .     S
C508   H524    1.111   .     S
C508   H523    1.104   .     S
C508   H525    1.107   .     S
C509   H526    1.106   .     S
C509   H528    1.099   .     S
C509   H527    1.111   .     S
C510   C513    1.489   .     S
C510   O558    1.222   .     D
C510   O124    1.399   1_565 S
C511   O545    1.223   .     D
C511   C515    1.490   .     S
C512   O548    1.401   .     S
C513   C1134   1.389   .     S
C514   O550    1.400   .     S
C514   C97     1.489   1_565 S
C514   O129    1.215   1_565 S
C515   C1135   1.387   1_554 S
C516   C92     1.485   1_565 S
C516   C97     1.353   1_565 S
C518   O556    1.288   .     A
C518   O554    1.291   .     A
C519   O557    1.289   .     A
C519   O555    1.289   .     A
H529   O544    1.014   .     S
H530   O546    1.014   .     S
H531   O548    1.011   .     S
H533   O550    1.014   .     S
H535   N612    1.029   .     S
N541   Zn560   2.021   .     S
N541   H604    1.029   .     S
N541   N612    1.275   .     S
N542   Zn559   2.021   .     S
O543   Zn559   1.923   .     S
O546   C91     1.399   1_565 S
O547   C92     1.222   1_565 S
O551   Zn560   1.923   .     S
O552   Zn560   1.955   .     S
O553   Zn559   1.955   .     S
O554   Zn559   2.007   .     S
O555   Zn560   2.007   .     S
O556   Zn560   2.028   .     S
O557   Zn559   2.028   .     S
C561   O622    1.293   .     A
C561   C586    1.435   .     S
C561   O613    1.284   .     A
C562   C564    1.409   .     A
C562   C577    1.522   .     S
C562   C573    1.403   .     A
C563   C590    1.406   .     A
C563   C565    1.411   .     A
C563   C589    1.435   .     S
C564   C588    1.436   .     S
C564   C566    1.411   .     A
C565   C567    1.404   .     A
C565   C578    1.526   .     S
C566   C568    1.401   .     A
C566   C579    1.522   .     S
C567   C569    1.416   .     A
C567   C574    1.403   .     A
C568   C570    1.414   .     A
C568   C575    1.404   .     A
C569   C571    1.418   .     A
C569   C1200   1.402   1_554 S
C570   C573    1.417   .     A
C570   C1199   1.402   .     S
C571   C585    1.417   .     A
C571   C590    1.401   .     A
C572   O621    1.281   .     A
C572   C587    1.453   .     S
C572   O623    1.304   .     A
C573   C583    1.418   .     A
C574   H591    1.079   .     S
C574   C1213   1.389   1_554 S
C575   H602    1.081   .     S
C575   C1215   1.387   .     S
C576   H608    1.111   .     S
C576   H607    1.107   .     S
C576   H606    1.109   .     S
C576   C590    1.522   .     S
C577   H610    1.110   .     S
C577   H592    1.107   .     S
C577   H609    1.109   .     S
C578   H594    1.111   .     S
C578   H593    1.104   .     S
C578   H595    1.107   .     S
C579   H596    1.106   .     S
C579   H598    1.099   .     S
C579   H597    1.111   .     S
C580   C583    1.489   .     S
C580   O628    1.222   .     D
C580   O194    1.399   1_565 S
C581   O615    1.223   .     D
C581   C585    1.490   .     S
C582   O618    1.401   .     S
C583   C1204   1.389   .     S
C584   O620    1.400   .     S
C584   C167    1.489   1_565 S
C584   O199    1.215   1_565 S
C585   C1205   1.387   1_554 S
C586   C162    1.485   1_565 S
C586   C167    1.353   1_565 S
C588   O626    1.288   .     A
C588   O624    1.291   .     A
C589   O627    1.289   .     A
C589   O625    1.289   .     A
H599   O614    1.014   .     S
H600   O616    1.014   .     S
H601   O618    1.011   .     S
H603   O620    1.014   .     S
H605   N472    1.029   1_655 S
N611   Zn630   2.021   .     S
N611   H464    1.029   1_655 S
N611   N472    1.275   1_655 S
N612   Zn629   2.021   .     S
O613   Zn629   1.923   .     S
O616   C161    1.399   1_565 S
O617   C162    1.222   1_565 S
O621   Zn630   1.923   .     S
O622   Zn630   1.955   .     S
O623   Zn629   1.955   .     S
O624   Zn629   2.007   .     S
O625   Zn630   2.007   .     S
O626   Zn630   2.028   .     S
O627   Zn629   2.028   .     S
C631   O692    1.293   .     A
C631   C656    1.435   .     S
C631   O683    1.284   .     A
C632   C634    1.409   .     A
C632   C647    1.522   .     S
C632   C643    1.403   .     A
C633   C660    1.406   .     A
C633   C635    1.411   .     A
C633   C659    1.435   .     S
C634   C658    1.436   .     S
C634   C636    1.411   .     A
C635   C637    1.404   .     A
C635   C648    1.526   .     S
C636   C638    1.401   .     A
C636   C649    1.522   .     S
C637   C639    1.416   .     A
C637   C644    1.403   .     A
C638   C640    1.414   .     A
C638   C645    1.404   .     A
C639   C641    1.418   .     A
C640   C643    1.417   .     A
C640   C9      1.402   1_556 S
C641   C655    1.417   .     A
C641   C660    1.401   .     A
C642   O691    1.281   .     A
C642   C657    1.453   .     S
C642   O693    1.304   .     A
C643   C653    1.418   .     A
C644   H661    1.079   .     S
C645   H672    1.081   .     S
C645   C25     1.387   1_556 S
C646   H678    1.111   .     S
C646   H677    1.107   .     S
C646   H676    1.109   .     S
C646   C660    1.522   .     S
C647   H680    1.110   .     S
C647   H662    1.107   .     S
C647   H679    1.109   .     S
C648   H664    1.111   .     S
C648   H663    1.104   .     S
C648   H665    1.107   .     S
C649   H666    1.106   .     S
C649   H668    1.099   .     S
C649   H667    1.111   .     S
C650   C653    1.489   .     S
C650   O698    1.222   .     D
C650   O894    1.399   .     S
C651   O685    1.223   .     D
C651   C655    1.490   .     S
C651   O1106   1.399   1_545 S
C652   O688    1.401   .     S
C652   C1076   1.485   1_545 S
C652   O1107   1.222   1_545 S
C653   C14     1.389   1_556 S
C654   O690    1.400   .     S
C654   C867    1.489   .     S
C654   O899    1.215   .     S
C656   C862    1.485   .     S
C656   C867    1.353   .     S
C657   C1076   1.353   1_545 S
C657   C1074   1.489   1_545 S
C658   O696    1.288   .     A
C658   O694    1.291   .     A
C659   O697    1.289   .     A
C659   O695    1.289   .     A
H669   O684    1.014   .     S
H670   O686    1.014   .     S
H671   O688    1.011   .     S
H673   O690    1.014   .     S
H674   N821    1.029   1_455 S
H675   N752    1.029   .     S
N681   Zn700   2.021   .     S
N681   H744    1.029   .     S
N681   N752    1.275   .     S
N682   Zn699   2.021   .     S
N682   N821    1.275   1_455 S
N682   H815    1.029   1_455 S
O683   Zn699   1.923   .     S
O684   C1070   1.399   1_545 S
O686   C861    1.399   .     S
O687   C862    1.222   .     S
O689   C1074   1.215   1_545 S
O691   Zn700   1.923   .     S
O692   Zn700   1.955   .     S
O693   Zn699   1.955   .     S
O694   Zn699   2.007   .     S
O695   Zn700   2.007   .     S
O696   Zn700   2.028   .     S
O697   Zn699   2.028   .     S
C701   O762    1.293   .     A
C701   C726    1.435   .     S
C701   O753    1.284   .     A
C702   C704    1.409   .     A
C702   C717    1.522   .     S
C702   C713    1.403   .     A
C703   C730    1.406   .     A
C703   C705    1.411   .     A
C703   C729    1.435   .     S
C704   C728    1.436   .     S
C704   C706    1.411   .     A
C705   C707    1.404   .     A
C705   C718    1.526   .     S
C706   C708    1.401   .     A
C706   C719    1.522   .     S
C707   C709    1.416   .     A
C707   C714    1.403   .     A
C708   C710    1.414   .     A
C708   C715    1.404   .     A
C709   C711    1.418   .     A
C710   C713    1.417   .     A
C710   C79     1.402   1_556 S
C711   C725    1.417   .     A
C711   C730    1.401   .     A
C712   O761    1.281   .     A
C712   C727    1.453   .     S
C712   O763    1.304   .     A
C713   C723    1.418   .     A
C714   H731    1.079   .     S
C715   H742    1.081   .     S
C715   C95     1.387   1_556 S
C716   H748    1.111   .     S
C716   H747    1.107   .     S
C716   H746    1.109   .     S
C716   C730    1.522   .     S
C717   H750    1.110   .     S
C717   H732    1.107   .     S
C717   H749    1.109   .     S
C718   H734    1.111   .     S
C718   H733    1.104   .     S
C718   H735    1.107   .     S
C719   H736    1.106   .     S
C719   H738    1.099   .     S
C719   H737    1.111   .     S
C720   C723    1.489   .     S
C720   O768    1.222   .     D
C720   O964    1.399   .     S
C721   O755    1.223   .     D
C721   C725    1.490   .     S
C721   O1176   1.399   1_545 S
C722   O758    1.401   .     S
C722   C1146   1.485   1_545 S
C722   O1177   1.222   1_545 S
C723   C84     1.389   1_556 S
C724   O760    1.400   .     S
C724   C937    1.489   .     S
C724   O969    1.215   .     S
C726   C932    1.485   .     S
C726   C937    1.353   .     S
C727   C1146   1.353   1_545 S
C727   C1144   1.489   1_545 S
C728   O766    1.288   .     A
C728   O764    1.291   .     A
C729   O767    1.289   .     A
C729   O765    1.289   .     A
H739   O754    1.014   .     S
H740   O756    1.014   .     S
H741   O758    1.011   .     S
H743   O760    1.014   .     S
H745   N822    1.029   .     S
N751   Zn770   2.021   .     S
N751   H814    1.029   .     S
N751   N822    1.275   .     S
N752   Zn769   2.021   .     S
O753   Zn769   1.923   .     S
O754   C1140   1.399   1_545 S
O756   C931    1.399   .     S
O757   C932    1.222   .     S
O759   C1144   1.215   1_545 S
O761   Zn770   1.923   .     S
O762   Zn770   1.955   .     S
O763   Zn769   1.955   .     S
O764   Zn769   2.007   .     S
O765   Zn770   2.007   .     S
O766   Zn770   2.028   .     S
O767   Zn769   2.028   .     S
C771   O832    1.293   .     A
C771   C796    1.435   .     S
C771   O823    1.284   .     A
C772   C774    1.409   .     A
C772   C787    1.522   .     S
C772   C783    1.403   .     A
C773   C800    1.406   .     A
C773   C775    1.411   .     A
C773   C799    1.435   .     S
C774   C798    1.436   .     S
C774   C776    1.411   .     A
C775   C777    1.404   .     A
C775   C788    1.526   .     S
C776   C778    1.401   .     A
C776   C789    1.522   .     S
C777   C779    1.416   .     A
C777   C784    1.403   .     A
C778   C780    1.414   .     A
C778   C785    1.404   .     A
C779   C781    1.418   .     A
C780   C783    1.417   .     A
C780   C149    1.402   1_556 S
C781   C795    1.417   .     A
C781   C800    1.401   .     A
C782   O831    1.281   .     A
C782   C797    1.453   .     S
C782   O833    1.304   .     A
C783   C793    1.418   .     A
C784   H801    1.079   .     S
C785   H812    1.081   .     S
C785   C165    1.387   1_556 S
C786   H818    1.111   .     S
C786   H817    1.107   .     S
C786   H816    1.109   .     S
C786   C800    1.522   .     S
C787   H820    1.110   .     S
C787   H802    1.107   .     S
C787   H819    1.109   .     S
C788   H804    1.111   .     S
C788   H803    1.104   .     S
C788   H805    1.107   .     S
C789   H806    1.106   .     S
C789   H808    1.099   .     S
C789   H807    1.111   .     S
C790   C793    1.489   .     S
C790   O838    1.222   .     D
C790   O1034   1.399   .     S
C791   O825    1.223   .     D
C791   C795    1.490   .     S
C791   O1246   1.399   1_545 S
C792   O828    1.401   .     S
C792   C1216   1.485   1_545 S
C792   O1247   1.222   1_545 S
C793   C154    1.389   1_556 S
C794   O830    1.400   .     S
C794   C1007   1.489   .     S
C794   O1039   1.215   .     S
C796   C1002   1.485   .     S
C796   C1007   1.353   .     S
C797   C1216   1.353   1_545 S
C797   C1214   1.489   1_545 S
C798   O836    1.288   .     A
C798   O834    1.291   .     A
C799   O837    1.289   .     A
C799   O835    1.289   .     A
H809   O824    1.014   .     S
H810   O826    1.014   .     S
H811   O828    1.011   .     S
H813   O830    1.014   .     S
H815   N682    1.029   1_655 S
N821   Zn840   2.021   .     S
N821   H674    1.029   1_655 S
N821   N682    1.275   1_655 S
N822   Zn839   2.021   .     S
O823   Zn839   1.923   .     S
O824   C1210   1.399   1_545 S
O826   C1001   1.399   .     S
O827   C1002   1.222   .     S
O829   C1214   1.215   1_545 S
O831   Zn840   1.923   .     S
O832   Zn840   1.955   .     S
O833   Zn839   1.955   .     S
O834   Zn839   2.007   .     S
O835   Zn840   2.007   .     S
O836   Zn840   2.028   .     S
O837   Zn839   2.028   .     S
C841   O902    1.293   .     A
C841   C866    1.435   .     S
C841   O893    1.284   .     A
C842   C844    1.409   .     A
C842   C857    1.522   .     S
C842   C853    1.403   .     A
C843   C870    1.406   .     A
C843   C845    1.411   .     A
C843   C869    1.435   .     S
C844   C868    1.436   .     S
C844   C846    1.411   .     A
C845   C847    1.404   .     A
C845   C858    1.526   .     S
C846   C848    1.401   .     A
C846   C859    1.522   .     S
C847   C849    1.416   .     A
C847   C854    1.403   .     A
C848   C850    1.414   .     A
C848   C855    1.404   .     A
C849   C851    1.418   .     A
C850   C853    1.417   .     A
C850   C219    1.402   1_556 S
C851   C865    1.417   .     A
C851   C870    1.401   .     A
C852   O901    1.281   .     A
C852   C867    1.453   .     S
C852   O903    1.304   .     A
C853   C863    1.418   .     A
C854   H871    1.079   .     S
C855   H882    1.081   .     S
C855   C235    1.387   1_556 S
C856   H888    1.111   .     S
C856   H887    1.107   .     S
C856   H886    1.109   .     S
C856   C870    1.522   .     S
C857   H890    1.110   .     S
C857   H872    1.107   .     S
C857   H889    1.109   .     S
C858   H874    1.111   .     S
C858   H873    1.104   .     S
C858   H875    1.107   .     S
C859   H876    1.106   .     S
C859   H878    1.099   .     S
C859   H877    1.111   .     S
C860   C863    1.489   .     S
C860   O908    1.222   .     D
C860   O1104   1.399   .     S
C861   O895    1.223   .     D
C861   C865    1.490   .     S
C862   O898    1.401   .     S
C863   C224    1.389   1_556 S
C864   O900    1.400   .     S
C864   C1077   1.489   .     S
C864   O1109   1.215   .     S
C866   C1072   1.485   .     S
C866   C1077   1.353   .     S
C868   O906    1.288   .     A
C868   O904    1.291   .     A
C869   O907    1.289   .     A
C869   O905    1.289   .     A
H879   O894    1.014   .     S
H880   O896    1.014   .     S
H881   O898    1.011   .     S
H883   O900    1.014   .     S
H884   N1031   1.029   1_455 S
H885   N962    1.029   .     S
N891   Zn910   2.021   .     S
N891   H954    1.029   .     S
N891   N962    1.275   .     S
N892   Zn909   2.021   .     S
N892   N1031   1.275   1_455 S
N892   H1025   1.029   1_455 S
O893   Zn909   1.923   .     S
O896   C1071   1.399   .     S
O897   C1072   1.222   .     S
O901   Zn910   1.923   .     S
O902   Zn910   1.955   .     S
O903   Zn909   1.955   .     S
O904   Zn909   2.007   .     S
O905   Zn910   2.007   .     S
O906   Zn910   2.028   .     S
O907   Zn909   2.028   .     S
C911   O972    1.293   .     A
C911   C936    1.435   .     S
C911   O963    1.284   .     A
C912   C914    1.409   .     A
C912   C927    1.522   .     S
C912   C923    1.403   .     A
C913   C940    1.406   .     A
C913   C915    1.411   .     A
C913   C939    1.435   .     S
C914   C938    1.436   .     S
C914   C916    1.411   .     A
C915   C917    1.404   .     A
C915   C928    1.526   .     S
C916   C918    1.401   .     A
C916   C929    1.522   .     S
C917   C919    1.416   .     A
C917   C924    1.403   .     A
C918   C920    1.414   .     A
C918   C925    1.404   .     A
C919   C921    1.418   .     A
C920   C923    1.417   .     A
C920   C289    1.402   1_556 S
C921   C935    1.417   .     A
C921   C940    1.401   .     A
C922   O971    1.281   .     A
C922   C937    1.453   .     S
C922   O973    1.304   .     A
C923   C933    1.418   .     A
C924   H941    1.079   .     S
C925   H952    1.081   .     S
C925   C305    1.387   1_556 S
C926   H958    1.111   .     S
C926   H957    1.107   .     S
C926   H956    1.109   .     S
C926   C940    1.522   .     S
C927   H960    1.110   .     S
C927   H942    1.107   .     S
C927   H959    1.109   .     S
C928   H944    1.111   .     S
C928   H943    1.104   .     S
C928   H945    1.107   .     S
C929   H946    1.106   .     S
C929   H948    1.099   .     S
C929   H947    1.111   .     S
C930   C933    1.489   .     S
C930   O978    1.222   .     D
C930   O1174   1.399   .     S
C931   O965    1.223   .     D
C931   C935    1.490   .     S
C932   O968    1.401   .     S
C933   C294    1.389   1_556 S
C934   O970    1.400   .     S
C934   C1147   1.489   .     S
C934   O1179   1.215   .     S
C936   C1142   1.485   .     S
C936   C1147   1.353   .     S
C938   O976    1.288   .     A
C938   O974    1.291   .     A
C939   O977    1.289   .     A
C939   O975    1.289   .     A
H949   O964    1.014   .     S
H950   O966    1.014   .     S
H951   O968    1.011   .     S
H953   O970    1.014   .     S
H955   N1032   1.029   .     S
N961   Zn980   2.021   .     S
N961   H1024   1.029   .     S
N961   N1032   1.275   .     S
N962   Zn979   2.021   .     S
O963   Zn979   1.923   .     S
O966   C1141   1.399   .     S
O967   C1142   1.222   .     S
O971   Zn980   1.923   .     S
O972   Zn980   1.955   .     S
O973   Zn979   1.955   .     S
O974   Zn979   2.007   .     S
O975   Zn980   2.007   .     S
O976   Zn980   2.028   .     S
O977   Zn979   2.028   .     S
C981   O1042   1.293   .     A
C981   C1006   1.435   .     S
C981   O1033   1.284   .     A
C982   C984    1.409   .     A
C982   C997    1.522   .     S
C982   C993    1.403   .     A
C983   C1010   1.406   .     A
C983   C985    1.411   .     A
C983   C1009   1.435   .     S
C984   C1008   1.436   .     S
C984   C986    1.411   .     A
C985   C987    1.404   .     A
C985   C998    1.526   .     S
C986   C988    1.401   .     A
C986   C999    1.522   .     S
C987   C989    1.416   .     A
C987   C994    1.403   .     A
C988   C990    1.414   .     A
C988   C995    1.404   .     A
C989   C991    1.418   .     A
C990   C993    1.417   .     A
C990   C359    1.402   1_556 S
C991   C1005   1.417   .     A
C991   C1010   1.401   .     A
C992   O1041   1.281   .     A
C992   C1007   1.453   .     S
C992   O1043   1.304   .     A
C993   C1003   1.418   .     A
C994   H1011   1.079   .     S
C995   H1022   1.081   .     S
C995   C375    1.387   1_556 S
C996   H1028   1.111   .     S
C996   H1027   1.107   .     S
C996   H1026   1.109   .     S
C996   C1010   1.522   .     S
C997   H1030   1.110   .     S
C997   H1012   1.107   .     S
C997   H1029   1.109   .     S
C998   H1014   1.111   .     S
C998   H1013   1.104   .     S
C998   H1015   1.107   .     S
C999   H1016   1.106   .     S
C999   H1018   1.099   .     S
C999   H1017   1.111   .     S
C1000  C1003   1.489   .     S
C1000  O1048   1.222   .     D
C1000  O1244   1.399   .     S
C1001  O1035   1.223   .     D
C1001  C1005   1.490   .     S
C1002  O1038   1.401   .     S
C1003  C364    1.389   1_556 S
C1004  O1040   1.400   .     S
C1004  C1217   1.489   .     S
C1004  O1249   1.215   .     S
C1006  C1212   1.485   .     S
C1006  C1217   1.353   .     S
C1008  O1046   1.288   .     A
C1008  O1044   1.291   .     A
C1009  O1047   1.289   .     A
C1009  O1045   1.289   .     A
H1019  O1034   1.014   .     S
H1020  O1036   1.014   .     S
H1021  O1038   1.011   .     S
H1023  O1040   1.014   .     S
H1025  N892    1.029   1_655 S
N1031  Zn1050  2.021   .     S
N1031  H884    1.029   1_655 S
N1031  N892    1.275   1_655 S
N1032  Zn1049  2.021   .     S
O1033  Zn1049  1.923   .     S
O1036  C1211   1.399   .     S
O1037  C1212   1.222   .     S
O1041  Zn1050  1.923   .     S
O1042  Zn1050  1.955   .     S
O1043  Zn1049  1.955   .     S
O1044  Zn1049  2.007   .     S
O1045  Zn1050  2.007   .     S
O1046  Zn1050  2.028   .     S
O1047  Zn1049  2.028   .     S
C1051  O1112   1.293   .     A
C1051  C1076   1.435   .     S
C1051  O1103   1.284   .     A
C1052  C1054   1.409   .     A
C1052  C1067   1.522   .     S
C1052  C1063   1.403   .     A
C1053  C1080   1.406   .     A
C1053  C1055   1.411   .     A
C1053  C1079   1.435   .     S
C1054  C1078   1.436   .     S
C1054  C1056   1.411   .     A
C1055  C1057   1.404   .     A
C1055  C1068   1.526   .     S
C1056  C1058   1.401   .     A
C1056  C1069   1.522   .     S
C1057  C1059   1.416   .     A
C1057  C1064   1.403   .     A
C1058  C1060   1.414   .     A
C1058  C1065   1.404   .     A
C1059  C1061   1.418   .     A
C1060  C1063   1.417   .     A
C1060  C429    1.402   1_556 S
C1061  C1075   1.417   .     A
C1061  C1080   1.401   .     A
C1062  O1111   1.281   .     A
C1062  C1077   1.453   .     S
C1062  O1113   1.304   .     A
C1063  C1073   1.418   .     A
C1064  H1081   1.079   .     S
C1065  H1092   1.081   .     S
C1065  C445    1.387   1_556 S
C1066  H1098   1.111   .     S
C1066  H1097   1.107   .     S
C1066  H1096   1.109   .     S
C1066  C1080   1.522   .     S
C1067  H1100   1.110   .     S
C1067  H1082   1.107   .     S
C1067  H1099   1.109   .     S
C1068  H1084   1.111   .     S
C1068  H1083   1.104   .     S
C1068  H1085   1.107   .     S
C1069  H1086   1.106   .     S
C1069  H1088   1.099   .     S
C1069  H1087   1.111   .     S
C1070  C1073   1.489   .     S
C1070  O1118   1.222   .     D
C1070  O684    1.399   1_565 S
C1071  O1105   1.223   .     D
C1071  C1075   1.490   .     S
C1072  O1108   1.401   .     S
C1073  C434    1.389   1_556 S
C1074  O1110   1.400   .     S
C1074  C657    1.489   1_565 S
C1074  O689    1.215   1_565 S
C1076  C652    1.485   1_565 S
C1076  C657    1.353   1_565 S
C1078  O1116   1.288   .     A
C1078  O1114   1.291   .     A
C1079  O1117   1.289   .     A
C1079  O1115   1.289   .     A
H1089  O1104   1.014   .     S
H1090  O1106   1.014   .     S
H1091  O1108   1.011   .     S
H1093  O1110   1.014   .     S
H1094  N1241   1.029   1_455 S
H1095  N1172   1.029   .     S
N1101  Zn1120  2.021   .     S
N1101  H1164   1.029   .     S
N1101  N1172   1.275   .     S
N1102  Zn1119  2.021   .     S
N1102  N1241   1.275   1_455 S
N1102  H1235   1.029   1_455 S
O1103  Zn1119  1.923   .     S
O1106  C651    1.399   1_565 S
O1107  C652    1.222   1_565 S
O1111  Zn1120  1.923   .     S
O1112  Zn1120  1.955   .     S
O1113  Zn1119  1.955   .     S
O1114  Zn1119  2.007   .     S
O1115  Zn1120  2.007   .     S
O1116  Zn1120  2.028   .     S
O1117  Zn1119  2.028   .     S
C1121  O1182   1.293   .     A
C1121  C1146   1.435   .     S
C1121  O1173   1.284   .     A
C1122  C1124   1.409   .     A
C1122  C1137   1.522   .     S
C1122  C1133   1.403   .     A
C1123  C1150   1.406   .     A
C1123  C1125   1.411   .     A
C1123  C1149   1.435   .     S
C1124  C1148   1.436   .     S
C1124  C1126   1.411   .     A
C1125  C1127   1.404   .     A
C1125  C1138   1.526   .     S
C1126  C1128   1.401   .     A
C1126  C1139   1.522   .     S
C1127  C1129   1.416   .     A
C1127  C1134   1.403   .     A
C1128  C1130   1.414   .     A
C1128  C1135   1.404   .     A
C1129  C1131   1.418   .     A
C1130  C1133   1.417   .     A
C1130  C499    1.402   1_556 S
C1131  C1145   1.417   .     A
C1131  C1150   1.401   .     A
C1132  O1181   1.281   .     A
C1132  C1147   1.453   .     S
C1132  O1183   1.304   .     A
C1133  C1143   1.418   .     A
C1134  H1151   1.079   .     S
C1135  H1162   1.081   .     S
C1135  C515    1.387   1_556 S
C1136  H1168   1.111   .     S
C1136  H1167   1.107   .     S
C1136  H1166   1.109   .     S
C1136  C1150   1.522   .     S
C1137  H1170   1.110   .     S
C1137  H1152   1.107   .     S
C1137  H1169   1.109   .     S
C1138  H1154   1.111   .     S
C1138  H1153   1.104   .     S
C1138  H1155   1.107   .     S
C1139  H1156   1.106   .     S
C1139  H1158   1.099   .     S
C1139  H1157   1.111   .     S
C1140  C1143   1.489   .     S
C1140  O1188   1.222   .     D
C1140  O754    1.399   1_565 S
C1141  O1175   1.223   .     D
C1141  C1145   1.490   .     S
C1142  O1178   1.401   .     S
C1143  C504    1.389   1_556 S
C1144  O1180   1.400   .     S
C1144  C727    1.489   1_565 S
C1144  O759    1.215   1_565 S
C1146  C722    1.485   1_565 S
C1146  C727    1.353   1_565 S
C1148  O1186   1.288   .     A
C1148  O1184   1.291   .     A
C1149  O1187   1.289   .     A
C1149  O1185   1.289   .     A
H1159  O1174   1.014   .     S
H1160  O1176   1.014   .     S
H1161  O1178   1.011   .     S
H1163  O1180   1.014   .     S
H1165  N1242   1.029   .     S
N1171  Zn1190  2.021   .     S
N1171  H1234   1.029   .     S
N1171  N1242   1.275   .     S
N1172  Zn1189  2.021   .     S
O1173  Zn1189  1.923   .     S
O1176  C721    1.399   1_565 S
O1177  C722    1.222   1_565 S
O1181  Zn1190  1.923   .     S
O1182  Zn1190  1.955   .     S
O1183  Zn1189  1.955   .     S
O1184  Zn1189  2.007   .     S
O1185  Zn1190  2.007   .     S
O1186  Zn1190  2.028   .     S
O1187  Zn1189  2.028   .     S
C1191  O1252   1.293   .     A
C1191  C1216   1.435   .     S
C1191  O1243   1.284   .     A
C1192  C1194   1.409   .     A
C1192  C1207   1.522   .     S
C1192  C1203   1.403   .     A
C1193  C1220   1.406   .     A
C1193  C1195   1.411   .     A
C1193  C1219   1.435   .     S
C1194  C1218   1.436   .     S
C1194  C1196   1.411   .     A
C1195  C1197   1.404   .     A
C1195  C1208   1.526   .     S
C1196  C1198   1.401   .     A
C1196  C1209   1.522   .     S
C1197  C1199   1.416   .     A
C1197  C1204   1.403   .     A
C1198  C1200   1.414   .     A
C1198  C1205   1.404   .     A
C1199  C1201   1.418   .     A
C1200  C1203   1.417   .     A
C1200  C569    1.402   1_556 S
C1201  C1215   1.417   .     A
C1201  C1220   1.401   .     A
C1202  O1251   1.281   .     A
C1202  C1217   1.453   .     S
C1202  O1253   1.304   .     A
C1203  C1213   1.418   .     A
C1204  H1221   1.079   .     S
C1205  H1232   1.081   .     S
C1205  C585    1.387   1_556 S
C1206  H1238   1.111   .     S
C1206  H1237   1.107   .     S
C1206  H1236   1.109   .     S
C1206  C1220   1.522   .     S
C1207  H1240   1.110   .     S
C1207  H1222   1.107   .     S
C1207  H1239   1.109   .     S
C1208  H1224   1.111   .     S
C1208  H1223   1.104   .     S
C1208  H1225   1.107   .     S
C1209  H1226   1.106   .     S
C1209  H1228   1.099   .     S
C1209  H1227   1.111   .     S
C1210  C1213   1.489   .     S
C1210  O1258   1.222   .     D
C1210  O824    1.399   1_565 S
C1211  O1245   1.223   .     D
C1211  C1215   1.490   .     S
C1212  O1248   1.401   .     S
C1213  C574    1.389   1_556 S
C1214  O1250   1.400   .     S
C1214  C797    1.489   1_565 S
C1214  O829    1.215   1_565 S
C1216  C792    1.485   1_565 S
C1216  C797    1.353   1_565 S
C1218  O1256   1.288   .     A
C1218  O1254   1.291   .     A
C1219  O1257   1.289   .     A
C1219  O1255   1.289   .     A
H1229  O1244   1.014   .     S
H1230  O1246   1.014   .     S
H1231  O1248   1.011   .     S
H1233  O1250   1.014   .     S
H1235  N1102   1.029   1_655 S
N1241  Zn1260  2.021   .     S
N1241  H1094   1.029   1_655 S
N1241  N1102   1.275   1_655 S
N1242  Zn1259  2.021   .     S
O1243  Zn1259  1.923   .     S
O1246  C791    1.399   1_565 S
O1247  C792    1.222   1_565 S
O1251  Zn1260  1.923   .     S
O1252  Zn1260  1.955   .     S
O1253  Zn1259  1.955   .     S
O1254  Zn1259  2.007   .     S
O1255  Zn1260  2.007   .     S
O1256  Zn1260  2.028   .     S
O1257  Zn1259  2.028   .     S
