data_str_m3_o1_o2_pcu_sym.81
_audit_creation_date              2020-01-03
_audit_creation_method            'Materials Studio'
_symmetry_space_group_name_H-M    'P1'
_symmetry_Int_Tables_number       1
_symmetry_cell_setting            triclinic
loop_
_symmetry_equiv_pos_as_xyz
  x,y,z
_cell_length_a                    32.0118
_cell_length_b                    29.4048
_cell_length_c                    30.2545
_cell_angle_alpha                 88.7469
_cell_angle_beta                  90.0293
_cell_angle_gamma                 89.9242
loop_
_atom_site_label
_atom_site_type_symbol
_atom_site_fract_x
_atom_site_fract_y
_atom_site_fract_z
_atom_site_U_iso_or_equiv
_atom_site_adp_type
_atom_site_occupancy
C1     C     0.08669   0.16670   0.24996   0.00000  Uiso   1.00
C2     C     0.31124   0.19165   0.21754   0.00000  Uiso   1.00
C3     C     0.31197   0.14130   0.28364   0.00000  Uiso   1.00
C4     C     0.02126   0.19174   0.21729   0.00000  Uiso   1.00
C5     C     0.15490   0.20518   0.04598   0.00000  Uiso   1.00
C6     C     0.15717   0.12655   0.45424   0.00000  Uiso   1.00
C7     C     0.18174   0.20412   0.45323   0.00000  Uiso   1.00
C8     C     0.18375   0.12920   0.04737   0.00000  Uiso   1.00
C9     C     0.16178   0.20882   0.09095   0.00000  Uiso   1.00
C10    C     0.16362   0.12378   0.40909   0.00000  Uiso   1.00
C11    C     0.18533   0.20440   0.40752   0.00000  Uiso   1.00
C12    C     0.24656   0.16657   0.25064   0.00000  Uiso   1.00
C13    C     0.18781   0.12977   0.09303   0.00000  Uiso   1.00
C14    C     0.17355   0.16891   0.11570   0.00000  Uiso   1.00
C15    C     0.17333   0.16453   0.38449   0.00000  Uiso   1.00
C16    C     0.16628   0.16598   0.02418   0.00000  Uiso   1.00
C17    C     0.16646   0.16617   0.47623   0.00000  Uiso   1.00
C18    C     0.29058   0.16639   0.25065   0.00000  Uiso   1.00
C19    C     0.04252   0.16678   0.25022   0.00000  Uiso   1.00
C20    C     0.16246   0.25712   0.10816   0.00000  Uiso   1.00
C21    C     0.11938   0.27308   0.12350   0.00000  Uiso   1.00
C22    C     0.11947   0.32400   0.13241   0.00000  Uiso   1.00
C23    C     0.16923   0.16732   0.16382   0.00000  Uiso   1.00
C24    C     0.16465   0.07576   0.39123   0.00000  Uiso   1.00
C25    C     0.12138   0.05960   0.37671   0.00000  Uiso   1.00
C26    C     0.12186   0.00902   0.36646   0.00000  Uiso   1.00
C27    C     0.20512   0.24672   0.38625   0.00000  Uiso   1.00
C28    C     0.24806   0.23617   0.36629   0.00000  Uiso   1.00
C29    C     0.27105   0.27965   0.35250   0.00000  Uiso   1.00
C30    C     0.21127   0.09001   0.11479   0.00000  Uiso   1.00
C31    C     0.25304   0.10560   0.13432   0.00000  Uiso   1.00
C32    C     0.27857   0.06541   0.15226   0.00000  Uiso   1.00
C33    C     0.16922   0.16605   0.33625   0.00000  Uiso   1.00
C34    C     0.20335   0.02390   0.25078   0.00000  Uiso   1.00
C35    C     0.12994   0.30940   0.24941   0.00000  Uiso   1.00
C36    C     0.12994   0.02406   0.24927   0.00000  Uiso   1.00
C37    C     0.20336   0.30929   0.25037   0.00000  Uiso   1.00
C38    C     0.02178   0.14179   0.28340   0.00000  Uiso   1.00
H39    H     0.23272   0.04184   0.25170   0.00000  Uiso   1.00
H40    H     0.12481   0.01043   0.10122   0.00000  Uiso   1.00
H41    H     0.08885   0.00079   0.14639   0.00000  Uiso   1.00
H42    H     0.09551   0.26605   0.09784   0.00000  Uiso   1.00
H43    H     0.11065   0.25458   0.15432   0.00000  Uiso   1.00
H44    H     0.18646   0.26137   0.13418   0.00000  Uiso   1.00
H45    H     0.17325   0.28062   0.08114   0.00000  Uiso   1.00
H46    H     0.14623   0.00180   0.34150   0.00000  Uiso   1.00
H47    H     0.12836   0.32185   0.39697   0.00000  Uiso   1.00
H48    H     0.09099   0.33219   0.35317   0.00000  Uiso   1.00
H49    H     0.09813   0.06557   0.40325   0.00000  Uiso   1.00
H50    H     0.10053   0.29143   0.24888   0.00000  Uiso   1.00
H51    H     0.11149   0.07882   0.34667   0.00000  Uiso   1.00
H52    H     0.18824   0.07209   0.36471   0.00000  Uiso   1.00
H53    H     0.17622   0.05200   0.41770   0.00000  Uiso   1.00
H54    H     0.25153   0.30067   0.32965   0.00000  Uiso   1.00
H55    H     0.27867   0.29984   0.38203   0.00000  Uiso   1.00
H56    H     0.30060   0.27082   0.33546   0.00000  Uiso   1.00
H57    H     0.26748   0.21714   0.39095   0.00000  Uiso   1.00
H58    H     0.24442   0.21479   0.33688   0.00000  Uiso   1.00
H59    H     0.18414   0.26317   0.36161   0.00000  Uiso   1.00
H60    H     0.20974   0.27335   0.41136   0.00000  Uiso   1.00
H61    H     0.10053   0.04213   0.24873   0.00000  Uiso   1.00
H62    H     0.26035   0.04578   0.17730   0.00000  Uiso   1.00
H63    H     0.28735   0.04260   0.12499   0.00000  Uiso   1.00
H64    H     0.30753   0.07807   0.16801   0.00000  Uiso   1.00
H65    H     0.27158   0.12368   0.10832   0.00000  Uiso   1.00
H66    H     0.24754   0.12949   0.16152   0.00000  Uiso   1.00
H67    H     0.19189   0.07192   0.13984   0.00000  Uiso   1.00
H68    H     0.21834   0.06362   0.09007   0.00000  Uiso   1.00
H69    H     0.03662   0.08338   0.31644   0.00000  Uiso   1.00
H70    H     0.03613   0.13038   0.34793   0.00000  Uiso   1.00
H71    H     0.29595   0.20376   0.15308   0.00000  Uiso   1.00
H72    H     0.23277   0.29121   0.25049   0.00000  Uiso   1.00
H73    H     0.29555   0.25054   0.18517   0.00000  Uiso   1.00
H74    H     0.27428   0.08936   0.30419   0.00000  Uiso   1.00
H75    H     0.26956   0.13766   0.33378   0.00000  Uiso   1.00
H76    H     0.03583   0.25033   0.18416   0.00000  Uiso   1.00
H77    H     0.03580   0.20312   0.15265   0.00000  Uiso   1.00
H78    H     0.14327   0.23444   0.02726   0.00000  Uiso   1.00
H79    H     0.14710   0.09658   0.47285   0.00000  Uiso   1.00
H80    H     0.19227   0.23333   0.47140   0.00000  Uiso   1.00
H81    H     0.19589   0.10057   0.02941   0.00000  Uiso   1.00
H82    H     0.14445   0.33232   0.15637   0.00000  Uiso   1.00
N83    N     0.16667   0.28573   0.25000   0.00000  Uiso   1.00
N84    N     0.16667   0.04760   0.25000   0.00000  Uiso   1.00
N85    N     0.04483   0.11776   0.31722   0.00000  Uiso   1.00
N86    N     0.28783   0.21606   0.18407   0.00000  Uiso   1.00
N87    N     0.29066   0.11620   0.31812   0.00000  Uiso   1.00
N88    N     0.04402   0.21593   0.18341   0.00000  Uiso   1.00
O89    O     0.10559   0.20487   0.25000   0.00000  Uiso   1.00
O90    O     0.22774   0.12846   0.25001   0.00000  Uiso   1.00
O91    O     0.22774   0.20487   0.25001   0.00000  Uiso   1.00
O92    O     0.10559   0.12846   0.25000   0.00000  Uiso   1.00
O93    O     0.16666   0.20489   0.18453   0.00000  Uiso   1.00
O94    O     0.16667   0.12845   0.31547   0.00000  Uiso   1.00
O95    O     0.16667   0.20489   0.31547   0.00000  Uiso   1.00
O96    O     0.16666   0.12845   0.18453   0.00000  Uiso   1.00
Zn97   Zn    0.16667   0.21771   0.25000   0.00000  Uiso   1.00
Zn98   Zn    0.16667   0.11563   0.25000   0.00000  Uiso   1.00
C99    C     0.42003   0.16670   0.24996   0.00000  Uiso   1.00
C100   C     0.64457   0.19165   0.21754   0.00000  Uiso   1.00
C101   C     0.64531   0.14130   0.28364   0.00000  Uiso   1.00
C102   C     0.35459   0.19174   0.21729   0.00000  Uiso   1.00
C103   C     0.48823   0.20518   0.04598   0.00000  Uiso   1.00
C104   C     0.49051   0.12655   0.45424   0.00000  Uiso   1.00
C105   C     0.51507   0.20412   0.45323   0.00000  Uiso   1.00
C106   C     0.51709   0.12920   0.04737   0.00000  Uiso   1.00
C107   C     0.49512   0.20882   0.09095   0.00000  Uiso   1.00
C108   C     0.49696   0.12378   0.40909   0.00000  Uiso   1.00
C109   C     0.51866   0.20440   0.40752   0.00000  Uiso   1.00
C110   C     0.57989   0.16657   0.25064   0.00000  Uiso   1.00
C111   C     0.52114   0.12977   0.09303   0.00000  Uiso   1.00
C112   C     0.50688   0.16891   0.11570   0.00000  Uiso   1.00
C113   C     0.50666   0.16453   0.38449   0.00000  Uiso   1.00
C114   C     0.49961   0.16598   0.02418   0.00000  Uiso   1.00
C115   C     0.49979   0.16617   0.47623   0.00000  Uiso   1.00
C116   C     0.62391   0.16639   0.25065   0.00000  Uiso   1.00
C117   C     0.37585   0.16678   0.25022   0.00000  Uiso   1.00
C118   C     0.49579   0.25712   0.10816   0.00000  Uiso   1.00
C119   C     0.45272   0.27308   0.12350   0.00000  Uiso   1.00
C120   C     0.45280   0.32400   0.13241   0.00000  Uiso   1.00
C121   C     0.50256   0.16732   0.16382   0.00000  Uiso   1.00
C122   C     0.49799   0.07576   0.39123   0.00000  Uiso   1.00
C123   C     0.45471   0.05960   0.37671   0.00000  Uiso   1.00
C124   C     0.45519   0.00902   0.36646   0.00000  Uiso   1.00
C125   C     0.53846   0.24672   0.38625   0.00000  Uiso   1.00
C126   C     0.58139   0.23617   0.36629   0.00000  Uiso   1.00
C127   C     0.60438   0.27965   0.35250   0.00000  Uiso   1.00
C128   C     0.54461   0.09001   0.11479   0.00000  Uiso   1.00
C129   C     0.58638   0.10560   0.13432   0.00000  Uiso   1.00
C130   C     0.61190   0.06541   0.15226   0.00000  Uiso   1.00
C131   C     0.50255   0.16605   0.33625   0.00000  Uiso   1.00
C132   C     0.53668   0.02390   0.25078   0.00000  Uiso   1.00
C133   C     0.46327   0.30940   0.24941   0.00000  Uiso   1.00
C134   C     0.46328   0.02406   0.24927   0.00000  Uiso   1.00
C135   C     0.53669   0.30929   0.25037   0.00000  Uiso   1.00
C136   C     0.35511   0.14179   0.28340   0.00000  Uiso   1.00
H137   H     0.56606   0.04184   0.25170   0.00000  Uiso   1.00
H138   H     0.45815   0.01043   0.10122   0.00000  Uiso   1.00
H139   H     0.42218   0.00079   0.14639   0.00000  Uiso   1.00
H140   H     0.42884   0.26605   0.09784   0.00000  Uiso   1.00
H141   H     0.44398   0.25458   0.15432   0.00000  Uiso   1.00
H142   H     0.51980   0.26137   0.13418   0.00000  Uiso   1.00
H143   H     0.50658   0.28062   0.08114   0.00000  Uiso   1.00
H144   H     0.47957   0.00180   0.34150   0.00000  Uiso   1.00
H145   H     0.46169   0.32185   0.39697   0.00000  Uiso   1.00
H146   H     0.42433   0.33219   0.35317   0.00000  Uiso   1.00
H147   H     0.43147   0.06557   0.40325   0.00000  Uiso   1.00
H148   H     0.43387   0.29143   0.24888   0.00000  Uiso   1.00
H149   H     0.44483   0.07882   0.34667   0.00000  Uiso   1.00
H150   H     0.52157   0.07209   0.36471   0.00000  Uiso   1.00
H151   H     0.50955   0.05200   0.41770   0.00000  Uiso   1.00
H152   H     0.58486   0.30067   0.32965   0.00000  Uiso   1.00
H153   H     0.61200   0.29984   0.38203   0.00000  Uiso   1.00
H154   H     0.63393   0.27082   0.33546   0.00000  Uiso   1.00
H155   H     0.60082   0.21714   0.39095   0.00000  Uiso   1.00
H156   H     0.57775   0.21479   0.33688   0.00000  Uiso   1.00
H157   H     0.51747   0.26317   0.36161   0.00000  Uiso   1.00
H158   H     0.54307   0.27335   0.41136   0.00000  Uiso   1.00
H159   H     0.43387   0.04213   0.24873   0.00000  Uiso   1.00
H160   H     0.59369   0.04578   0.17730   0.00000  Uiso   1.00
H161   H     0.62068   0.04260   0.12499   0.00000  Uiso   1.00
H162   H     0.64087   0.07807   0.16801   0.00000  Uiso   1.00
H163   H     0.60491   0.12368   0.10832   0.00000  Uiso   1.00
H164   H     0.58088   0.12949   0.16152   0.00000  Uiso   1.00
H165   H     0.52523   0.07192   0.13984   0.00000  Uiso   1.00
H166   H     0.55168   0.06362   0.09007   0.00000  Uiso   1.00
H167   H     0.36995   0.08338   0.31644   0.00000  Uiso   1.00
H168   H     0.36946   0.13038   0.34793   0.00000  Uiso   1.00
H169   H     0.62928   0.20376   0.15308   0.00000  Uiso   1.00
H170   H     0.56610   0.29121   0.25049   0.00000  Uiso   1.00
H171   H     0.62888   0.25054   0.18517   0.00000  Uiso   1.00
H172   H     0.60761   0.08936   0.30419   0.00000  Uiso   1.00
H173   H     0.60289   0.13766   0.33378   0.00000  Uiso   1.00
H174   H     0.36916   0.25033   0.18416   0.00000  Uiso   1.00
H175   H     0.36913   0.20312   0.15265   0.00000  Uiso   1.00
H176   H     0.47661   0.23444   0.02726   0.00000  Uiso   1.00
H177   H     0.48043   0.09658   0.47285   0.00000  Uiso   1.00
H178   H     0.52560   0.23333   0.47140   0.00000  Uiso   1.00
H179   H     0.52922   0.10057   0.02941   0.00000  Uiso   1.00
H180   H     0.47778   0.33232   0.15637   0.00000  Uiso   1.00
N181   N     0.50000   0.28573   0.25000   0.00000  Uiso   1.00
N182   N     0.50000   0.04760   0.25000   0.00000  Uiso   1.00
N183   N     0.37817   0.11776   0.31722   0.00000  Uiso   1.00
N184   N     0.62117   0.21606   0.18407   0.00000  Uiso   1.00
N185   N     0.62399   0.11620   0.31812   0.00000  Uiso   1.00
N186   N     0.37735   0.21593   0.18341   0.00000  Uiso   1.00
O187   O     0.43892   0.20487   0.25000   0.00000  Uiso   1.00
O188   O     0.56108   0.12846   0.25001   0.00000  Uiso   1.00
O189   O     0.56108   0.20487   0.25001   0.00000  Uiso   1.00
O190   O     0.43892   0.12846   0.25000   0.00000  Uiso   1.00
O191   O     0.50000   0.20489   0.18453   0.00000  Uiso   1.00
O192   O     0.50000   0.12845   0.31547   0.00000  Uiso   1.00
O193   O     0.50000   0.20489   0.31547   0.00000  Uiso   1.00
O194   O     0.50000   0.12845   0.18453   0.00000  Uiso   1.00
Zn195  Zn    0.50000   0.21771   0.25000   0.00000  Uiso   1.00
Zn196  Zn    0.50000   0.11563   0.25000   0.00000  Uiso   1.00
C197   C     0.75336   0.16670   0.24996   0.00000  Uiso   1.00
C198   C     0.97791   0.19165   0.21754   0.00000  Uiso   1.00
C199   C     0.97864   0.14130   0.28364   0.00000  Uiso   1.00
C200   C     0.68792   0.19174   0.21729   0.00000  Uiso   1.00
C201   C     0.82156   0.20518   0.04598   0.00000  Uiso   1.00
C202   C     0.82384   0.12655   0.45424   0.00000  Uiso   1.00
C203   C     0.84840   0.20412   0.45323   0.00000  Uiso   1.00
C204   C     0.85042   0.12920   0.04737   0.00000  Uiso   1.00
C205   C     0.82845   0.20882   0.09095   0.00000  Uiso   1.00
C206   C     0.83029   0.12378   0.40909   0.00000  Uiso   1.00
C207   C     0.85200   0.20440   0.40752   0.00000  Uiso   1.00
C208   C     0.91323   0.16657   0.25064   0.00000  Uiso   1.00
C209   C     0.85447   0.12977   0.09303   0.00000  Uiso   1.00
C210   C     0.84022   0.16891   0.11570   0.00000  Uiso   1.00
C211   C     0.84000   0.16453   0.38449   0.00000  Uiso   1.00
C212   C     0.83294   0.16598   0.02418   0.00000  Uiso   1.00
C213   C     0.83312   0.16617   0.47623   0.00000  Uiso   1.00
C214   C     0.95725   0.16639   0.25065   0.00000  Uiso   1.00
C215   C     0.70919   0.16678   0.25022   0.00000  Uiso   1.00
C216   C     0.82913   0.25712   0.10816   0.00000  Uiso   1.00
C217   C     0.78605   0.27308   0.12350   0.00000  Uiso   1.00
C218   C     0.78614   0.32400   0.13241   0.00000  Uiso   1.00
C219   C     0.83589   0.16732   0.16382   0.00000  Uiso   1.00
C220   C     0.83132   0.07576   0.39123   0.00000  Uiso   1.00
C221   C     0.78805   0.05960   0.37671   0.00000  Uiso   1.00
C222   C     0.78853   0.00902   0.36646   0.00000  Uiso   1.00
C223   C     0.87179   0.24672   0.38625   0.00000  Uiso   1.00
C224   C     0.91473   0.23617   0.36629   0.00000  Uiso   1.00
C225   C     0.93772   0.27965   0.35250   0.00000  Uiso   1.00
C226   C     0.87794   0.09001   0.11479   0.00000  Uiso   1.00
C227   C     0.91971   0.10560   0.13432   0.00000  Uiso   1.00
C228   C     0.94524   0.06541   0.15226   0.00000  Uiso   1.00
C229   C     0.83588   0.16605   0.33625   0.00000  Uiso   1.00
C230   C     0.87002   0.02390   0.25078   0.00000  Uiso   1.00
C231   C     0.79661   0.30940   0.24941   0.00000  Uiso   1.00
C232   C     0.79661   0.02406   0.24927   0.00000  Uiso   1.00
C233   C     0.87003   0.30929   0.25037   0.00000  Uiso   1.00
C234   C     0.68844   0.14179   0.28340   0.00000  Uiso   1.00
H235   H     0.89939   0.04184   0.25170   0.00000  Uiso   1.00
H236   H     0.79148   0.01043   0.10122   0.00000  Uiso   1.00
H237   H     0.75552   0.00079   0.14639   0.00000  Uiso   1.00
H238   H     0.76218   0.26605   0.09784   0.00000  Uiso   1.00
H239   H     0.77731   0.25458   0.15432   0.00000  Uiso   1.00
H240   H     0.85313   0.26137   0.13418   0.00000  Uiso   1.00
H241   H     0.83992   0.28062   0.08114   0.00000  Uiso   1.00
H242   H     0.81290   0.00180   0.34150   0.00000  Uiso   1.00
H243   H     0.79502   0.32185   0.39697   0.00000  Uiso   1.00
H244   H     0.75766   0.33219   0.35317   0.00000  Uiso   1.00
H245   H     0.76480   0.06557   0.40325   0.00000  Uiso   1.00
H246   H     0.76720   0.29143   0.24888   0.00000  Uiso   1.00
H247   H     0.77816   0.07882   0.34667   0.00000  Uiso   1.00
H248   H     0.85490   0.07209   0.36471   0.00000  Uiso   1.00
H249   H     0.84289   0.05200   0.41770   0.00000  Uiso   1.00
H250   H     0.91820   0.30067   0.32965   0.00000  Uiso   1.00
H251   H     0.94534   0.29984   0.38203   0.00000  Uiso   1.00
H252   H     0.96726   0.27082   0.33546   0.00000  Uiso   1.00
H253   H     0.93415   0.21714   0.39095   0.00000  Uiso   1.00
H254   H     0.91109   0.21479   0.33688   0.00000  Uiso   1.00
H255   H     0.85080   0.26317   0.36161   0.00000  Uiso   1.00
H256   H     0.87641   0.27335   0.41136   0.00000  Uiso   1.00
H257   H     0.76720   0.04213   0.24873   0.00000  Uiso   1.00
H258   H     0.92702   0.04578   0.17730   0.00000  Uiso   1.00
H259   H     0.95402   0.04260   0.12499   0.00000  Uiso   1.00
H260   H     0.97420   0.07807   0.16801   0.00000  Uiso   1.00
H261   H     0.93824   0.12368   0.10832   0.00000  Uiso   1.00
H262   H     0.91421   0.12949   0.16152   0.00000  Uiso   1.00
H263   H     0.85856   0.07192   0.13984   0.00000  Uiso   1.00
H264   H     0.88501   0.06362   0.09007   0.00000  Uiso   1.00
H265   H     0.70329   0.08338   0.31644   0.00000  Uiso   1.00
H266   H     0.70280   0.13038   0.34793   0.00000  Uiso   1.00
H267   H     0.96261   0.20376   0.15308   0.00000  Uiso   1.00
H268   H     0.89943   0.29121   0.25049   0.00000  Uiso   1.00
H269   H     0.96222   0.25054   0.18517   0.00000  Uiso   1.00
H270   H     0.94095   0.08936   0.30419   0.00000  Uiso   1.00
H271   H     0.93622   0.13766   0.33378   0.00000  Uiso   1.00
H272   H     0.70249   0.25033   0.18416   0.00000  Uiso   1.00
H273   H     0.70247   0.20312   0.15265   0.00000  Uiso   1.00
H274   H     0.80994   0.23444   0.02726   0.00000  Uiso   1.00
H275   H     0.81376   0.09658   0.47285   0.00000  Uiso   1.00
H276   H     0.85894   0.23333   0.47140   0.00000  Uiso   1.00
H277   H     0.86255   0.10057   0.02941   0.00000  Uiso   1.00
H278   H     0.81112   0.33232   0.15637   0.00000  Uiso   1.00
N279   N     0.83333   0.28573   0.25000   0.00000  Uiso   1.00
N280   N     0.83333   0.04760   0.25000   0.00000  Uiso   1.00
N281   N     0.71150   0.11776   0.31722   0.00000  Uiso   1.00
N282   N     0.95450   0.21606   0.18407   0.00000  Uiso   1.00
N283   N     0.95732   0.11620   0.31812   0.00000  Uiso   1.00
N284   N     0.71069   0.21593   0.18341   0.00000  Uiso   1.00
O285   O     0.77226   0.20487   0.25000   0.00000  Uiso   1.00
O286   O     0.89441   0.12846   0.25001   0.00000  Uiso   1.00
O287   O     0.89441   0.20487   0.25001   0.00000  Uiso   1.00
O288   O     0.77226   0.12846   0.25000   0.00000  Uiso   1.00
O289   O     0.83333   0.20489   0.18453   0.00000  Uiso   1.00
O290   O     0.83334   0.12845   0.31547   0.00000  Uiso   1.00
O291   O     0.83334   0.20489   0.31547   0.00000  Uiso   1.00
O292   O     0.83333   0.12845   0.18453   0.00000  Uiso   1.00
Zn293  Zn    0.83333   0.21771   0.25000   0.00000  Uiso   1.00
Zn294  Zn    0.83333   0.11563   0.25000   0.00000  Uiso   1.00
C295   C     0.08669   0.50004   0.24996   0.00000  Uiso   1.00
C296   C     0.31124   0.52499   0.21754   0.00000  Uiso   1.00
C297   C     0.31197   0.47463   0.28364   0.00000  Uiso   1.00
C298   C     0.02126   0.52507   0.21729   0.00000  Uiso   1.00
C299   C     0.15490   0.53852   0.04598   0.00000  Uiso   1.00
C300   C     0.15717   0.45988   0.45424   0.00000  Uiso   1.00
C301   C     0.18174   0.53745   0.45323   0.00000  Uiso   1.00
C302   C     0.18375   0.46254   0.04737   0.00000  Uiso   1.00
C303   C     0.16178   0.54216   0.09095   0.00000  Uiso   1.00
C304   C     0.16362   0.45712   0.40909   0.00000  Uiso   1.00
C305   C     0.18533   0.53773   0.40752   0.00000  Uiso   1.00
C306   C     0.24656   0.49991   0.25064   0.00000  Uiso   1.00
C307   C     0.18781   0.46311   0.09303   0.00000  Uiso   1.00
C308   C     0.17355   0.50224   0.11570   0.00000  Uiso   1.00
C309   C     0.17333   0.49787   0.38449   0.00000  Uiso   1.00
C310   C     0.16628   0.49932   0.02418   0.00000  Uiso   1.00
C311   C     0.16646   0.49951   0.47623   0.00000  Uiso   1.00
C312   C     0.29058   0.49972   0.25065   0.00000  Uiso   1.00
C313   C     0.04252   0.50011   0.25022   0.00000  Uiso   1.00
C314   C     0.16246   0.59045   0.10816   0.00000  Uiso   1.00
C315   C     0.11938   0.60642   0.12350   0.00000  Uiso   1.00
C316   C     0.11947   0.65733   0.13241   0.00000  Uiso   1.00
C317   C     0.16923   0.50065   0.16382   0.00000  Uiso   1.00
C318   C     0.16465   0.40910   0.39123   0.00000  Uiso   1.00
C319   C     0.12138   0.39294   0.37671   0.00000  Uiso   1.00
C320   C     0.12186   0.34236   0.36646   0.00000  Uiso   1.00
C321   C     0.20512   0.58005   0.38625   0.00000  Uiso   1.00
C322   C     0.24806   0.56950   0.36629   0.00000  Uiso   1.00
C323   C     0.27105   0.61298   0.35250   0.00000  Uiso   1.00
C324   C     0.21127   0.42335   0.11479   0.00000  Uiso   1.00
C325   C     0.25304   0.43893   0.13432   0.00000  Uiso   1.00
C326   C     0.27857   0.39875   0.15226   0.00000  Uiso   1.00
C327   C     0.16922   0.49938   0.33625   0.00000  Uiso   1.00
C328   C     0.20335   0.35723   0.25078   0.00000  Uiso   1.00
C329   C     0.12994   0.64274   0.24941   0.00000  Uiso   1.00
C330   C     0.12994   0.35739   0.24927   0.00000  Uiso   1.00
C331   C     0.20336   0.64262   0.25037   0.00000  Uiso   1.00
C332   C     0.02178   0.47512   0.28340   0.00000  Uiso   1.00
H333   H     0.23272   0.37517   0.25170   0.00000  Uiso   1.00
H334   H     0.12481   0.34376   0.10122   0.00000  Uiso   1.00
H335   H     0.08885   0.33412   0.14639   0.00000  Uiso   1.00
H336   H     0.09551   0.59939   0.09784   0.00000  Uiso   1.00
H337   H     0.11065   0.58791   0.15432   0.00000  Uiso   1.00
H338   H     0.18646   0.59470   0.13418   0.00000  Uiso   1.00
H339   H     0.17325   0.61395   0.08114   0.00000  Uiso   1.00
H340   H     0.14623   0.33514   0.34150   0.00000  Uiso   1.00
H341   H     0.12836   0.65518   0.39697   0.00000  Uiso   1.00
H342   H     0.09099   0.66552   0.35317   0.00000  Uiso   1.00
H343   H     0.09813   0.39890   0.40325   0.00000  Uiso   1.00
H344   H     0.10053   0.62476   0.24888   0.00000  Uiso   1.00
H345   H     0.11149   0.41215   0.34667   0.00000  Uiso   1.00
H346   H     0.18824   0.40543   0.36471   0.00000  Uiso   1.00
H347   H     0.17622   0.38534   0.41770   0.00000  Uiso   1.00
H348   H     0.25153   0.63400   0.32965   0.00000  Uiso   1.00
H349   H     0.27867   0.63318   0.38203   0.00000  Uiso   1.00
H350   H     0.30060   0.60415   0.33546   0.00000  Uiso   1.00
H351   H     0.26748   0.55047   0.39095   0.00000  Uiso   1.00
H352   H     0.24442   0.54812   0.33688   0.00000  Uiso   1.00
H353   H     0.18414   0.59650   0.36161   0.00000  Uiso   1.00
H354   H     0.20974   0.60669   0.41136   0.00000  Uiso   1.00
H355   H     0.10053   0.37546   0.24873   0.00000  Uiso   1.00
H356   H     0.26035   0.37912   0.17730   0.00000  Uiso   1.00
H357   H     0.28735   0.37593   0.12499   0.00000  Uiso   1.00
H358   H     0.30753   0.41140   0.16801   0.00000  Uiso   1.00
H359   H     0.27158   0.45701   0.10832   0.00000  Uiso   1.00
H360   H     0.24754   0.46282   0.16152   0.00000  Uiso   1.00
H361   H     0.19189   0.40525   0.13984   0.00000  Uiso   1.00
H362   H     0.21834   0.39695   0.09007   0.00000  Uiso   1.00
H363   H     0.03662   0.41671   0.31644   0.00000  Uiso   1.00
H364   H     0.03613   0.46372   0.34793   0.00000  Uiso   1.00
H365   H     0.29595   0.53710   0.15308   0.00000  Uiso   1.00
H366   H     0.23277   0.62454   0.25049   0.00000  Uiso   1.00
H367   H     0.29555   0.58387   0.18517   0.00000  Uiso   1.00
H368   H     0.27428   0.42270   0.30419   0.00000  Uiso   1.00
H369   H     0.26956   0.47100   0.33378   0.00000  Uiso   1.00
H370   H     0.03583   0.58366   0.18416   0.00000  Uiso   1.00
H371   H     0.03580   0.53645   0.15265   0.00000  Uiso   1.00
H372   H     0.14327   0.56777   0.02726   0.00000  Uiso   1.00
H373   H     0.14710   0.42992   0.47285   0.00000  Uiso   1.00
H374   H     0.19227   0.56666   0.47140   0.00000  Uiso   1.00
H375   H     0.19589   0.43390   0.02941   0.00000  Uiso   1.00
H376   H     0.14445   0.66566   0.15637   0.00000  Uiso   1.00
N377   N     0.16667   0.61907   0.25000   0.00000  Uiso   1.00
N378   N     0.16667   0.38093   0.25000   0.00000  Uiso   1.00
N379   N     0.04483   0.45110   0.31722   0.00000  Uiso   1.00
N380   N     0.28783   0.54939   0.18407   0.00000  Uiso   1.00
N381   N     0.29066   0.44953   0.31812   0.00000  Uiso   1.00
N382   N     0.04402   0.54926   0.18341   0.00000  Uiso   1.00
O383   O     0.10559   0.53821   0.25000   0.00000  Uiso   1.00
O384   O     0.22774   0.46179   0.25001   0.00000  Uiso   1.00
O385   O     0.22774   0.53821   0.25001   0.00000  Uiso   1.00
O386   O     0.10559   0.46179   0.25000   0.00000  Uiso   1.00
O387   O     0.16666   0.53822   0.18453   0.00000  Uiso   1.00
O388   O     0.16667   0.46178   0.31547   0.00000  Uiso   1.00
O389   O     0.16667   0.53822   0.31547   0.00000  Uiso   1.00
O390   O     0.16666   0.46178   0.18453   0.00000  Uiso   1.00
Zn391  Zn    0.16667   0.55104   0.25000   0.00000  Uiso   1.00
Zn392  Zn    0.16667   0.44896   0.25000   0.00000  Uiso   1.00
C393   C     0.42003   0.50004   0.24996   0.00000  Uiso   1.00
C394   C     0.64457   0.52499   0.21754   0.00000  Uiso   1.00
C395   C     0.64531   0.47463   0.28364   0.00000  Uiso   1.00
C396   C     0.35459   0.52507   0.21729   0.00000  Uiso   1.00
C397   C     0.48823   0.53852   0.04598   0.00000  Uiso   1.00
C398   C     0.49051   0.45988   0.45424   0.00000  Uiso   1.00
C399   C     0.51507   0.53745   0.45323   0.00000  Uiso   1.00
C400   C     0.51709   0.46254   0.04737   0.00000  Uiso   1.00
C401   C     0.49512   0.54216   0.09095   0.00000  Uiso   1.00
C402   C     0.49696   0.45712   0.40909   0.00000  Uiso   1.00
C403   C     0.51866   0.53773   0.40752   0.00000  Uiso   1.00
C404   C     0.57989   0.49991   0.25064   0.00000  Uiso   1.00
C405   C     0.52114   0.46311   0.09303   0.00000  Uiso   1.00
C406   C     0.50688   0.50224   0.11570   0.00000  Uiso   1.00
C407   C     0.50666   0.49787   0.38449   0.00000  Uiso   1.00
C408   C     0.49961   0.49932   0.02418   0.00000  Uiso   1.00
C409   C     0.49979   0.49951   0.47623   0.00000  Uiso   1.00
C410   C     0.62391   0.49972   0.25065   0.00000  Uiso   1.00
C411   C     0.37585   0.50011   0.25022   0.00000  Uiso   1.00
C412   C     0.49579   0.59045   0.10816   0.00000  Uiso   1.00
C413   C     0.45272   0.60642   0.12350   0.00000  Uiso   1.00
C414   C     0.45280   0.65733   0.13241   0.00000  Uiso   1.00
C415   C     0.50256   0.50065   0.16382   0.00000  Uiso   1.00
C416   C     0.49799   0.40910   0.39123   0.00000  Uiso   1.00
C417   C     0.45471   0.39294   0.37671   0.00000  Uiso   1.00
C418   C     0.45519   0.34236   0.36646   0.00000  Uiso   1.00
C419   C     0.53846   0.58005   0.38625   0.00000  Uiso   1.00
C420   C     0.58139   0.56950   0.36629   0.00000  Uiso   1.00
C421   C     0.60438   0.61298   0.35250   0.00000  Uiso   1.00
C422   C     0.54461   0.42335   0.11479   0.00000  Uiso   1.00
C423   C     0.58638   0.43893   0.13432   0.00000  Uiso   1.00
C424   C     0.61190   0.39875   0.15226   0.00000  Uiso   1.00
C425   C     0.50255   0.49938   0.33625   0.00000  Uiso   1.00
C426   C     0.53668   0.35723   0.25078   0.00000  Uiso   1.00
C427   C     0.46327   0.64274   0.24941   0.00000  Uiso   1.00
C428   C     0.46328   0.35739   0.24927   0.00000  Uiso   1.00
C429   C     0.53669   0.64262   0.25037   0.00000  Uiso   1.00
C430   C     0.35511   0.47512   0.28340   0.00000  Uiso   1.00
H431   H     0.56606   0.37517   0.25170   0.00000  Uiso   1.00
H432   H     0.45815   0.34376   0.10122   0.00000  Uiso   1.00
H433   H     0.42218   0.33412   0.14639   0.00000  Uiso   1.00
H434   H     0.42884   0.59939   0.09784   0.00000  Uiso   1.00
H435   H     0.44398   0.58791   0.15432   0.00000  Uiso   1.00
H436   H     0.51980   0.59470   0.13418   0.00000  Uiso   1.00
H437   H     0.50658   0.61395   0.08114   0.00000  Uiso   1.00
H438   H     0.47957   0.33514   0.34150   0.00000  Uiso   1.00
H439   H     0.46169   0.65518   0.39697   0.00000  Uiso   1.00
H440   H     0.42433   0.66552   0.35317   0.00000  Uiso   1.00
H441   H     0.43147   0.39890   0.40325   0.00000  Uiso   1.00
H442   H     0.43387   0.62476   0.24888   0.00000  Uiso   1.00
H443   H     0.44483   0.41215   0.34667   0.00000  Uiso   1.00
H444   H     0.52157   0.40543   0.36471   0.00000  Uiso   1.00
H445   H     0.50955   0.38534   0.41770   0.00000  Uiso   1.00
H446   H     0.58486   0.63400   0.32965   0.00000  Uiso   1.00
H447   H     0.61200   0.63318   0.38203   0.00000  Uiso   1.00
H448   H     0.63393   0.60415   0.33546   0.00000  Uiso   1.00
H449   H     0.60082   0.55047   0.39095   0.00000  Uiso   1.00
H450   H     0.57775   0.54812   0.33688   0.00000  Uiso   1.00
H451   H     0.51747   0.59650   0.36161   0.00000  Uiso   1.00
H452   H     0.54307   0.60669   0.41136   0.00000  Uiso   1.00
H453   H     0.43387   0.37546   0.24873   0.00000  Uiso   1.00
H454   H     0.59369   0.37912   0.17730   0.00000  Uiso   1.00
H455   H     0.62068   0.37593   0.12499   0.00000  Uiso   1.00
H456   H     0.64087   0.41140   0.16801   0.00000  Uiso   1.00
H457   H     0.60491   0.45701   0.10832   0.00000  Uiso   1.00
H458   H     0.58088   0.46282   0.16152   0.00000  Uiso   1.00
H459   H     0.52523   0.40525   0.13984   0.00000  Uiso   1.00
H460   H     0.55168   0.39695   0.09007   0.00000  Uiso   1.00
H461   H     0.36995   0.41671   0.31644   0.00000  Uiso   1.00
H462   H     0.36946   0.46372   0.34793   0.00000  Uiso   1.00
H463   H     0.62928   0.53710   0.15308   0.00000  Uiso   1.00
H464   H     0.56610   0.62454   0.25049   0.00000  Uiso   1.00
H465   H     0.62888   0.58387   0.18517   0.00000  Uiso   1.00
H466   H     0.60761   0.42270   0.30419   0.00000  Uiso   1.00
H467   H     0.60289   0.47100   0.33378   0.00000  Uiso   1.00
H468   H     0.36916   0.58366   0.18416   0.00000  Uiso   1.00
H469   H     0.36913   0.53645   0.15265   0.00000  Uiso   1.00
H470   H     0.47661   0.56777   0.02726   0.00000  Uiso   1.00
H471   H     0.48043   0.42992   0.47285   0.00000  Uiso   1.00
H472   H     0.52560   0.56666   0.47140   0.00000  Uiso   1.00
H473   H     0.52922   0.43390   0.02941   0.00000  Uiso   1.00
H474   H     0.47778   0.66566   0.15637   0.00000  Uiso   1.00
N475   N     0.50000   0.61907   0.25000   0.00000  Uiso   1.00
N476   N     0.50000   0.38093   0.25000   0.00000  Uiso   1.00
N477   N     0.37817   0.45110   0.31722   0.00000  Uiso   1.00
N478   N     0.62117   0.54939   0.18407   0.00000  Uiso   1.00
N479   N     0.62399   0.44953   0.31812   0.00000  Uiso   1.00
N480   N     0.37735   0.54926   0.18341   0.00000  Uiso   1.00
O481   O     0.43892   0.53821   0.25000   0.00000  Uiso   1.00
O482   O     0.56108   0.46179   0.25001   0.00000  Uiso   1.00
O483   O     0.56108   0.53821   0.25001   0.00000  Uiso   1.00
O484   O     0.43892   0.46179   0.25000   0.00000  Uiso   1.00
O485   O     0.50000   0.53822   0.18453   0.00000  Uiso   1.00
O486   O     0.50000   0.46178   0.31547   0.00000  Uiso   1.00
O487   O     0.50000   0.53822   0.31547   0.00000  Uiso   1.00
O488   O     0.50000   0.46178   0.18453   0.00000  Uiso   1.00
Zn489  Zn    0.50000   0.55104   0.25000   0.00000  Uiso   1.00
Zn490  Zn    0.50000   0.44896   0.25000   0.00000  Uiso   1.00
C491   C     0.75336   0.50004   0.24996   0.00000  Uiso   1.00
C492   C     0.97791   0.52499   0.21754   0.00000  Uiso   1.00
C493   C     0.97864   0.47463   0.28364   0.00000  Uiso   1.00
C494   C     0.68792   0.52507   0.21729   0.00000  Uiso   1.00
C495   C     0.82156   0.53852   0.04598   0.00000  Uiso   1.00
C496   C     0.82384   0.45988   0.45424   0.00000  Uiso   1.00
C497   C     0.84840   0.53745   0.45323   0.00000  Uiso   1.00
C498   C     0.85042   0.46254   0.04737   0.00000  Uiso   1.00
C499   C     0.82845   0.54216   0.09095   0.00000  Uiso   1.00
C500   C     0.83029   0.45712   0.40909   0.00000  Uiso   1.00
C501   C     0.85200   0.53773   0.40752   0.00000  Uiso   1.00
C502   C     0.91323   0.49991   0.25064   0.00000  Uiso   1.00
C503   C     0.85447   0.46311   0.09303   0.00000  Uiso   1.00
C504   C     0.84022   0.50224   0.11570   0.00000  Uiso   1.00
C505   C     0.84000   0.49787   0.38449   0.00000  Uiso   1.00
C506   C     0.83294   0.49932   0.02418   0.00000  Uiso   1.00
C507   C     0.83312   0.49951   0.47623   0.00000  Uiso   1.00
C508   C     0.95725   0.49972   0.25065   0.00000  Uiso   1.00
C509   C     0.70919   0.50011   0.25022   0.00000  Uiso   1.00
C510   C     0.82913   0.59045   0.10816   0.00000  Uiso   1.00
C511   C     0.78605   0.60642   0.12350   0.00000  Uiso   1.00
C512   C     0.78614   0.65733   0.13241   0.00000  Uiso   1.00
C513   C     0.83589   0.50065   0.16382   0.00000  Uiso   1.00
C514   C     0.83132   0.40910   0.39123   0.00000  Uiso   1.00
C515   C     0.78805   0.39294   0.37671   0.00000  Uiso   1.00
C516   C     0.78853   0.34236   0.36646   0.00000  Uiso   1.00
C517   C     0.87179   0.58005   0.38625   0.00000  Uiso   1.00
C518   C     0.91473   0.56950   0.36629   0.00000  Uiso   1.00
C519   C     0.93772   0.61298   0.35250   0.00000  Uiso   1.00
C520   C     0.87794   0.42335   0.11479   0.00000  Uiso   1.00
C521   C     0.91971   0.43893   0.13432   0.00000  Uiso   1.00
C522   C     0.94524   0.39875   0.15226   0.00000  Uiso   1.00
C523   C     0.83588   0.49938   0.33625   0.00000  Uiso   1.00
C524   C     0.87002   0.35723   0.25078   0.00000  Uiso   1.00
C525   C     0.79661   0.64274   0.24941   0.00000  Uiso   1.00
C526   C     0.79661   0.35739   0.24927   0.00000  Uiso   1.00
C527   C     0.87003   0.64262   0.25037   0.00000  Uiso   1.00
C528   C     0.68844   0.47512   0.28340   0.00000  Uiso   1.00
H529   H     0.89939   0.37517   0.25170   0.00000  Uiso   1.00
H530   H     0.79148   0.34376   0.10122   0.00000  Uiso   1.00
H531   H     0.75552   0.33412   0.14639   0.00000  Uiso   1.00
H532   H     0.76218   0.59939   0.09784   0.00000  Uiso   1.00
H533   H     0.77731   0.58791   0.15432   0.00000  Uiso   1.00
H534   H     0.85313   0.59470   0.13418   0.00000  Uiso   1.00
H535   H     0.83992   0.61395   0.08114   0.00000  Uiso   1.00
H536   H     0.81290   0.33514   0.34150   0.00000  Uiso   1.00
H537   H     0.79502   0.65518   0.39697   0.00000  Uiso   1.00
H538   H     0.75766   0.66552   0.35317   0.00000  Uiso   1.00
H539   H     0.76480   0.39890   0.40325   0.00000  Uiso   1.00
H540   H     0.76720   0.62476   0.24888   0.00000  Uiso   1.00
H541   H     0.77816   0.41215   0.34667   0.00000  Uiso   1.00
H542   H     0.85490   0.40543   0.36471   0.00000  Uiso   1.00
H543   H     0.84289   0.38534   0.41770   0.00000  Uiso   1.00
H544   H     0.91820   0.63400   0.32965   0.00000  Uiso   1.00
H545   H     0.94534   0.63318   0.38203   0.00000  Uiso   1.00
H546   H     0.96726   0.60415   0.33546   0.00000  Uiso   1.00
H547   H     0.93415   0.55047   0.39095   0.00000  Uiso   1.00
H548   H     0.91109   0.54812   0.33688   0.00000  Uiso   1.00
H549   H     0.85080   0.59650   0.36161   0.00000  Uiso   1.00
H550   H     0.87641   0.60669   0.41136   0.00000  Uiso   1.00
H551   H     0.76720   0.37546   0.24873   0.00000  Uiso   1.00
H552   H     0.92702   0.37912   0.17730   0.00000  Uiso   1.00
H553   H     0.95402   0.37593   0.12499   0.00000  Uiso   1.00
H554   H     0.97420   0.41140   0.16801   0.00000  Uiso   1.00
H555   H     0.93824   0.45701   0.10832   0.00000  Uiso   1.00
H556   H     0.91421   0.46282   0.16152   0.00000  Uiso   1.00
H557   H     0.85856   0.40525   0.13984   0.00000  Uiso   1.00
H558   H     0.88501   0.39695   0.09007   0.00000  Uiso   1.00
H559   H     0.70329   0.41671   0.31644   0.00000  Uiso   1.00
H560   H     0.70280   0.46372   0.34793   0.00000  Uiso   1.00
H561   H     0.96261   0.53710   0.15308   0.00000  Uiso   1.00
H562   H     0.89943   0.62454   0.25049   0.00000  Uiso   1.00
H563   H     0.96222   0.58387   0.18517   0.00000  Uiso   1.00
H564   H     0.94095   0.42270   0.30419   0.00000  Uiso   1.00
H565   H     0.93622   0.47100   0.33378   0.00000  Uiso   1.00
H566   H     0.70249   0.58366   0.18416   0.00000  Uiso   1.00
H567   H     0.70247   0.53645   0.15265   0.00000  Uiso   1.00
H568   H     0.80994   0.56777   0.02726   0.00000  Uiso   1.00
H569   H     0.81376   0.42992   0.47285   0.00000  Uiso   1.00
H570   H     0.85894   0.56666   0.47140   0.00000  Uiso   1.00
H571   H     0.86255   0.43390   0.02941   0.00000  Uiso   1.00
H572   H     0.81112   0.66566   0.15637   0.00000  Uiso   1.00
N573   N     0.83333   0.61907   0.25000   0.00000  Uiso   1.00
N574   N     0.83333   0.38093   0.25000   0.00000  Uiso   1.00
N575   N     0.71150   0.45110   0.31722   0.00000  Uiso   1.00
N576   N     0.95450   0.54939   0.18407   0.00000  Uiso   1.00
N577   N     0.95732   0.44953   0.31812   0.00000  Uiso   1.00
N578   N     0.71069   0.54926   0.18341   0.00000  Uiso   1.00
O579   O     0.77226   0.53821   0.25000   0.00000  Uiso   1.00
O580   O     0.89441   0.46179   0.25001   0.00000  Uiso   1.00
O581   O     0.89441   0.53821   0.25001   0.00000  Uiso   1.00
O582   O     0.77226   0.46179   0.25000   0.00000  Uiso   1.00
O583   O     0.83333   0.53822   0.18453   0.00000  Uiso   1.00
O584   O     0.83334   0.46178   0.31547   0.00000  Uiso   1.00
O585   O     0.83334   0.53822   0.31547   0.00000  Uiso   1.00
O586   O     0.83333   0.46178   0.18453   0.00000  Uiso   1.00
Zn587  Zn    0.83333   0.55104   0.25000   0.00000  Uiso   1.00
Zn588  Zn    0.83333   0.44896   0.25000   0.00000  Uiso   1.00
C589   C     0.08669   0.83337   0.24996   0.00000  Uiso   1.00
C590   C     0.31124   0.85832   0.21754   0.00000  Uiso   1.00
C591   C     0.31197   0.80796   0.28364   0.00000  Uiso   1.00
C592   C     0.02126   0.85840   0.21729   0.00000  Uiso   1.00
C593   C     0.15490   0.87185   0.04598   0.00000  Uiso   1.00
C594   C     0.15717   0.79321   0.45424   0.00000  Uiso   1.00
C595   C     0.18174   0.87078   0.45323   0.00000  Uiso   1.00
C596   C     0.18375   0.79587   0.04737   0.00000  Uiso   1.00
C597   C     0.16178   0.87549   0.09095   0.00000  Uiso   1.00
C598   C     0.16362   0.79045   0.40909   0.00000  Uiso   1.00
C599   C     0.18533   0.87106   0.40752   0.00000  Uiso   1.00
C600   C     0.24656   0.83324   0.25064   0.00000  Uiso   1.00
C601   C     0.18781   0.79644   0.09303   0.00000  Uiso   1.00
C602   C     0.17355   0.83558   0.11570   0.00000  Uiso   1.00
C603   C     0.17333   0.83120   0.38449   0.00000  Uiso   1.00
C604   C     0.16628   0.83265   0.02418   0.00000  Uiso   1.00
C605   C     0.16646   0.83284   0.47623   0.00000  Uiso   1.00
C606   C     0.29058   0.83306   0.25065   0.00000  Uiso   1.00
C607   C     0.04252   0.83344   0.25022   0.00000  Uiso   1.00
C608   C     0.16246   0.92378   0.10816   0.00000  Uiso   1.00
C609   C     0.11938   0.93975   0.12350   0.00000  Uiso   1.00
C610   C     0.11947   0.99067   0.13241   0.00000  Uiso   1.00
C611   C     0.16923   0.83398   0.16382   0.00000  Uiso   1.00
C612   C     0.16465   0.74243   0.39123   0.00000  Uiso   1.00
C613   C     0.12138   0.72627   0.37671   0.00000  Uiso   1.00
C614   C     0.12186   0.67569   0.36646   0.00000  Uiso   1.00
C615   C     0.20512   0.91338   0.38625   0.00000  Uiso   1.00
C616   C     0.24806   0.90283   0.36629   0.00000  Uiso   1.00
C617   C     0.27105   0.94632   0.35250   0.00000  Uiso   1.00
C618   C     0.21127   0.75668   0.11479   0.00000  Uiso   1.00
C619   C     0.25304   0.77227   0.13432   0.00000  Uiso   1.00
C620   C     0.27857   0.73208   0.15226   0.00000  Uiso   1.00
C621   C     0.16922   0.83272   0.33625   0.00000  Uiso   1.00
C622   C     0.20335   0.69056   0.25078   0.00000  Uiso   1.00
C623   C     0.12994   0.97607   0.24941   0.00000  Uiso   1.00
C624   C     0.12994   0.69073   0.24927   0.00000  Uiso   1.00
C625   C     0.20336   0.97595   0.25037   0.00000  Uiso   1.00
C626   C     0.02178   0.80846   0.28340   0.00000  Uiso   1.00
H627   H     0.23272   0.70850   0.25170   0.00000  Uiso   1.00
H628   H     0.12481   0.67709   0.10122   0.00000  Uiso   1.00
H629   H     0.08885   0.66745   0.14639   0.00000  Uiso   1.00
H630   H     0.09551   0.93272   0.09784   0.00000  Uiso   1.00
H631   H     0.11065   0.92124   0.15432   0.00000  Uiso   1.00
H632   H     0.18646   0.92804   0.13418   0.00000  Uiso   1.00
H633   H     0.17325   0.94728   0.08114   0.00000  Uiso   1.00
H634   H     0.14623   0.66847   0.34150   0.00000  Uiso   1.00
H635   H     0.12836   0.98852   0.39697   0.00000  Uiso   1.00
H636   H     0.09099   0.99886   0.35317   0.00000  Uiso   1.00
H637   H     0.09813   0.73224   0.40325   0.00000  Uiso   1.00
H638   H     0.10053   0.95810   0.24888   0.00000  Uiso   1.00
H639   H     0.11149   0.74549   0.34667   0.00000  Uiso   1.00
H640   H     0.18824   0.73876   0.36471   0.00000  Uiso   1.00
H641   H     0.17622   0.71867   0.41770   0.00000  Uiso   1.00
H642   H     0.25153   0.96734   0.32965   0.00000  Uiso   1.00
H643   H     0.27867   0.96651   0.38203   0.00000  Uiso   1.00
H644   H     0.30060   0.93748   0.33546   0.00000  Uiso   1.00
H645   H     0.26748   0.88380   0.39095   0.00000  Uiso   1.00
H646   H     0.24442   0.88145   0.33688   0.00000  Uiso   1.00
H647   H     0.18414   0.92984   0.36161   0.00000  Uiso   1.00
H648   H     0.20974   0.94002   0.41136   0.00000  Uiso   1.00
H649   H     0.10053   0.70880   0.24873   0.00000  Uiso   1.00
H650   H     0.26035   0.71245   0.17730   0.00000  Uiso   1.00
H651   H     0.28735   0.70926   0.12499   0.00000  Uiso   1.00
H652   H     0.30753   0.74474   0.16801   0.00000  Uiso   1.00
H653   H     0.27158   0.79035   0.10832   0.00000  Uiso   1.00
H654   H     0.24754   0.79616   0.16152   0.00000  Uiso   1.00
H655   H     0.19189   0.73859   0.13984   0.00000  Uiso   1.00
H656   H     0.21834   0.73029   0.09007   0.00000  Uiso   1.00
H657   H     0.03662   0.75004   0.31644   0.00000  Uiso   1.00
H658   H     0.03613   0.79705   0.34793   0.00000  Uiso   1.00
H659   H     0.29595   0.87043   0.15308   0.00000  Uiso   1.00
H660   H     0.23277   0.95788   0.25049   0.00000  Uiso   1.00
H661   H     0.29555   0.91720   0.18517   0.00000  Uiso   1.00
H662   H     0.27428   0.75603   0.30419   0.00000  Uiso   1.00
H663   H     0.26956   0.80433   0.33378   0.00000  Uiso   1.00
H664   H     0.03583   0.91699   0.18416   0.00000  Uiso   1.00
H665   H     0.03580   0.86978   0.15265   0.00000  Uiso   1.00
H666   H     0.14327   0.90110   0.02726   0.00000  Uiso   1.00
H667   H     0.14710   0.76325   0.47285   0.00000  Uiso   1.00
H668   H     0.19227   0.89999   0.47140   0.00000  Uiso   1.00
H669   H     0.19589   0.76723   0.02941   0.00000  Uiso   1.00
H670   H     0.14445   0.99899   0.15637   0.00000  Uiso   1.00
N671   N     0.16667   0.95240   0.25000   0.00000  Uiso   1.00
N672   N     0.16667   0.71427   0.25000   0.00000  Uiso   1.00
N673   N     0.04483   0.78443   0.31722   0.00000  Uiso   1.00
N674   N     0.28783   0.88272   0.18407   0.00000  Uiso   1.00
N675   N     0.29066   0.78286   0.31812   0.00000  Uiso   1.00
N676   N     0.04402   0.88260   0.18341   0.00000  Uiso   1.00
O677   O     0.10559   0.87154   0.25000   0.00000  Uiso   1.00
O678   O     0.22774   0.79513   0.25001   0.00000  Uiso   1.00
O679   O     0.22774   0.87154   0.25001   0.00000  Uiso   1.00
O680   O     0.10559   0.79513   0.25000   0.00000  Uiso   1.00
O681   O     0.16666   0.87155   0.18453   0.00000  Uiso   1.00
O682   O     0.16667   0.79511   0.31547   0.00000  Uiso   1.00
O683   O     0.16667   0.87155   0.31547   0.00000  Uiso   1.00
O684   O     0.16666   0.79511   0.18453   0.00000  Uiso   1.00
Zn685  Zn    0.16667   0.88437   0.25000   0.00000  Uiso   1.00
Zn686  Zn    0.16667   0.78229   0.25000   0.00000  Uiso   1.00
C687   C     0.42003   0.83337   0.24996   0.00000  Uiso   1.00
C688   C     0.64457   0.85832   0.21754   0.00000  Uiso   1.00
C689   C     0.64531   0.80796   0.28364   0.00000  Uiso   1.00
C690   C     0.35459   0.85840   0.21729   0.00000  Uiso   1.00
C691   C     0.48823   0.87185   0.04598   0.00000  Uiso   1.00
C692   C     0.49051   0.79321   0.45424   0.00000  Uiso   1.00
C693   C     0.51507   0.87078   0.45323   0.00000  Uiso   1.00
C694   C     0.51709   0.79587   0.04737   0.00000  Uiso   1.00
C695   C     0.49512   0.87549   0.09095   0.00000  Uiso   1.00
C696   C     0.49696   0.79045   0.40909   0.00000  Uiso   1.00
C697   C     0.51866   0.87106   0.40752   0.00000  Uiso   1.00
C698   C     0.57989   0.83324   0.25064   0.00000  Uiso   1.00
C699   C     0.52114   0.79644   0.09303   0.00000  Uiso   1.00
C700   C     0.50688   0.83558   0.11570   0.00000  Uiso   1.00
C701   C     0.50666   0.83120   0.38449   0.00000  Uiso   1.00
C702   C     0.49961   0.83265   0.02418   0.00000  Uiso   1.00
C703   C     0.49979   0.83284   0.47623   0.00000  Uiso   1.00
C704   C     0.62391   0.83306   0.25065   0.00000  Uiso   1.00
C705   C     0.37585   0.83344   0.25022   0.00000  Uiso   1.00
C706   C     0.49579   0.92378   0.10816   0.00000  Uiso   1.00
C707   C     0.45272   0.93975   0.12350   0.00000  Uiso   1.00
C708   C     0.45280   0.99067   0.13241   0.00000  Uiso   1.00
C709   C     0.50256   0.83398   0.16382   0.00000  Uiso   1.00
C710   C     0.49799   0.74243   0.39123   0.00000  Uiso   1.00
C711   C     0.45471   0.72627   0.37671   0.00000  Uiso   1.00
C712   C     0.45519   0.67569   0.36646   0.00000  Uiso   1.00
C713   C     0.53846   0.91338   0.38625   0.00000  Uiso   1.00
C714   C     0.58139   0.90283   0.36629   0.00000  Uiso   1.00
C715   C     0.60438   0.94632   0.35250   0.00000  Uiso   1.00
C716   C     0.54461   0.75668   0.11479   0.00000  Uiso   1.00
C717   C     0.58638   0.77227   0.13432   0.00000  Uiso   1.00
C718   C     0.61190   0.73208   0.15226   0.00000  Uiso   1.00
C719   C     0.50255   0.83272   0.33625   0.00000  Uiso   1.00
C720   C     0.53668   0.69056   0.25078   0.00000  Uiso   1.00
C721   C     0.46327   0.97607   0.24941   0.00000  Uiso   1.00
C722   C     0.46328   0.69073   0.24927   0.00000  Uiso   1.00
C723   C     0.53669   0.97595   0.25037   0.00000  Uiso   1.00
C724   C     0.35511   0.80846   0.28340   0.00000  Uiso   1.00
H725   H     0.56606   0.70850   0.25170   0.00000  Uiso   1.00
H726   H     0.45815   0.67709   0.10122   0.00000  Uiso   1.00
H727   H     0.42218   0.66745   0.14639   0.00000  Uiso   1.00
H728   H     0.42884   0.93272   0.09784   0.00000  Uiso   1.00
H729   H     0.44398   0.92124   0.15432   0.00000  Uiso   1.00
H730   H     0.51980   0.92804   0.13418   0.00000  Uiso   1.00
H731   H     0.50658   0.94728   0.08114   0.00000  Uiso   1.00
H732   H     0.47957   0.66847   0.34150   0.00000  Uiso   1.00
H733   H     0.46169   0.98852   0.39697   0.00000  Uiso   1.00
H734   H     0.42433   0.99886   0.35317   0.00000  Uiso   1.00
H735   H     0.43147   0.73224   0.40325   0.00000  Uiso   1.00
H736   H     0.43387   0.95810   0.24888   0.00000  Uiso   1.00
H737   H     0.44483   0.74549   0.34667   0.00000  Uiso   1.00
H738   H     0.52157   0.73876   0.36471   0.00000  Uiso   1.00
H739   H     0.50955   0.71867   0.41770   0.00000  Uiso   1.00
H740   H     0.58486   0.96734   0.32965   0.00000  Uiso   1.00
H741   H     0.61200   0.96651   0.38203   0.00000  Uiso   1.00
H742   H     0.63393   0.93748   0.33546   0.00000  Uiso   1.00
H743   H     0.60082   0.88380   0.39095   0.00000  Uiso   1.00
H744   H     0.57775   0.88145   0.33688   0.00000  Uiso   1.00
H745   H     0.51747   0.92984   0.36161   0.00000  Uiso   1.00
H746   H     0.54307   0.94002   0.41136   0.00000  Uiso   1.00
H747   H     0.43387   0.70880   0.24873   0.00000  Uiso   1.00
H748   H     0.59369   0.71245   0.17730   0.00000  Uiso   1.00
H749   H     0.62068   0.70926   0.12499   0.00000  Uiso   1.00
H750   H     0.64087   0.74474   0.16801   0.00000  Uiso   1.00
H751   H     0.60491   0.79035   0.10832   0.00000  Uiso   1.00
H752   H     0.58088   0.79616   0.16152   0.00000  Uiso   1.00
H753   H     0.52523   0.73859   0.13984   0.00000  Uiso   1.00
H754   H     0.55168   0.73029   0.09007   0.00000  Uiso   1.00
H755   H     0.36995   0.75004   0.31644   0.00000  Uiso   1.00
H756   H     0.36946   0.79705   0.34793   0.00000  Uiso   1.00
H757   H     0.62928   0.87043   0.15308   0.00000  Uiso   1.00
H758   H     0.56610   0.95788   0.25049   0.00000  Uiso   1.00
H759   H     0.62888   0.91720   0.18517   0.00000  Uiso   1.00
H760   H     0.60761   0.75603   0.30419   0.00000  Uiso   1.00
H761   H     0.60289   0.80433   0.33378   0.00000  Uiso   1.00
H762   H     0.36916   0.91699   0.18416   0.00000  Uiso   1.00
H763   H     0.36913   0.86978   0.15265   0.00000  Uiso   1.00
H764   H     0.47661   0.90110   0.02726   0.00000  Uiso   1.00
H765   H     0.48043   0.76325   0.47285   0.00000  Uiso   1.00
H766   H     0.52560   0.89999   0.47140   0.00000  Uiso   1.00
H767   H     0.52922   0.76723   0.02941   0.00000  Uiso   1.00
H768   H     0.47778   0.99899   0.15637   0.00000  Uiso   1.00
N769   N     0.50000   0.95240   0.25000   0.00000  Uiso   1.00
N770   N     0.50000   0.71427   0.25000   0.00000  Uiso   1.00
N771   N     0.37817   0.78443   0.31722   0.00000  Uiso   1.00
N772   N     0.62117   0.88272   0.18407   0.00000  Uiso   1.00
N773   N     0.62399   0.78286   0.31812   0.00000  Uiso   1.00
N774   N     0.37735   0.88260   0.18341   0.00000  Uiso   1.00
O775   O     0.43892   0.87154   0.25000   0.00000  Uiso   1.00
O776   O     0.56108   0.79513   0.25001   0.00000  Uiso   1.00
O777   O     0.56108   0.87154   0.25001   0.00000  Uiso   1.00
O778   O     0.43892   0.79513   0.25000   0.00000  Uiso   1.00
O779   O     0.50000   0.87155   0.18453   0.00000  Uiso   1.00
O780   O     0.50000   0.79511   0.31547   0.00000  Uiso   1.00
O781   O     0.50000   0.87155   0.31547   0.00000  Uiso   1.00
O782   O     0.50000   0.79511   0.18453   0.00000  Uiso   1.00
Zn783  Zn    0.50000   0.88437   0.25000   0.00000  Uiso   1.00
Zn784  Zn    0.50000   0.78229   0.25000   0.00000  Uiso   1.00
C785   C     0.75336   0.83337   0.24996   0.00000  Uiso   1.00
C786   C     0.97791   0.85832   0.21754   0.00000  Uiso   1.00
C787   C     0.97864   0.80796   0.28364   0.00000  Uiso   1.00
C788   C     0.68792   0.85840   0.21729   0.00000  Uiso   1.00
C789   C     0.82156   0.87185   0.04598   0.00000  Uiso   1.00
C790   C     0.82384   0.79321   0.45424   0.00000  Uiso   1.00
C791   C     0.84840   0.87078   0.45323   0.00000  Uiso   1.00
C792   C     0.85042   0.79587   0.04737   0.00000  Uiso   1.00
C793   C     0.82845   0.87549   0.09095   0.00000  Uiso   1.00
C794   C     0.83029   0.79045   0.40909   0.00000  Uiso   1.00
C795   C     0.85200   0.87106   0.40752   0.00000  Uiso   1.00
C796   C     0.91323   0.83324   0.25064   0.00000  Uiso   1.00
C797   C     0.85447   0.79644   0.09303   0.00000  Uiso   1.00
C798   C     0.84022   0.83558   0.11570   0.00000  Uiso   1.00
C799   C     0.84000   0.83120   0.38449   0.00000  Uiso   1.00
C800   C     0.83294   0.83265   0.02418   0.00000  Uiso   1.00
C801   C     0.83312   0.83284   0.47623   0.00000  Uiso   1.00
C802   C     0.95725   0.83306   0.25065   0.00000  Uiso   1.00
C803   C     0.70919   0.83344   0.25022   0.00000  Uiso   1.00
C804   C     0.82913   0.92378   0.10816   0.00000  Uiso   1.00
C805   C     0.78605   0.93975   0.12350   0.00000  Uiso   1.00
C806   C     0.78614   0.99067   0.13241   0.00000  Uiso   1.00
C807   C     0.83589   0.83398   0.16382   0.00000  Uiso   1.00
C808   C     0.83132   0.74243   0.39123   0.00000  Uiso   1.00
C809   C     0.78805   0.72627   0.37671   0.00000  Uiso   1.00
C810   C     0.78853   0.67569   0.36646   0.00000  Uiso   1.00
C811   C     0.87179   0.91338   0.38625   0.00000  Uiso   1.00
C812   C     0.91473   0.90283   0.36629   0.00000  Uiso   1.00
C813   C     0.93772   0.94632   0.35250   0.00000  Uiso   1.00
C814   C     0.87794   0.75668   0.11479   0.00000  Uiso   1.00
C815   C     0.91971   0.77227   0.13432   0.00000  Uiso   1.00
C816   C     0.94524   0.73208   0.15226   0.00000  Uiso   1.00
C817   C     0.83588   0.83272   0.33625   0.00000  Uiso   1.00
C818   C     0.87002   0.69056   0.25078   0.00000  Uiso   1.00
C819   C     0.79661   0.97607   0.24941   0.00000  Uiso   1.00
C820   C     0.79661   0.69073   0.24927   0.00000  Uiso   1.00
C821   C     0.87003   0.97595   0.25037   0.00000  Uiso   1.00
C822   C     0.68844   0.80846   0.28340   0.00000  Uiso   1.00
H823   H     0.89939   0.70850   0.25170   0.00000  Uiso   1.00
H824   H     0.79148   0.67709   0.10122   0.00000  Uiso   1.00
H825   H     0.75552   0.66745   0.14639   0.00000  Uiso   1.00
H826   H     0.76218   0.93272   0.09784   0.00000  Uiso   1.00
H827   H     0.77731   0.92124   0.15432   0.00000  Uiso   1.00
H828   H     0.85313   0.92804   0.13418   0.00000  Uiso   1.00
H829   H     0.83992   0.94728   0.08114   0.00000  Uiso   1.00
H830   H     0.81290   0.66847   0.34150   0.00000  Uiso   1.00
H831   H     0.79502   0.98852   0.39697   0.00000  Uiso   1.00
H832   H     0.75766   0.99886   0.35317   0.00000  Uiso   1.00
H833   H     0.76480   0.73224   0.40325   0.00000  Uiso   1.00
H834   H     0.76720   0.95810   0.24888   0.00000  Uiso   1.00
H835   H     0.77816   0.74549   0.34667   0.00000  Uiso   1.00
H836   H     0.85490   0.73876   0.36471   0.00000  Uiso   1.00
H837   H     0.84289   0.71867   0.41770   0.00000  Uiso   1.00
H838   H     0.91820   0.96734   0.32965   0.00000  Uiso   1.00
H839   H     0.94534   0.96651   0.38203   0.00000  Uiso   1.00
H840   H     0.96726   0.93748   0.33546   0.00000  Uiso   1.00
H841   H     0.93415   0.88380   0.39095   0.00000  Uiso   1.00
H842   H     0.91109   0.88145   0.33688   0.00000  Uiso   1.00
H843   H     0.85080   0.92984   0.36161   0.00000  Uiso   1.00
H844   H     0.87641   0.94002   0.41136   0.00000  Uiso   1.00
H845   H     0.76720   0.70880   0.24873   0.00000  Uiso   1.00
H846   H     0.92702   0.71245   0.17730   0.00000  Uiso   1.00
H847   H     0.95402   0.70926   0.12499   0.00000  Uiso   1.00
H848   H     0.97420   0.74474   0.16801   0.00000  Uiso   1.00
H849   H     0.93824   0.79035   0.10832   0.00000  Uiso   1.00
H850   H     0.91421   0.79616   0.16152   0.00000  Uiso   1.00
H851   H     0.85856   0.73859   0.13984   0.00000  Uiso   1.00
H852   H     0.88501   0.73029   0.09007   0.00000  Uiso   1.00
H853   H     0.70329   0.75004   0.31644   0.00000  Uiso   1.00
H854   H     0.70280   0.79705   0.34793   0.00000  Uiso   1.00
H855   H     0.96261   0.87043   0.15308   0.00000  Uiso   1.00
H856   H     0.89943   0.95788   0.25049   0.00000  Uiso   1.00
H857   H     0.96222   0.91720   0.18517   0.00000  Uiso   1.00
H858   H     0.94095   0.75603   0.30419   0.00000  Uiso   1.00
H859   H     0.93622   0.80433   0.33378   0.00000  Uiso   1.00
H860   H     0.70249   0.91699   0.18416   0.00000  Uiso   1.00
H861   H     0.70247   0.86978   0.15265   0.00000  Uiso   1.00
H862   H     0.80994   0.90110   0.02726   0.00000  Uiso   1.00
H863   H     0.81376   0.76325   0.47285   0.00000  Uiso   1.00
H864   H     0.85894   0.89999   0.47140   0.00000  Uiso   1.00
H865   H     0.86255   0.76723   0.02941   0.00000  Uiso   1.00
H866   H     0.81112   0.99899   0.15637   0.00000  Uiso   1.00
N867   N     0.83333   0.95240   0.25000   0.00000  Uiso   1.00
N868   N     0.83333   0.71427   0.25000   0.00000  Uiso   1.00
N869   N     0.71150   0.78443   0.31722   0.00000  Uiso   1.00
N870   N     0.95450   0.88272   0.18407   0.00000  Uiso   1.00
N871   N     0.95732   0.78286   0.31812   0.00000  Uiso   1.00
N872   N     0.71069   0.88260   0.18341   0.00000  Uiso   1.00
O873   O     0.77226   0.87154   0.25000   0.00000  Uiso   1.00
O874   O     0.89441   0.79513   0.25001   0.00000  Uiso   1.00
O875   O     0.89441   0.87154   0.25001   0.00000  Uiso   1.00
O876   O     0.77226   0.79513   0.25000   0.00000  Uiso   1.00
O877   O     0.83333   0.87155   0.18453   0.00000  Uiso   1.00
O878   O     0.83334   0.79511   0.31547   0.00000  Uiso   1.00
O879   O     0.83334   0.87155   0.31547   0.00000  Uiso   1.00
O880   O     0.83333   0.79511   0.18453   0.00000  Uiso   1.00
Zn881  Zn    0.83333   0.88437   0.25000   0.00000  Uiso   1.00
Zn882  Zn    0.83333   0.78229   0.25000   0.00000  Uiso   1.00
C883   C     0.08669   0.16670   0.74996   0.00000  Uiso   1.00
C884   C     0.31124   0.19165   0.71754   0.00000  Uiso   1.00
C885   C     0.31197   0.14130   0.78364   0.00000  Uiso   1.00
C886   C     0.02126   0.19174   0.71729   0.00000  Uiso   1.00
C887   C     0.15490   0.20518   0.54598   0.00000  Uiso   1.00
C888   C     0.15717   0.12655   0.95424   0.00000  Uiso   1.00
C889   C     0.18174   0.20412   0.95323   0.00000  Uiso   1.00
C890   C     0.18375   0.12920   0.54737   0.00000  Uiso   1.00
C891   C     0.16178   0.20882   0.59095   0.00000  Uiso   1.00
C892   C     0.16362   0.12378   0.90909   0.00000  Uiso   1.00
C893   C     0.18533   0.20440   0.90752   0.00000  Uiso   1.00
C894   C     0.24656   0.16657   0.75064   0.00000  Uiso   1.00
C895   C     0.18781   0.12977   0.59303   0.00000  Uiso   1.00
C896   C     0.17355   0.16891   0.61570   0.00000  Uiso   1.00
C897   C     0.17333   0.16453   0.88449   0.00000  Uiso   1.00
C898   C     0.16628   0.16598   0.52418   0.00000  Uiso   1.00
C899   C     0.16646   0.16617   0.97623   0.00000  Uiso   1.00
C900   C     0.29058   0.16639   0.75065   0.00000  Uiso   1.00
C901   C     0.04252   0.16678   0.75022   0.00000  Uiso   1.00
C902   C     0.16246   0.25712   0.60816   0.00000  Uiso   1.00
C903   C     0.11938   0.27308   0.62350   0.00000  Uiso   1.00
C904   C     0.11947   0.32400   0.63241   0.00000  Uiso   1.00
C905   C     0.16923   0.16732   0.66382   0.00000  Uiso   1.00
C906   C     0.16465   0.07576   0.89123   0.00000  Uiso   1.00
C907   C     0.12138   0.05960   0.87671   0.00000  Uiso   1.00
C908   C     0.12186   0.00902   0.86646   0.00000  Uiso   1.00
C909   C     0.20512   0.24672   0.88625   0.00000  Uiso   1.00
C910   C     0.24806   0.23617   0.86629   0.00000  Uiso   1.00
C911   C     0.27105   0.27965   0.85250   0.00000  Uiso   1.00
C912   C     0.21127   0.09001   0.61479   0.00000  Uiso   1.00
C913   C     0.25304   0.10560   0.63432   0.00000  Uiso   1.00
C914   C     0.27857   0.06541   0.65226   0.00000  Uiso   1.00
C915   C     0.16922   0.16605   0.83625   0.00000  Uiso   1.00
C916   C     0.20335   0.02390   0.75078   0.00000  Uiso   1.00
C917   C     0.12994   0.30940   0.74941   0.00000  Uiso   1.00
C918   C     0.12994   0.02406   0.74927   0.00000  Uiso   1.00
C919   C     0.20336   0.30929   0.75037   0.00000  Uiso   1.00
C920   C     0.02178   0.14179   0.78340   0.00000  Uiso   1.00
H921   H     0.23272   0.04184   0.75170   0.00000  Uiso   1.00
H922   H     0.12481   0.01043   0.60122   0.00000  Uiso   1.00
H923   H     0.08885   0.00079   0.64639   0.00000  Uiso   1.00
H924   H     0.09551   0.26605   0.59784   0.00000  Uiso   1.00
H925   H     0.11065   0.25458   0.65432   0.00000  Uiso   1.00
H926   H     0.18646   0.26137   0.63418   0.00000  Uiso   1.00
H927   H     0.17325   0.28062   0.58114   0.00000  Uiso   1.00
H928   H     0.14623   0.00180   0.84150   0.00000  Uiso   1.00
H929   H     0.12836   0.32185   0.89697   0.00000  Uiso   1.00
H930   H     0.09099   0.33219   0.85317   0.00000  Uiso   1.00
H931   H     0.09813   0.06557   0.90325   0.00000  Uiso   1.00
H932   H     0.10053   0.29143   0.74888   0.00000  Uiso   1.00
H933   H     0.11149   0.07882   0.84667   0.00000  Uiso   1.00
H934   H     0.18824   0.07209   0.86471   0.00000  Uiso   1.00
H935   H     0.17622   0.05200   0.91770   0.00000  Uiso   1.00
H936   H     0.25153   0.30067   0.82965   0.00000  Uiso   1.00
H937   H     0.27867   0.29984   0.88203   0.00000  Uiso   1.00
H938   H     0.30060   0.27082   0.83546   0.00000  Uiso   1.00
H939   H     0.26748   0.21714   0.89095   0.00000  Uiso   1.00
H940   H     0.24442   0.21479   0.83688   0.00000  Uiso   1.00
H941   H     0.18414   0.26317   0.86161   0.00000  Uiso   1.00
H942   H     0.20974   0.27335   0.91136   0.00000  Uiso   1.00
H943   H     0.10053   0.04213   0.74873   0.00000  Uiso   1.00
H944   H     0.26035   0.04578   0.67730   0.00000  Uiso   1.00
H945   H     0.28735   0.04260   0.62499   0.00000  Uiso   1.00
H946   H     0.30753   0.07807   0.66801   0.00000  Uiso   1.00
H947   H     0.27158   0.12368   0.60832   0.00000  Uiso   1.00
H948   H     0.24754   0.12949   0.66152   0.00000  Uiso   1.00
H949   H     0.19189   0.07192   0.63984   0.00000  Uiso   1.00
H950   H     0.21834   0.06362   0.59007   0.00000  Uiso   1.00
H951   H     0.03662   0.08338   0.81644   0.00000  Uiso   1.00
H952   H     0.03613   0.13038   0.84793   0.00000  Uiso   1.00
H953   H     0.29595   0.20376   0.65308   0.00000  Uiso   1.00
H954   H     0.23277   0.29121   0.75049   0.00000  Uiso   1.00
H955   H     0.29555   0.25054   0.68517   0.00000  Uiso   1.00
H956   H     0.27428   0.08936   0.80419   0.00000  Uiso   1.00
H957   H     0.26956   0.13766   0.83378   0.00000  Uiso   1.00
H958   H     0.03583   0.25033   0.68416   0.00000  Uiso   1.00
H959   H     0.03580   0.20312   0.65265   0.00000  Uiso   1.00
H960   H     0.14327   0.23444   0.52726   0.00000  Uiso   1.00
H961   H     0.14710   0.09658   0.97285   0.00000  Uiso   1.00
H962   H     0.19227   0.23333   0.97140   0.00000  Uiso   1.00
H963   H     0.19589   0.10057   0.52941   0.00000  Uiso   1.00
H964   H     0.14445   0.33232   0.65637   0.00000  Uiso   1.00
N965   N     0.16667   0.28573   0.75000   0.00000  Uiso   1.00
N966   N     0.16667   0.04760   0.75000   0.00000  Uiso   1.00
N967   N     0.04483   0.11776   0.81722   0.00000  Uiso   1.00
N968   N     0.28783   0.21606   0.68407   0.00000  Uiso   1.00
N969   N     0.29066   0.11620   0.81812   0.00000  Uiso   1.00
N970   N     0.04402   0.21593   0.68341   0.00000  Uiso   1.00
O971   O     0.10559   0.20487   0.75000   0.00000  Uiso   1.00
O972   O     0.22774   0.12846   0.75001   0.00000  Uiso   1.00
O973   O     0.22774   0.20487   0.75001   0.00000  Uiso   1.00
O974   O     0.10559   0.12846   0.75000   0.00000  Uiso   1.00
O975   O     0.16666   0.20489   0.68453   0.00000  Uiso   1.00
O976   O     0.16667   0.12845   0.81547   0.00000  Uiso   1.00
O977   O     0.16667   0.20489   0.81547   0.00000  Uiso   1.00
O978   O     0.16666   0.12845   0.68453   0.00000  Uiso   1.00
Zn979  Zn    0.16667   0.21771   0.75000   0.00000  Uiso   1.00
Zn980  Zn    0.16667   0.11563   0.75000   0.00000  Uiso   1.00
C981   C     0.42003   0.16670   0.74996   0.00000  Uiso   1.00
C982   C     0.64457   0.19165   0.71754   0.00000  Uiso   1.00
C983   C     0.64531   0.14130   0.78364   0.00000  Uiso   1.00
C984   C     0.35459   0.19174   0.71729   0.00000  Uiso   1.00
C985   C     0.48823   0.20518   0.54598   0.00000  Uiso   1.00
C986   C     0.49051   0.12655   0.95424   0.00000  Uiso   1.00
C987   C     0.51507   0.20412   0.95323   0.00000  Uiso   1.00
C988   C     0.51709   0.12920   0.54737   0.00000  Uiso   1.00
C989   C     0.49512   0.20882   0.59095   0.00000  Uiso   1.00
C990   C     0.49696   0.12378   0.90909   0.00000  Uiso   1.00
C991   C     0.51866   0.20440   0.90752   0.00000  Uiso   1.00
C992   C     0.57989   0.16657   0.75064   0.00000  Uiso   1.00
C993   C     0.52114   0.12977   0.59303   0.00000  Uiso   1.00
C994   C     0.50688   0.16891   0.61570   0.00000  Uiso   1.00
C995   C     0.50666   0.16453   0.88449   0.00000  Uiso   1.00
C996   C     0.49961   0.16598   0.52418   0.00000  Uiso   1.00
C997   C     0.49979   0.16617   0.97623   0.00000  Uiso   1.00
C998   C     0.62391   0.16639   0.75065   0.00000  Uiso   1.00
C999   C     0.37585   0.16678   0.75022   0.00000  Uiso   1.00
C1000  C     0.49579   0.25712   0.60816   0.00000  Uiso   1.00
C1001  C     0.45272   0.27308   0.62350   0.00000  Uiso   1.00
C1002  C     0.45280   0.32400   0.63241   0.00000  Uiso   1.00
C1003  C     0.50256   0.16732   0.66382   0.00000  Uiso   1.00
C1004  C     0.49799   0.07576   0.89123   0.00000  Uiso   1.00
C1005  C     0.45471   0.05960   0.87671   0.00000  Uiso   1.00
C1006  C     0.45519   0.00902   0.86646   0.00000  Uiso   1.00
C1007  C     0.53846   0.24672   0.88625   0.00000  Uiso   1.00
C1008  C     0.58139   0.23617   0.86629   0.00000  Uiso   1.00
C1009  C     0.60438   0.27965   0.85250   0.00000  Uiso   1.00
C1010  C     0.54461   0.09001   0.61479   0.00000  Uiso   1.00
C1011  C     0.58638   0.10560   0.63432   0.00000  Uiso   1.00
C1012  C     0.61190   0.06541   0.65226   0.00000  Uiso   1.00
C1013  C     0.50255   0.16605   0.83625   0.00000  Uiso   1.00
C1014  C     0.53668   0.02390   0.75078   0.00000  Uiso   1.00
C1015  C     0.46327   0.30940   0.74941   0.00000  Uiso   1.00
C1016  C     0.46328   0.02406   0.74927   0.00000  Uiso   1.00
C1017  C     0.53669   0.30929   0.75037   0.00000  Uiso   1.00
C1018  C     0.35511   0.14179   0.78340   0.00000  Uiso   1.00
H1019  H     0.56606   0.04184   0.75170   0.00000  Uiso   1.00
H1020  H     0.45815   0.01043   0.60122   0.00000  Uiso   1.00
H1021  H     0.42218   0.00079   0.64639   0.00000  Uiso   1.00
H1022  H     0.42884   0.26605   0.59784   0.00000  Uiso   1.00
H1023  H     0.44398   0.25458   0.65432   0.00000  Uiso   1.00
H1024  H     0.51980   0.26137   0.63418   0.00000  Uiso   1.00
H1025  H     0.50658   0.28062   0.58114   0.00000  Uiso   1.00
H1026  H     0.47957   0.00180   0.84150   0.00000  Uiso   1.00
H1027  H     0.46169   0.32185   0.89697   0.00000  Uiso   1.00
H1028  H     0.42433   0.33219   0.85317   0.00000  Uiso   1.00
H1029  H     0.43147   0.06557   0.90325   0.00000  Uiso   1.00
H1030  H     0.43387   0.29143   0.74888   0.00000  Uiso   1.00
H1031  H     0.44483   0.07882   0.84667   0.00000  Uiso   1.00
H1032  H     0.52157   0.07209   0.86471   0.00000  Uiso   1.00
H1033  H     0.50955   0.05200   0.91770   0.00000  Uiso   1.00
H1034  H     0.58486   0.30067   0.82965   0.00000  Uiso   1.00
H1035  H     0.61200   0.29984   0.88203   0.00000  Uiso   1.00
H1036  H     0.63393   0.27082   0.83546   0.00000  Uiso   1.00
H1037  H     0.60082   0.21714   0.89095   0.00000  Uiso   1.00
H1038  H     0.57775   0.21479   0.83688   0.00000  Uiso   1.00
H1039  H     0.51747   0.26317   0.86161   0.00000  Uiso   1.00
H1040  H     0.54307   0.27335   0.91136   0.00000  Uiso   1.00
H1041  H     0.43387   0.04213   0.74873   0.00000  Uiso   1.00
H1042  H     0.59369   0.04578   0.67730   0.00000  Uiso   1.00
H1043  H     0.62068   0.04260   0.62499   0.00000  Uiso   1.00
H1044  H     0.64087   0.07807   0.66801   0.00000  Uiso   1.00
H1045  H     0.60491   0.12368   0.60832   0.00000  Uiso   1.00
H1046  H     0.58088   0.12949   0.66152   0.00000  Uiso   1.00
H1047  H     0.52523   0.07192   0.63984   0.00000  Uiso   1.00
H1048  H     0.55168   0.06362   0.59007   0.00000  Uiso   1.00
H1049  H     0.36995   0.08338   0.81644   0.00000  Uiso   1.00
H1050  H     0.36946   0.13038   0.84793   0.00000  Uiso   1.00
H1051  H     0.62928   0.20376   0.65308   0.00000  Uiso   1.00
H1052  H     0.56610   0.29121   0.75049   0.00000  Uiso   1.00
H1053  H     0.62888   0.25054   0.68517   0.00000  Uiso   1.00
H1054  H     0.60761   0.08936   0.80419   0.00000  Uiso   1.00
H1055  H     0.60289   0.13766   0.83378   0.00000  Uiso   1.00
H1056  H     0.36916   0.25033   0.68416   0.00000  Uiso   1.00
H1057  H     0.36913   0.20312   0.65265   0.00000  Uiso   1.00
H1058  H     0.47661   0.23444   0.52726   0.00000  Uiso   1.00
H1059  H     0.48043   0.09658   0.97285   0.00000  Uiso   1.00
H1060  H     0.52560   0.23333   0.97140   0.00000  Uiso   1.00
H1061  H     0.52922   0.10057   0.52941   0.00000  Uiso   1.00
H1062  H     0.47778   0.33232   0.65637   0.00000  Uiso   1.00
N1063  N     0.50000   0.28573   0.75000   0.00000  Uiso   1.00
N1064  N     0.50000   0.04760   0.75000   0.00000  Uiso   1.00
N1065  N     0.37817   0.11776   0.81722   0.00000  Uiso   1.00
N1066  N     0.62117   0.21606   0.68407   0.00000  Uiso   1.00
N1067  N     0.62399   0.11620   0.81812   0.00000  Uiso   1.00
N1068  N     0.37735   0.21593   0.68341   0.00000  Uiso   1.00
O1069  O     0.43892   0.20487   0.75000   0.00000  Uiso   1.00
O1070  O     0.56108   0.12846   0.75001   0.00000  Uiso   1.00
O1071  O     0.56108   0.20487   0.75001   0.00000  Uiso   1.00
O1072  O     0.43892   0.12846   0.75000   0.00000  Uiso   1.00
O1073  O     0.50000   0.20489   0.68453   0.00000  Uiso   1.00
O1074  O     0.50000   0.12845   0.81547   0.00000  Uiso   1.00
O1075  O     0.50000   0.20489   0.81547   0.00000  Uiso   1.00
O1076  O     0.50000   0.12845   0.68453   0.00000  Uiso   1.00
Zn1077 Zn    0.50000   0.21771   0.75000   0.00000  Uiso   1.00
Zn1078 Zn    0.50000   0.11563   0.75000   0.00000  Uiso   1.00
C1079  C     0.75336   0.16670   0.74996   0.00000  Uiso   1.00
C1080  C     0.97791   0.19165   0.71754   0.00000  Uiso   1.00
C1081  C     0.97864   0.14130   0.78364   0.00000  Uiso   1.00
C1082  C     0.68792   0.19174   0.71729   0.00000  Uiso   1.00
C1083  C     0.82156   0.20518   0.54598   0.00000  Uiso   1.00
C1084  C     0.82384   0.12655   0.95424   0.00000  Uiso   1.00
C1085  C     0.84840   0.20412   0.95323   0.00000  Uiso   1.00
C1086  C     0.85042   0.12920   0.54737   0.00000  Uiso   1.00
C1087  C     0.82845   0.20882   0.59095   0.00000  Uiso   1.00
C1088  C     0.83029   0.12378   0.90909   0.00000  Uiso   1.00
C1089  C     0.85200   0.20440   0.90752   0.00000  Uiso   1.00
C1090  C     0.91323   0.16657   0.75064   0.00000  Uiso   1.00
C1091  C     0.85447   0.12977   0.59303   0.00000  Uiso   1.00
C1092  C     0.84022   0.16891   0.61570   0.00000  Uiso   1.00
C1093  C     0.84000   0.16453   0.88449   0.00000  Uiso   1.00
C1094  C     0.83294   0.16598   0.52418   0.00000  Uiso   1.00
C1095  C     0.83312   0.16617   0.97623   0.00000  Uiso   1.00
C1096  C     0.95725   0.16639   0.75065   0.00000  Uiso   1.00
C1097  C     0.70919   0.16678   0.75022   0.00000  Uiso   1.00
C1098  C     0.82913   0.25712   0.60816   0.00000  Uiso   1.00
C1099  C     0.78605   0.27308   0.62350   0.00000  Uiso   1.00
C1100  C     0.78614   0.32400   0.63241   0.00000  Uiso   1.00
C1101  C     0.83589   0.16732   0.66382   0.00000  Uiso   1.00
C1102  C     0.83132   0.07576   0.89123   0.00000  Uiso   1.00
C1103  C     0.78805   0.05960   0.87671   0.00000  Uiso   1.00
C1104  C     0.78853   0.00902   0.86646   0.00000  Uiso   1.00
C1105  C     0.87179   0.24672   0.88625   0.00000  Uiso   1.00
C1106  C     0.91473   0.23617   0.86629   0.00000  Uiso   1.00
C1107  C     0.93772   0.27965   0.85250   0.00000  Uiso   1.00
C1108  C     0.87794   0.09001   0.61479   0.00000  Uiso   1.00
C1109  C     0.91971   0.10560   0.63432   0.00000  Uiso   1.00
C1110  C     0.94524   0.06541   0.65226   0.00000  Uiso   1.00
C1111  C     0.83588   0.16605   0.83625   0.00000  Uiso   1.00
C1112  C     0.87002   0.02390   0.75078   0.00000  Uiso   1.00
C1113  C     0.79661   0.30940   0.74941   0.00000  Uiso   1.00
C1114  C     0.79661   0.02406   0.74927   0.00000  Uiso   1.00
C1115  C     0.87003   0.30929   0.75037   0.00000  Uiso   1.00
C1116  C     0.68844   0.14179   0.78340   0.00000  Uiso   1.00
H1117  H     0.89939   0.04184   0.75170   0.00000  Uiso   1.00
H1118  H     0.79148   0.01043   0.60122   0.00000  Uiso   1.00
H1119  H     0.75552   0.00079   0.64639   0.00000  Uiso   1.00
H1120  H     0.76218   0.26605   0.59784   0.00000  Uiso   1.00
H1121  H     0.77731   0.25458   0.65432   0.00000  Uiso   1.00
H1122  H     0.85313   0.26137   0.63418   0.00000  Uiso   1.00
H1123  H     0.83992   0.28062   0.58114   0.00000  Uiso   1.00
H1124  H     0.81290   0.00180   0.84150   0.00000  Uiso   1.00
H1125  H     0.79502   0.32185   0.89697   0.00000  Uiso   1.00
H1126  H     0.75766   0.33219   0.85317   0.00000  Uiso   1.00
H1127  H     0.76480   0.06557   0.90325   0.00000  Uiso   1.00
H1128  H     0.76720   0.29143   0.74888   0.00000  Uiso   1.00
H1129  H     0.77816   0.07882   0.84667   0.00000  Uiso   1.00
H1130  H     0.85490   0.07209   0.86471   0.00000  Uiso   1.00
H1131  H     0.84289   0.05200   0.91770   0.00000  Uiso   1.00
H1132  H     0.91820   0.30067   0.82965   0.00000  Uiso   1.00
H1133  H     0.94534   0.29984   0.88203   0.00000  Uiso   1.00
H1134  H     0.96726   0.27082   0.83546   0.00000  Uiso   1.00
H1135  H     0.93415   0.21714   0.89095   0.00000  Uiso   1.00
H1136  H     0.91109   0.21479   0.83688   0.00000  Uiso   1.00
H1137  H     0.85080   0.26317   0.86161   0.00000  Uiso   1.00
H1138  H     0.87641   0.27335   0.91136   0.00000  Uiso   1.00
H1139  H     0.76720   0.04213   0.74873   0.00000  Uiso   1.00
H1140  H     0.92702   0.04578   0.67730   0.00000  Uiso   1.00
H1141  H     0.95402   0.04260   0.62499   0.00000  Uiso   1.00
H1142  H     0.97420   0.07807   0.66801   0.00000  Uiso   1.00
H1143  H     0.93824   0.12368   0.60832   0.00000  Uiso   1.00
H1144  H     0.91421   0.12949   0.66152   0.00000  Uiso   1.00
H1145  H     0.85856   0.07192   0.63984   0.00000  Uiso   1.00
H1146  H     0.88501   0.06362   0.59007   0.00000  Uiso   1.00
H1147  H     0.70329   0.08338   0.81644   0.00000  Uiso   1.00
H1148  H     0.70280   0.13038   0.84793   0.00000  Uiso   1.00
H1149  H     0.96261   0.20376   0.65308   0.00000  Uiso   1.00
H1150  H     0.89943   0.29121   0.75049   0.00000  Uiso   1.00
H1151  H     0.96222   0.25054   0.68517   0.00000  Uiso   1.00
H1152  H     0.94095   0.08936   0.80419   0.00000  Uiso   1.00
H1153  H     0.93622   0.13766   0.83378   0.00000  Uiso   1.00
H1154  H     0.70249   0.25033   0.68416   0.00000  Uiso   1.00
H1155  H     0.70247   0.20312   0.65265   0.00000  Uiso   1.00
H1156  H     0.80994   0.23444   0.52726   0.00000  Uiso   1.00
H1157  H     0.81376   0.09658   0.97285   0.00000  Uiso   1.00
H1158  H     0.85894   0.23333   0.97140   0.00000  Uiso   1.00
H1159  H     0.86255   0.10057   0.52941   0.00000  Uiso   1.00
H1160  H     0.81112   0.33232   0.65637   0.00000  Uiso   1.00
N1161  N     0.83333   0.28573   0.75000   0.00000  Uiso   1.00
N1162  N     0.83333   0.04760   0.75000   0.00000  Uiso   1.00
N1163  N     0.71150   0.11776   0.81722   0.00000  Uiso   1.00
N1164  N     0.95450   0.21606   0.68407   0.00000  Uiso   1.00
N1165  N     0.95732   0.11620   0.81812   0.00000  Uiso   1.00
N1166  N     0.71069   0.21593   0.68341   0.00000  Uiso   1.00
O1167  O     0.77226   0.20487   0.75000   0.00000  Uiso   1.00
O1168  O     0.89441   0.12846   0.75001   0.00000  Uiso   1.00
O1169  O     0.89441   0.20487   0.75001   0.00000  Uiso   1.00
O1170  O     0.77226   0.12846   0.75000   0.00000  Uiso   1.00
O1171  O     0.83333   0.20489   0.68453   0.00000  Uiso   1.00
O1172  O     0.83334   0.12845   0.81547   0.00000  Uiso   1.00
O1173  O     0.83334   0.20489   0.81547   0.00000  Uiso   1.00
O1174  O     0.83333   0.12845   0.68453   0.00000  Uiso   1.00
Zn1175 Zn    0.83333   0.21771   0.75000   0.00000  Uiso   1.00
Zn1176 Zn    0.83333   0.11563   0.75000   0.00000  Uiso   1.00
C1177  C     0.08669   0.50004   0.74996   0.00000  Uiso   1.00
C1178  C     0.31124   0.52499   0.71754   0.00000  Uiso   1.00
C1179  C     0.31197   0.47463   0.78364   0.00000  Uiso   1.00
C1180  C     0.02126   0.52507   0.71729   0.00000  Uiso   1.00
C1181  C     0.15490   0.53852   0.54598   0.00000  Uiso   1.00
C1182  C     0.15717   0.45988   0.95424   0.00000  Uiso   1.00
C1183  C     0.18174   0.53745   0.95323   0.00000  Uiso   1.00
C1184  C     0.18375   0.46254   0.54737   0.00000  Uiso   1.00
C1185  C     0.16178   0.54216   0.59095   0.00000  Uiso   1.00
C1186  C     0.16362   0.45712   0.90909   0.00000  Uiso   1.00
C1187  C     0.18533   0.53773   0.90752   0.00000  Uiso   1.00
C1188  C     0.24656   0.49991   0.75064   0.00000  Uiso   1.00
C1189  C     0.18781   0.46311   0.59303   0.00000  Uiso   1.00
C1190  C     0.17355   0.50224   0.61570   0.00000  Uiso   1.00
C1191  C     0.17333   0.49787   0.88449   0.00000  Uiso   1.00
C1192  C     0.16628   0.49932   0.52418   0.00000  Uiso   1.00
C1193  C     0.16646   0.49951   0.97623   0.00000  Uiso   1.00
C1194  C     0.29058   0.49972   0.75065   0.00000  Uiso   1.00
C1195  C     0.04252   0.50011   0.75022   0.00000  Uiso   1.00
C1196  C     0.16246   0.59045   0.60816   0.00000  Uiso   1.00
C1197  C     0.11938   0.60642   0.62350   0.00000  Uiso   1.00
C1198  C     0.11947   0.65733   0.63241   0.00000  Uiso   1.00
C1199  C     0.16923   0.50065   0.66382   0.00000  Uiso   1.00
C1200  C     0.16465   0.40910   0.89123   0.00000  Uiso   1.00
C1201  C     0.12138   0.39294   0.87671   0.00000  Uiso   1.00
C1202  C     0.12186   0.34236   0.86646   0.00000  Uiso   1.00
C1203  C     0.20512   0.58005   0.88625   0.00000  Uiso   1.00
C1204  C     0.24806   0.56950   0.86629   0.00000  Uiso   1.00
C1205  C     0.27105   0.61298   0.85250   0.00000  Uiso   1.00
C1206  C     0.21127   0.42335   0.61479   0.00000  Uiso   1.00
C1207  C     0.25304   0.43893   0.63432   0.00000  Uiso   1.00
C1208  C     0.27857   0.39875   0.65226   0.00000  Uiso   1.00
C1209  C     0.16922   0.49938   0.83625   0.00000  Uiso   1.00
C1210  C     0.20335   0.35723   0.75078   0.00000  Uiso   1.00
C1211  C     0.12994   0.64274   0.74941   0.00000  Uiso   1.00
C1212  C     0.12994   0.35739   0.74927   0.00000  Uiso   1.00
C1213  C     0.20336   0.64262   0.75037   0.00000  Uiso   1.00
C1214  C     0.02178   0.47512   0.78340   0.00000  Uiso   1.00
H1215  H     0.23272   0.37517   0.75170   0.00000  Uiso   1.00
H1216  H     0.12481   0.34376   0.60122   0.00000  Uiso   1.00
H1217  H     0.08885   0.33412   0.64639   0.00000  Uiso   1.00
H1218  H     0.09551   0.59939   0.59784   0.00000  Uiso   1.00
H1219  H     0.11065   0.58791   0.65432   0.00000  Uiso   1.00
H1220  H     0.18646   0.59470   0.63418   0.00000  Uiso   1.00
H1221  H     0.17325   0.61395   0.58114   0.00000  Uiso   1.00
H1222  H     0.14623   0.33514   0.84150   0.00000  Uiso   1.00
H1223  H     0.12836   0.65518   0.89697   0.00000  Uiso   1.00
H1224  H     0.09099   0.66552   0.85317   0.00000  Uiso   1.00
H1225  H     0.09813   0.39890   0.90325   0.00000  Uiso   1.00
H1226  H     0.10053   0.62476   0.74888   0.00000  Uiso   1.00
H1227  H     0.11149   0.41215   0.84667   0.00000  Uiso   1.00
H1228  H     0.18824   0.40543   0.86471   0.00000  Uiso   1.00
H1229  H     0.17622   0.38534   0.91770   0.00000  Uiso   1.00
H1230  H     0.25153   0.63400   0.82965   0.00000  Uiso   1.00
H1231  H     0.27867   0.63318   0.88203   0.00000  Uiso   1.00
H1232  H     0.30060   0.60415   0.83546   0.00000  Uiso   1.00
H1233  H     0.26748   0.55047   0.89095   0.00000  Uiso   1.00
H1234  H     0.24442   0.54812   0.83688   0.00000  Uiso   1.00
H1235  H     0.18414   0.59650   0.86161   0.00000  Uiso   1.00
H1236  H     0.20974   0.60669   0.91136   0.00000  Uiso   1.00
H1237  H     0.10053   0.37546   0.74873   0.00000  Uiso   1.00
H1238  H     0.26035   0.37912   0.67730   0.00000  Uiso   1.00
H1239  H     0.28735   0.37593   0.62499   0.00000  Uiso   1.00
H1240  H     0.30753   0.41140   0.66801   0.00000  Uiso   1.00
H1241  H     0.27158   0.45701   0.60832   0.00000  Uiso   1.00
H1242  H     0.24754   0.46282   0.66152   0.00000  Uiso   1.00
H1243  H     0.19189   0.40525   0.63984   0.00000  Uiso   1.00
H1244  H     0.21834   0.39695   0.59007   0.00000  Uiso   1.00
H1245  H     0.03662   0.41671   0.81644   0.00000  Uiso   1.00
H1246  H     0.03613   0.46372   0.84793   0.00000  Uiso   1.00
H1247  H     0.29595   0.53710   0.65308   0.00000  Uiso   1.00
H1248  H     0.23277   0.62454   0.75049   0.00000  Uiso   1.00
H1249  H     0.29555   0.58387   0.68517   0.00000  Uiso   1.00
H1250  H     0.27428   0.42270   0.80419   0.00000  Uiso   1.00
H1251  H     0.26956   0.47100   0.83378   0.00000  Uiso   1.00
H1252  H     0.03583   0.58366   0.68416   0.00000  Uiso   1.00
H1253  H     0.03580   0.53645   0.65265   0.00000  Uiso   1.00
H1254  H     0.14327   0.56777   0.52726   0.00000  Uiso   1.00
H1255  H     0.14710   0.42992   0.97285   0.00000  Uiso   1.00
H1256  H     0.19227   0.56666   0.97140   0.00000  Uiso   1.00
H1257  H     0.19589   0.43390   0.52941   0.00000  Uiso   1.00
H1258  H     0.14445   0.66566   0.65637   0.00000  Uiso   1.00
N1259  N     0.16667   0.61907   0.75000   0.00000  Uiso   1.00
N1260  N     0.16667   0.38093   0.75000   0.00000  Uiso   1.00
N1261  N     0.04483   0.45110   0.81722   0.00000  Uiso   1.00
N1262  N     0.28783   0.54939   0.68407   0.00000  Uiso   1.00
N1263  N     0.29066   0.44953   0.81812   0.00000  Uiso   1.00
N1264  N     0.04402   0.54926   0.68341   0.00000  Uiso   1.00
O1265  O     0.10559   0.53821   0.75000   0.00000  Uiso   1.00
O1266  O     0.22774   0.46179   0.75001   0.00000  Uiso   1.00
O1267  O     0.22774   0.53821   0.75001   0.00000  Uiso   1.00
O1268  O     0.10559   0.46179   0.75000   0.00000  Uiso   1.00
O1269  O     0.16666   0.53822   0.68453   0.00000  Uiso   1.00
O1270  O     0.16667   0.46178   0.81547   0.00000  Uiso   1.00
O1271  O     0.16667   0.53822   0.81547   0.00000  Uiso   1.00
O1272  O     0.16666   0.46178   0.68453   0.00000  Uiso   1.00
Zn1273 Zn    0.16667   0.55104   0.75000   0.00000  Uiso   1.00
Zn1274 Zn    0.16667   0.44896   0.75000   0.00000  Uiso   1.00
C1275  C     0.42003   0.50004   0.74996   0.00000  Uiso   1.00
C1276  C     0.64457   0.52499   0.71754   0.00000  Uiso   1.00
C1277  C     0.64531   0.47463   0.78364   0.00000  Uiso   1.00
C1278  C     0.35459   0.52507   0.71729   0.00000  Uiso   1.00
C1279  C     0.48823   0.53852   0.54598   0.00000  Uiso   1.00
C1280  C     0.49051   0.45988   0.95424   0.00000  Uiso   1.00
C1281  C     0.51507   0.53745   0.95323   0.00000  Uiso   1.00
C1282  C     0.51709   0.46254   0.54737   0.00000  Uiso   1.00
C1283  C     0.49512   0.54216   0.59095   0.00000  Uiso   1.00
C1284  C     0.49696   0.45712   0.90909   0.00000  Uiso   1.00
C1285  C     0.51866   0.53773   0.90752   0.00000  Uiso   1.00
C1286  C     0.57989   0.49991   0.75064   0.00000  Uiso   1.00
C1287  C     0.52114   0.46311   0.59303   0.00000  Uiso   1.00
C1288  C     0.50688   0.50224   0.61570   0.00000  Uiso   1.00
C1289  C     0.50666   0.49787   0.88449   0.00000  Uiso   1.00
C1290  C     0.49961   0.49932   0.52418   0.00000  Uiso   1.00
C1291  C     0.49979   0.49951   0.97623   0.00000  Uiso   1.00
C1292  C     0.62391   0.49972   0.75065   0.00000  Uiso   1.00
C1293  C     0.37585   0.50011   0.75022   0.00000  Uiso   1.00
C1294  C     0.49579   0.59045   0.60816   0.00000  Uiso   1.00
C1295  C     0.45272   0.60642   0.62350   0.00000  Uiso   1.00
C1296  C     0.45280   0.65733   0.63241   0.00000  Uiso   1.00
C1297  C     0.50256   0.50065   0.66382   0.00000  Uiso   1.00
C1298  C     0.49799   0.40910   0.89123   0.00000  Uiso   1.00
C1299  C     0.45471   0.39294   0.87671   0.00000  Uiso   1.00
C1300  C     0.45519   0.34236   0.86646   0.00000  Uiso   1.00
C1301  C     0.53846   0.58005   0.88625   0.00000  Uiso   1.00
C1302  C     0.58139   0.56950   0.86629   0.00000  Uiso   1.00
C1303  C     0.60438   0.61298   0.85250   0.00000  Uiso   1.00
C1304  C     0.54461   0.42335   0.61479   0.00000  Uiso   1.00
C1305  C     0.58638   0.43893   0.63432   0.00000  Uiso   1.00
C1306  C     0.61190   0.39875   0.65226   0.00000  Uiso   1.00
C1307  C     0.50255   0.49938   0.83625   0.00000  Uiso   1.00
C1308  C     0.53668   0.35723   0.75078   0.00000  Uiso   1.00
C1309  C     0.46327   0.64274   0.74941   0.00000  Uiso   1.00
C1310  C     0.46328   0.35739   0.74927   0.00000  Uiso   1.00
C1311  C     0.53669   0.64262   0.75037   0.00000  Uiso   1.00
C1312  C     0.35511   0.47512   0.78340   0.00000  Uiso   1.00
H1313  H     0.56606   0.37517   0.75170   0.00000  Uiso   1.00
H1314  H     0.45815   0.34376   0.60122   0.00000  Uiso   1.00
H1315  H     0.42218   0.33412   0.64639   0.00000  Uiso   1.00
H1316  H     0.42884   0.59939   0.59784   0.00000  Uiso   1.00
H1317  H     0.44398   0.58791   0.65432   0.00000  Uiso   1.00
H1318  H     0.51980   0.59470   0.63418   0.00000  Uiso   1.00
H1319  H     0.50658   0.61395   0.58114   0.00000  Uiso   1.00
H1320  H     0.47957   0.33514   0.84150   0.00000  Uiso   1.00
H1321  H     0.46169   0.65518   0.89697   0.00000  Uiso   1.00
H1322  H     0.42433   0.66552   0.85317   0.00000  Uiso   1.00
H1323  H     0.43147   0.39890   0.90325   0.00000  Uiso   1.00
H1324  H     0.43387   0.62476   0.74888   0.00000  Uiso   1.00
H1325  H     0.44483   0.41215   0.84667   0.00000  Uiso   1.00
H1326  H     0.52157   0.40543   0.86471   0.00000  Uiso   1.00
H1327  H     0.50955   0.38534   0.91770   0.00000  Uiso   1.00
H1328  H     0.58486   0.63400   0.82965   0.00000  Uiso   1.00
H1329  H     0.61200   0.63318   0.88203   0.00000  Uiso   1.00
H1330  H     0.63393   0.60415   0.83546   0.00000  Uiso   1.00
H1331  H     0.60082   0.55047   0.89095   0.00000  Uiso   1.00
H1332  H     0.57775   0.54812   0.83688   0.00000  Uiso   1.00
H1333  H     0.51747   0.59650   0.86161   0.00000  Uiso   1.00
H1334  H     0.54307   0.60669   0.91136   0.00000  Uiso   1.00
H1335  H     0.43387   0.37546   0.74873   0.00000  Uiso   1.00
H1336  H     0.59369   0.37912   0.67730   0.00000  Uiso   1.00
H1337  H     0.62068   0.37593   0.62499   0.00000  Uiso   1.00
H1338  H     0.64087   0.41140   0.66801   0.00000  Uiso   1.00
H1339  H     0.60491   0.45701   0.60832   0.00000  Uiso   1.00
H1340  H     0.58088   0.46282   0.66152   0.00000  Uiso   1.00
H1341  H     0.52523   0.40525   0.63984   0.00000  Uiso   1.00
H1342  H     0.55168   0.39695   0.59007   0.00000  Uiso   1.00
H1343  H     0.36995   0.41671   0.81644   0.00000  Uiso   1.00
H1344  H     0.36946   0.46372   0.84793   0.00000  Uiso   1.00
H1345  H     0.62928   0.53710   0.65308   0.00000  Uiso   1.00
H1346  H     0.56610   0.62454   0.75049   0.00000  Uiso   1.00
H1347  H     0.62888   0.58387   0.68517   0.00000  Uiso   1.00
H1348  H     0.60761   0.42270   0.80419   0.00000  Uiso   1.00
H1349  H     0.60289   0.47100   0.83378   0.00000  Uiso   1.00
H1350  H     0.36916   0.58366   0.68416   0.00000  Uiso   1.00
H1351  H     0.36913   0.53645   0.65265   0.00000  Uiso   1.00
H1352  H     0.47661   0.56777   0.52726   0.00000  Uiso   1.00
H1353  H     0.48043   0.42992   0.97285   0.00000  Uiso   1.00
H1354  H     0.52560   0.56666   0.97140   0.00000  Uiso   1.00
H1355  H     0.52922   0.43390   0.52941   0.00000  Uiso   1.00
H1356  H     0.47778   0.66566   0.65637   0.00000  Uiso   1.00
N1357  N     0.50000   0.61907   0.75000   0.00000  Uiso   1.00
N1358  N     0.50000   0.38093   0.75000   0.00000  Uiso   1.00
N1359  N     0.37817   0.45110   0.81722   0.00000  Uiso   1.00
N1360  N     0.62117   0.54939   0.68407   0.00000  Uiso   1.00
N1361  N     0.62399   0.44953   0.81812   0.00000  Uiso   1.00
N1362  N     0.37735   0.54926   0.68341   0.00000  Uiso   1.00
O1363  O     0.43892   0.53821   0.75000   0.00000  Uiso   1.00
O1364  O     0.56108   0.46179   0.75001   0.00000  Uiso   1.00
O1365  O     0.56108   0.53821   0.75001   0.00000  Uiso   1.00
O1366  O     0.43892   0.46179   0.75000   0.00000  Uiso   1.00
O1367  O     0.50000   0.53822   0.68453   0.00000  Uiso   1.00
O1368  O     0.50000   0.46178   0.81547   0.00000  Uiso   1.00
O1369  O     0.50000   0.53822   0.81547   0.00000  Uiso   1.00
O1370  O     0.50000   0.46178   0.68453   0.00000  Uiso   1.00
Zn1371 Zn    0.50000   0.55104   0.75000   0.00000  Uiso   1.00
Zn1372 Zn    0.50000   0.44896   0.75000   0.00000  Uiso   1.00
C1373  C     0.75336   0.50004   0.74996   0.00000  Uiso   1.00
C1374  C     0.97791   0.52499   0.71754   0.00000  Uiso   1.00
C1375  C     0.97864   0.47463   0.78364   0.00000  Uiso   1.00
C1376  C     0.68792   0.52507   0.71729   0.00000  Uiso   1.00
C1377  C     0.82156   0.53852   0.54598   0.00000  Uiso   1.00
C1378  C     0.82384   0.45988   0.95424   0.00000  Uiso   1.00
C1379  C     0.84840   0.53745   0.95323   0.00000  Uiso   1.00
C1380  C     0.85042   0.46254   0.54737   0.00000  Uiso   1.00
C1381  C     0.82845   0.54216   0.59095   0.00000  Uiso   1.00
C1382  C     0.83029   0.45712   0.90909   0.00000  Uiso   1.00
C1383  C     0.85200   0.53773   0.90752   0.00000  Uiso   1.00
C1384  C     0.91323   0.49991   0.75064   0.00000  Uiso   1.00
C1385  C     0.85447   0.46311   0.59303   0.00000  Uiso   1.00
C1386  C     0.84022   0.50224   0.61570   0.00000  Uiso   1.00
C1387  C     0.84000   0.49787   0.88449   0.00000  Uiso   1.00
C1388  C     0.83294   0.49932   0.52418   0.00000  Uiso   1.00
C1389  C     0.83312   0.49951   0.97623   0.00000  Uiso   1.00
C1390  C     0.95725   0.49972   0.75065   0.00000  Uiso   1.00
C1391  C     0.70919   0.50011   0.75022   0.00000  Uiso   1.00
C1392  C     0.82913   0.59045   0.60816   0.00000  Uiso   1.00
C1393  C     0.78605   0.60642   0.62350   0.00000  Uiso   1.00
C1394  C     0.78614   0.65733   0.63241   0.00000  Uiso   1.00
C1395  C     0.83589   0.50065   0.66382   0.00000  Uiso   1.00
C1396  C     0.83132   0.40910   0.89123   0.00000  Uiso   1.00
C1397  C     0.78805   0.39294   0.87671   0.00000  Uiso   1.00
C1398  C     0.78853   0.34236   0.86646   0.00000  Uiso   1.00
C1399  C     0.87179   0.58005   0.88625   0.00000  Uiso   1.00
C1400  C     0.91473   0.56950   0.86629   0.00000  Uiso   1.00
C1401  C     0.93772   0.61298   0.85250   0.00000  Uiso   1.00
C1402  C     0.87794   0.42335   0.61479   0.00000  Uiso   1.00
C1403  C     0.91971   0.43893   0.63432   0.00000  Uiso   1.00
C1404  C     0.94524   0.39875   0.65226   0.00000  Uiso   1.00
C1405  C     0.83588   0.49938   0.83625   0.00000  Uiso   1.00
C1406  C     0.87002   0.35723   0.75078   0.00000  Uiso   1.00
C1407  C     0.79661   0.64274   0.74941   0.00000  Uiso   1.00
C1408  C     0.79661   0.35739   0.74927   0.00000  Uiso   1.00
C1409  C     0.87003   0.64262   0.75037   0.00000  Uiso   1.00
C1410  C     0.68844   0.47512   0.78340   0.00000  Uiso   1.00
H1411  H     0.89939   0.37517   0.75170   0.00000  Uiso   1.00
H1412  H     0.79148   0.34376   0.60122   0.00000  Uiso   1.00
H1413  H     0.75552   0.33412   0.64639   0.00000  Uiso   1.00
H1414  H     0.76218   0.59939   0.59784   0.00000  Uiso   1.00
H1415  H     0.77731   0.58791   0.65432   0.00000  Uiso   1.00
H1416  H     0.85313   0.59470   0.63418   0.00000  Uiso   1.00
H1417  H     0.83992   0.61395   0.58114   0.00000  Uiso   1.00
H1418  H     0.81290   0.33514   0.84150   0.00000  Uiso   1.00
H1419  H     0.79502   0.65518   0.89697   0.00000  Uiso   1.00
H1420  H     0.75766   0.66552   0.85317   0.00000  Uiso   1.00
H1421  H     0.76480   0.39890   0.90325   0.00000  Uiso   1.00
H1422  H     0.76720   0.62476   0.74888   0.00000  Uiso   1.00
H1423  H     0.77816   0.41215   0.84667   0.00000  Uiso   1.00
H1424  H     0.85490   0.40543   0.86471   0.00000  Uiso   1.00
H1425  H     0.84289   0.38534   0.91770   0.00000  Uiso   1.00
H1426  H     0.91820   0.63400   0.82965   0.00000  Uiso   1.00
H1427  H     0.94534   0.63318   0.88203   0.00000  Uiso   1.00
H1428  H     0.96726   0.60415   0.83546   0.00000  Uiso   1.00
H1429  H     0.93415   0.55047   0.89095   0.00000  Uiso   1.00
H1430  H     0.91109   0.54812   0.83688   0.00000  Uiso   1.00
H1431  H     0.85080   0.59650   0.86161   0.00000  Uiso   1.00
H1432  H     0.87641   0.60669   0.91136   0.00000  Uiso   1.00
H1433  H     0.76720   0.37546   0.74873   0.00000  Uiso   1.00
H1434  H     0.92702   0.37912   0.67730   0.00000  Uiso   1.00
H1435  H     0.95402   0.37593   0.62499   0.00000  Uiso   1.00
H1436  H     0.97420   0.41140   0.66801   0.00000  Uiso   1.00
H1437  H     0.93824   0.45701   0.60832   0.00000  Uiso   1.00
H1438  H     0.91421   0.46282   0.66152   0.00000  Uiso   1.00
H1439  H     0.85856   0.40525   0.63984   0.00000  Uiso   1.00
H1440  H     0.88501   0.39695   0.59007   0.00000  Uiso   1.00
H1441  H     0.70329   0.41671   0.81644   0.00000  Uiso   1.00
H1442  H     0.70280   0.46372   0.84793   0.00000  Uiso   1.00
H1443  H     0.96261   0.53710   0.65308   0.00000  Uiso   1.00
H1444  H     0.89943   0.62454   0.75049   0.00000  Uiso   1.00
H1445  H     0.96222   0.58387   0.68517   0.00000  Uiso   1.00
H1446  H     0.94095   0.42270   0.80419   0.00000  Uiso   1.00
H1447  H     0.93622   0.47100   0.83378   0.00000  Uiso   1.00
H1448  H     0.70249   0.58366   0.68416   0.00000  Uiso   1.00
H1449  H     0.70247   0.53645   0.65265   0.00000  Uiso   1.00
H1450  H     0.80994   0.56777   0.52726   0.00000  Uiso   1.00
H1451  H     0.81376   0.42992   0.97285   0.00000  Uiso   1.00
H1452  H     0.85894   0.56666   0.97140   0.00000  Uiso   1.00
H1453  H     0.86255   0.43390   0.52941   0.00000  Uiso   1.00
H1454  H     0.81112   0.66566   0.65637   0.00000  Uiso   1.00
N1455  N     0.83333   0.61907   0.75000   0.00000  Uiso   1.00
N1456  N     0.83333   0.38093   0.75000   0.00000  Uiso   1.00
N1457  N     0.71150   0.45110   0.81722   0.00000  Uiso   1.00
N1458  N     0.95450   0.54939   0.68407   0.00000  Uiso   1.00
N1459  N     0.95732   0.44953   0.81812   0.00000  Uiso   1.00
N1460  N     0.71069   0.54926   0.68341   0.00000  Uiso   1.00
O1461  O     0.77226   0.53821   0.75000   0.00000  Uiso   1.00
O1462  O     0.89441   0.46179   0.75001   0.00000  Uiso   1.00
O1463  O     0.89441   0.53821   0.75001   0.00000  Uiso   1.00
O1464  O     0.77226   0.46179   0.75000   0.00000  Uiso   1.00
O1465  O     0.83333   0.53822   0.68453   0.00000  Uiso   1.00
O1466  O     0.83334   0.46178   0.81547   0.00000  Uiso   1.00
O1467  O     0.83334   0.53822   0.81547   0.00000  Uiso   1.00
O1468  O     0.83333   0.46178   0.68453   0.00000  Uiso   1.00
Zn1469 Zn    0.83333   0.55104   0.75000   0.00000  Uiso   1.00
Zn1470 Zn    0.83333   0.44896   0.75000   0.00000  Uiso   1.00
C1471  C     0.08669   0.83337   0.74996   0.00000  Uiso   1.00
C1472  C     0.31124   0.85832   0.71754   0.00000  Uiso   1.00
C1473  C     0.31197   0.80796   0.78364   0.00000  Uiso   1.00
C1474  C     0.02126   0.85840   0.71729   0.00000  Uiso   1.00
C1475  C     0.15490   0.87185   0.54598   0.00000  Uiso   1.00
C1476  C     0.15717   0.79321   0.95424   0.00000  Uiso   1.00
C1477  C     0.18174   0.87078   0.95323   0.00000  Uiso   1.00
C1478  C     0.18375   0.79587   0.54737   0.00000  Uiso   1.00
C1479  C     0.16178   0.87549   0.59095   0.00000  Uiso   1.00
C1480  C     0.16362   0.79045   0.90909   0.00000  Uiso   1.00
C1481  C     0.18533   0.87106   0.90752   0.00000  Uiso   1.00
C1482  C     0.24656   0.83324   0.75064   0.00000  Uiso   1.00
C1483  C     0.18781   0.79644   0.59303   0.00000  Uiso   1.00
C1484  C     0.17355   0.83558   0.61570   0.00000  Uiso   1.00
C1485  C     0.17333   0.83120   0.88449   0.00000  Uiso   1.00
C1486  C     0.16628   0.83265   0.52418   0.00000  Uiso   1.00
C1487  C     0.16646   0.83284   0.97623   0.00000  Uiso   1.00
C1488  C     0.29058   0.83306   0.75065   0.00000  Uiso   1.00
C1489  C     0.04252   0.83344   0.75022   0.00000  Uiso   1.00
C1490  C     0.16246   0.92378   0.60816   0.00000  Uiso   1.00
C1491  C     0.11938   0.93975   0.62350   0.00000  Uiso   1.00
C1492  C     0.11947   0.99067   0.63241   0.00000  Uiso   1.00
C1493  C     0.16923   0.83398   0.66382   0.00000  Uiso   1.00
C1494  C     0.16465   0.74243   0.89123   0.00000  Uiso   1.00
C1495  C     0.12138   0.72627   0.87671   0.00000  Uiso   1.00
C1496  C     0.12186   0.67569   0.86646   0.00000  Uiso   1.00
C1497  C     0.20512   0.91338   0.88625   0.00000  Uiso   1.00
C1498  C     0.24806   0.90283   0.86629   0.00000  Uiso   1.00
C1499  C     0.27105   0.94632   0.85250   0.00000  Uiso   1.00
C1500  C     0.21127   0.75668   0.61479   0.00000  Uiso   1.00
C1501  C     0.25304   0.77227   0.63432   0.00000  Uiso   1.00
C1502  C     0.27857   0.73208   0.65226   0.00000  Uiso   1.00
C1503  C     0.16922   0.83272   0.83625   0.00000  Uiso   1.00
C1504  C     0.20335   0.69056   0.75078   0.00000  Uiso   1.00
C1505  C     0.12994   0.97607   0.74941   0.00000  Uiso   1.00
C1506  C     0.12994   0.69073   0.74927   0.00000  Uiso   1.00
C1507  C     0.20336   0.97595   0.75037   0.00000  Uiso   1.00
C1508  C     0.02178   0.80846   0.78340   0.00000  Uiso   1.00
H1509  H     0.23272   0.70850   0.75170   0.00000  Uiso   1.00
H1510  H     0.12481   0.67709   0.60122   0.00000  Uiso   1.00
H1511  H     0.08885   0.66745   0.64639   0.00000  Uiso   1.00
H1512  H     0.09551   0.93272   0.59784   0.00000  Uiso   1.00
H1513  H     0.11065   0.92124   0.65432   0.00000  Uiso   1.00
H1514  H     0.18646   0.92804   0.63418   0.00000  Uiso   1.00
H1515  H     0.17325   0.94728   0.58114   0.00000  Uiso   1.00
H1516  H     0.14623   0.66847   0.84150   0.00000  Uiso   1.00
H1517  H     0.12836   0.98852   0.89697   0.00000  Uiso   1.00
H1518  H     0.09099   0.99886   0.85317   0.00000  Uiso   1.00
H1519  H     0.09813   0.73224   0.90325   0.00000  Uiso   1.00
H1520  H     0.10053   0.95810   0.74888   0.00000  Uiso   1.00
H1521  H     0.11149   0.74549   0.84667   0.00000  Uiso   1.00
H1522  H     0.18824   0.73876   0.86471   0.00000  Uiso   1.00
H1523  H     0.17622   0.71867   0.91770   0.00000  Uiso   1.00
H1524  H     0.25153   0.96734   0.82965   0.00000  Uiso   1.00
H1525  H     0.27867   0.96651   0.88203   0.00000  Uiso   1.00
H1526  H     0.30060   0.93748   0.83546   0.00000  Uiso   1.00
H1527  H     0.26748   0.88380   0.89095   0.00000  Uiso   1.00
H1528  H     0.24442   0.88145   0.83688   0.00000  Uiso   1.00
H1529  H     0.18414   0.92984   0.86161   0.00000  Uiso   1.00
H1530  H     0.20974   0.94002   0.91136   0.00000  Uiso   1.00
H1531  H     0.10053   0.70880   0.74873   0.00000  Uiso   1.00
H1532  H     0.26035   0.71245   0.67730   0.00000  Uiso   1.00
H1533  H     0.28735   0.70926   0.62499   0.00000  Uiso   1.00
H1534  H     0.30753   0.74474   0.66801   0.00000  Uiso   1.00
H1535  H     0.27158   0.79035   0.60832   0.00000  Uiso   1.00
H1536  H     0.24754   0.79616   0.66152   0.00000  Uiso   1.00
H1537  H     0.19189   0.73859   0.63984   0.00000  Uiso   1.00
H1538  H     0.21834   0.73029   0.59007   0.00000  Uiso   1.00
H1539  H     0.03662   0.75004   0.81644   0.00000  Uiso   1.00
H1540  H     0.03613   0.79705   0.84793   0.00000  Uiso   1.00
H1541  H     0.29595   0.87043   0.65308   0.00000  Uiso   1.00
H1542  H     0.23277   0.95788   0.75049   0.00000  Uiso   1.00
H1543  H     0.29555   0.91720   0.68517   0.00000  Uiso   1.00
H1544  H     0.27428   0.75603   0.80419   0.00000  Uiso   1.00
H1545  H     0.26956   0.80433   0.83378   0.00000  Uiso   1.00
H1546  H     0.03583   0.91699   0.68416   0.00000  Uiso   1.00
H1547  H     0.03580   0.86978   0.65265   0.00000  Uiso   1.00
H1548  H     0.14327   0.90110   0.52726   0.00000  Uiso   1.00
H1549  H     0.14710   0.76325   0.97285   0.00000  Uiso   1.00
H1550  H     0.19227   0.89999   0.97140   0.00000  Uiso   1.00
H1551  H     0.19589   0.76723   0.52941   0.00000  Uiso   1.00
H1552  H     0.14445   0.99899   0.65637   0.00000  Uiso   1.00
N1553  N     0.16667   0.95240   0.75000   0.00000  Uiso   1.00
N1554  N     0.16667   0.71427   0.75000   0.00000  Uiso   1.00
N1555  N     0.04483   0.78443   0.81722   0.00000  Uiso   1.00
N1556  N     0.28783   0.88272   0.68407   0.00000  Uiso   1.00
N1557  N     0.29066   0.78286   0.81812   0.00000  Uiso   1.00
N1558  N     0.04402   0.88260   0.68341   0.00000  Uiso   1.00
O1559  O     0.10559   0.87154   0.75000   0.00000  Uiso   1.00
O1560  O     0.22774   0.79513   0.75001   0.00000  Uiso   1.00
O1561  O     0.22774   0.87154   0.75001   0.00000  Uiso   1.00
O1562  O     0.10559   0.79513   0.75000   0.00000  Uiso   1.00
O1563  O     0.16666   0.87155   0.68453   0.00000  Uiso   1.00
O1564  O     0.16667   0.79511   0.81547   0.00000  Uiso   1.00
O1565  O     0.16667   0.87155   0.81547   0.00000  Uiso   1.00
O1566  O     0.16666   0.79511   0.68453   0.00000  Uiso   1.00
Zn1567 Zn    0.16667   0.88437   0.75000   0.00000  Uiso   1.00
Zn1568 Zn    0.16667   0.78229   0.75000   0.00000  Uiso   1.00
C1569  C     0.42003   0.83337   0.74996   0.00000  Uiso   1.00
C1570  C     0.64457   0.85832   0.71754   0.00000  Uiso   1.00
C1571  C     0.64531   0.80796   0.78364   0.00000  Uiso   1.00
C1572  C     0.35459   0.85840   0.71729   0.00000  Uiso   1.00
C1573  C     0.48823   0.87185   0.54598   0.00000  Uiso   1.00
C1574  C     0.49051   0.79321   0.95424   0.00000  Uiso   1.00
C1575  C     0.51507   0.87078   0.95323   0.00000  Uiso   1.00
C1576  C     0.51709   0.79587   0.54737   0.00000  Uiso   1.00
C1577  C     0.49512   0.87549   0.59095   0.00000  Uiso   1.00
C1578  C     0.49696   0.79045   0.90909   0.00000  Uiso   1.00
C1579  C     0.51866   0.87106   0.90752   0.00000  Uiso   1.00
C1580  C     0.57989   0.83324   0.75064   0.00000  Uiso   1.00
C1581  C     0.52114   0.79644   0.59303   0.00000  Uiso   1.00
C1582  C     0.50688   0.83558   0.61570   0.00000  Uiso   1.00
C1583  C     0.50666   0.83120   0.88449   0.00000  Uiso   1.00
C1584  C     0.49961   0.83265   0.52418   0.00000  Uiso   1.00
C1585  C     0.49979   0.83284   0.97623   0.00000  Uiso   1.00
C1586  C     0.62391   0.83306   0.75065   0.00000  Uiso   1.00
C1587  C     0.37585   0.83344   0.75022   0.00000  Uiso   1.00
C1588  C     0.49579   0.92378   0.60816   0.00000  Uiso   1.00
C1589  C     0.45272   0.93975   0.62350   0.00000  Uiso   1.00
C1590  C     0.45280   0.99067   0.63241   0.00000  Uiso   1.00
C1591  C     0.50256   0.83398   0.66382   0.00000  Uiso   1.00
C1592  C     0.49799   0.74243   0.89123   0.00000  Uiso   1.00
C1593  C     0.45471   0.72627   0.87671   0.00000  Uiso   1.00
C1594  C     0.45519   0.67569   0.86646   0.00000  Uiso   1.00
C1595  C     0.53846   0.91338   0.88625   0.00000  Uiso   1.00
C1596  C     0.58139   0.90283   0.86629   0.00000  Uiso   1.00
C1597  C     0.60438   0.94632   0.85250   0.00000  Uiso   1.00
C1598  C     0.54461   0.75668   0.61479   0.00000  Uiso   1.00
C1599  C     0.58638   0.77227   0.63432   0.00000  Uiso   1.00
C1600  C     0.61190   0.73208   0.65226   0.00000  Uiso   1.00
C1601  C     0.50255   0.83272   0.83625   0.00000  Uiso   1.00
C1602  C     0.53668   0.69056   0.75078   0.00000  Uiso   1.00
C1603  C     0.46327   0.97607   0.74941   0.00000  Uiso   1.00
C1604  C     0.46328   0.69073   0.74927   0.00000  Uiso   1.00
C1605  C     0.53669   0.97595   0.75037   0.00000  Uiso   1.00
C1606  C     0.35511   0.80846   0.78340   0.00000  Uiso   1.00
H1607  H     0.56606   0.70850   0.75170   0.00000  Uiso   1.00
H1608  H     0.45815   0.67709   0.60122   0.00000  Uiso   1.00
H1609  H     0.42218   0.66745   0.64639   0.00000  Uiso   1.00
H1610  H     0.42884   0.93272   0.59784   0.00000  Uiso   1.00
H1611  H     0.44398   0.92124   0.65432   0.00000  Uiso   1.00
H1612  H     0.51980   0.92804   0.63418   0.00000  Uiso   1.00
H1613  H     0.50658   0.94728   0.58114   0.00000  Uiso   1.00
H1614  H     0.47957   0.66847   0.84150   0.00000  Uiso   1.00
H1615  H     0.46169   0.98852   0.89697   0.00000  Uiso   1.00
H1616  H     0.42433   0.99886   0.85317   0.00000  Uiso   1.00
H1617  H     0.43147   0.73224   0.90325   0.00000  Uiso   1.00
H1618  H     0.43387   0.95810   0.74888   0.00000  Uiso   1.00
H1619  H     0.44483   0.74549   0.84667   0.00000  Uiso   1.00
H1620  H     0.52157   0.73876   0.86471   0.00000  Uiso   1.00
H1621  H     0.50955   0.71867   0.91770   0.00000  Uiso   1.00
H1622  H     0.58486   0.96734   0.82965   0.00000  Uiso   1.00
H1623  H     0.61200   0.96651   0.88203   0.00000  Uiso   1.00
H1624  H     0.63393   0.93748   0.83546   0.00000  Uiso   1.00
H1625  H     0.60082   0.88380   0.89095   0.00000  Uiso   1.00
H1626  H     0.57775   0.88145   0.83688   0.00000  Uiso   1.00
H1627  H     0.51747   0.92984   0.86161   0.00000  Uiso   1.00
H1628  H     0.54307   0.94002   0.91136   0.00000  Uiso   1.00
H1629  H     0.43387   0.70880   0.74873   0.00000  Uiso   1.00
H1630  H     0.59369   0.71245   0.67730   0.00000  Uiso   1.00
H1631  H     0.62068   0.70926   0.62499   0.00000  Uiso   1.00
H1632  H     0.64087   0.74474   0.66801   0.00000  Uiso   1.00
H1633  H     0.60491   0.79035   0.60832   0.00000  Uiso   1.00
H1634  H     0.58088   0.79616   0.66152   0.00000  Uiso   1.00
H1635  H     0.52523   0.73859   0.63984   0.00000  Uiso   1.00
H1636  H     0.55168   0.73029   0.59007   0.00000  Uiso   1.00
H1637  H     0.36995   0.75004   0.81644   0.00000  Uiso   1.00
H1638  H     0.36946   0.79705   0.84793   0.00000  Uiso   1.00
H1639  H     0.62928   0.87043   0.65308   0.00000  Uiso   1.00
H1640  H     0.56610   0.95788   0.75049   0.00000  Uiso   1.00
H1641  H     0.62888   0.91720   0.68517   0.00000  Uiso   1.00
H1642  H     0.60761   0.75603   0.80419   0.00000  Uiso   1.00
H1643  H     0.60289   0.80433   0.83378   0.00000  Uiso   1.00
H1644  H     0.36916   0.91699   0.68416   0.00000  Uiso   1.00
H1645  H     0.36913   0.86978   0.65265   0.00000  Uiso   1.00
H1646  H     0.47661   0.90110   0.52726   0.00000  Uiso   1.00
H1647  H     0.48043   0.76325   0.97285   0.00000  Uiso   1.00
H1648  H     0.52560   0.89999   0.97140   0.00000  Uiso   1.00
H1649  H     0.52922   0.76723   0.52941   0.00000  Uiso   1.00
H1650  H     0.47778   0.99899   0.65637   0.00000  Uiso   1.00
N1651  N     0.50000   0.95240   0.75000   0.00000  Uiso   1.00
N1652  N     0.50000   0.71427   0.75000   0.00000  Uiso   1.00
N1653  N     0.37817   0.78443   0.81722   0.00000  Uiso   1.00
N1654  N     0.62117   0.88272   0.68407   0.00000  Uiso   1.00
N1655  N     0.62399   0.78286   0.81812   0.00000  Uiso   1.00
N1656  N     0.37735   0.88260   0.68341   0.00000  Uiso   1.00
O1657  O     0.43892   0.87154   0.75000   0.00000  Uiso   1.00
O1658  O     0.56108   0.79513   0.75001   0.00000  Uiso   1.00
O1659  O     0.56108   0.87154   0.75001   0.00000  Uiso   1.00
O1660  O     0.43892   0.79513   0.75000   0.00000  Uiso   1.00
O1661  O     0.50000   0.87155   0.68453   0.00000  Uiso   1.00
O1662  O     0.50000   0.79511   0.81547   0.00000  Uiso   1.00
O1663  O     0.50000   0.87155   0.81547   0.00000  Uiso   1.00
O1664  O     0.50000   0.79511   0.68453   0.00000  Uiso   1.00
Zn1665 Zn    0.50000   0.88437   0.75000   0.00000  Uiso   1.00
Zn1666 Zn    0.50000   0.78229   0.75000   0.00000  Uiso   1.00
C1667  C     0.75336   0.83337   0.74996   0.00000  Uiso   1.00
C1668  C     0.97791   0.85832   0.71754   0.00000  Uiso   1.00
C1669  C     0.97864   0.80796   0.78364   0.00000  Uiso   1.00
C1670  C     0.68792   0.85840   0.71729   0.00000  Uiso   1.00
C1671  C     0.82156   0.87185   0.54598   0.00000  Uiso   1.00
C1672  C     0.82384   0.79321   0.95424   0.00000  Uiso   1.00
C1673  C     0.84840   0.87078   0.95323   0.00000  Uiso   1.00
C1674  C     0.85042   0.79587   0.54737   0.00000  Uiso   1.00
C1675  C     0.82845   0.87549   0.59095   0.00000  Uiso   1.00
C1676  C     0.83029   0.79045   0.90909   0.00000  Uiso   1.00
C1677  C     0.85200   0.87106   0.90752   0.00000  Uiso   1.00
C1678  C     0.91323   0.83324   0.75064   0.00000  Uiso   1.00
C1679  C     0.85447   0.79644   0.59303   0.00000  Uiso   1.00
C1680  C     0.84022   0.83558   0.61570   0.00000  Uiso   1.00
C1681  C     0.84000   0.83120   0.88449   0.00000  Uiso   1.00
C1682  C     0.83294   0.83265   0.52418   0.00000  Uiso   1.00
C1683  C     0.83312   0.83284   0.97623   0.00000  Uiso   1.00
C1684  C     0.95725   0.83306   0.75065   0.00000  Uiso   1.00
C1685  C     0.70919   0.83344   0.75022   0.00000  Uiso   1.00
C1686  C     0.82913   0.92378   0.60816   0.00000  Uiso   1.00
C1687  C     0.78605   0.93975   0.62350   0.00000  Uiso   1.00
C1688  C     0.78614   0.99067   0.63241   0.00000  Uiso   1.00
C1689  C     0.83589   0.83398   0.66382   0.00000  Uiso   1.00
C1690  C     0.83132   0.74243   0.89123   0.00000  Uiso   1.00
C1691  C     0.78805   0.72627   0.87671   0.00000  Uiso   1.00
C1692  C     0.78853   0.67569   0.86646   0.00000  Uiso   1.00
C1693  C     0.87179   0.91338   0.88625   0.00000  Uiso   1.00
C1694  C     0.91473   0.90283   0.86629   0.00000  Uiso   1.00
C1695  C     0.93772   0.94632   0.85250   0.00000  Uiso   1.00
C1696  C     0.87794   0.75668   0.61479   0.00000  Uiso   1.00
C1697  C     0.91971   0.77227   0.63432   0.00000  Uiso   1.00
C1698  C     0.94524   0.73208   0.65226   0.00000  Uiso   1.00
C1699  C     0.83588   0.83272   0.83625   0.00000  Uiso   1.00
C1700  C     0.87002   0.69056   0.75078   0.00000  Uiso   1.00
C1701  C     0.79661   0.97607   0.74941   0.00000  Uiso   1.00
C1702  C     0.79661   0.69073   0.74927   0.00000  Uiso   1.00
C1703  C     0.87003   0.97595   0.75037   0.00000  Uiso   1.00
C1704  C     0.68844   0.80846   0.78340   0.00000  Uiso   1.00
H1705  H     0.89939   0.70850   0.75170   0.00000  Uiso   1.00
H1706  H     0.79148   0.67709   0.60122   0.00000  Uiso   1.00
H1707  H     0.75552   0.66745   0.64639   0.00000  Uiso   1.00
H1708  H     0.76218   0.93272   0.59784   0.00000  Uiso   1.00
H1709  H     0.77731   0.92124   0.65432   0.00000  Uiso   1.00
H1710  H     0.85313   0.92804   0.63418   0.00000  Uiso   1.00
H1711  H     0.83992   0.94728   0.58114   0.00000  Uiso   1.00
H1712  H     0.81290   0.66847   0.84150   0.00000  Uiso   1.00
H1713  H     0.79502   0.98852   0.89697   0.00000  Uiso   1.00
H1714  H     0.75766   0.99886   0.85317   0.00000  Uiso   1.00
H1715  H     0.76480   0.73224   0.90325   0.00000  Uiso   1.00
H1716  H     0.76720   0.95810   0.74888   0.00000  Uiso   1.00
H1717  H     0.77816   0.74549   0.84667   0.00000  Uiso   1.00
H1718  H     0.85490   0.73876   0.86471   0.00000  Uiso   1.00
H1719  H     0.84289   0.71867   0.91770   0.00000  Uiso   1.00
H1720  H     0.91820   0.96734   0.82965   0.00000  Uiso   1.00
H1721  H     0.94534   0.96651   0.88203   0.00000  Uiso   1.00
H1722  H     0.96726   0.93748   0.83546   0.00000  Uiso   1.00
H1723  H     0.93415   0.88380   0.89095   0.00000  Uiso   1.00
H1724  H     0.91109   0.88145   0.83688   0.00000  Uiso   1.00
H1725  H     0.85080   0.92984   0.86161   0.00000  Uiso   1.00
H1726  H     0.87641   0.94002   0.91136   0.00000  Uiso   1.00
H1727  H     0.76720   0.70880   0.74873   0.00000  Uiso   1.00
H1728  H     0.92702   0.71245   0.67730   0.00000  Uiso   1.00
H1729  H     0.95402   0.70926   0.62499   0.00000  Uiso   1.00
H1730  H     0.97420   0.74474   0.66801   0.00000  Uiso   1.00
H1731  H     0.93824   0.79035   0.60832   0.00000  Uiso   1.00
H1732  H     0.91421   0.79616   0.66152   0.00000  Uiso   1.00
H1733  H     0.85856   0.73859   0.63984   0.00000  Uiso   1.00
H1734  H     0.88501   0.73029   0.59007   0.00000  Uiso   1.00
H1735  H     0.70329   0.75004   0.81644   0.00000  Uiso   1.00
H1736  H     0.70280   0.79705   0.84793   0.00000  Uiso   1.00
H1737  H     0.96261   0.87043   0.65308   0.00000  Uiso   1.00
H1738  H     0.89943   0.95788   0.75049   0.00000  Uiso   1.00
H1739  H     0.96222   0.91720   0.68517   0.00000  Uiso   1.00
H1740  H     0.94095   0.75603   0.80419   0.00000  Uiso   1.00
H1741  H     0.93622   0.80433   0.83378   0.00000  Uiso   1.00
H1742  H     0.70249   0.91699   0.68416   0.00000  Uiso   1.00
H1743  H     0.70247   0.86978   0.65265   0.00000  Uiso   1.00
H1744  H     0.80994   0.90110   0.52726   0.00000  Uiso   1.00
H1745  H     0.81376   0.76325   0.97285   0.00000  Uiso   1.00
H1746  H     0.85894   0.89999   0.97140   0.00000  Uiso   1.00
H1747  H     0.86255   0.76723   0.52941   0.00000  Uiso   1.00
H1748  H     0.81112   0.99899   0.65637   0.00000  Uiso   1.00
N1749  N     0.83333   0.95240   0.75000   0.00000  Uiso   1.00
N1750  N     0.83333   0.71427   0.75000   0.00000  Uiso   1.00
N1751  N     0.71150   0.78443   0.81722   0.00000  Uiso   1.00
N1752  N     0.95450   0.88272   0.68407   0.00000  Uiso   1.00
N1753  N     0.95732   0.78286   0.81812   0.00000  Uiso   1.00
N1754  N     0.71069   0.88260   0.68341   0.00000  Uiso   1.00
O1755  O     0.77226   0.87154   0.75000   0.00000  Uiso   1.00
O1756  O     0.89441   0.79513   0.75001   0.00000  Uiso   1.00
O1757  O     0.89441   0.87154   0.75001   0.00000  Uiso   1.00
O1758  O     0.77226   0.79513   0.75000   0.00000  Uiso   1.00
O1759  O     0.83333   0.87155   0.68453   0.00000  Uiso   1.00
O1760  O     0.83334   0.79511   0.81547   0.00000  Uiso   1.00
O1761  O     0.83334   0.87155   0.81547   0.00000  Uiso   1.00
O1762  O     0.83333   0.79511   0.68453   0.00000  Uiso   1.00
Zn1763 Zn    0.83333   0.88437   0.75000   0.00000  Uiso   1.00
Zn1764 Zn    0.83333   0.78229   0.75000   0.00000  Uiso   1.00
loop_
_geom_bond_atom_site_label_1
_geom_bond_atom_site_label_2
_geom_bond_distance
_geom_bond_site_symmetry_2
_ccdc_geom_bond_type
C1     C19     1.414   .     S
C1     O92     1.276   .     A
C1     O89     1.276   .     A
C2     C18     1.401   .     A
C2     N86     1.438   .     S
C2     C102    1.388   .     S
C3     C18     1.406   .     A
C3     N87     1.438   .     S
C3     C136    1.381   .     S
C4     C19     1.400   .     A
C4     N88     1.435   .     S
C4     C198    1.388   1_455 S
C5     C16     1.389   .     A
C5     C9      1.385   .     A
C5     H78     1.085   .     S
C6     C17     1.387   .     A
C6     C10     1.386   .     A
C6     H79     1.085   .     S
C7     C11     1.388   .     A
C7     C17     1.391   .     A
C7     H80     1.084   .     S
C8     C13     1.388   .     A
C8     C16     1.393   .     A
C8     H81     1.084   .     S
C9     C14     1.428   .     A
C9     C20     1.523   .     S
C10    C15     1.431   .     A
C10    C24     1.523   .     S
C11    C15     1.430   .     A
C11    C27     1.527   .     S
C12    O91     1.276   .     A
C12    O90     1.274   .     A
C12    C18     1.409   .     S
C13    C30     1.526   .     S
C13    C14     1.427   .     A
C14    C23     1.462   .     S
C15    C33     1.465   .     S
C16    C899    1.451   1_554 S
C17    C898    1.451   .     S
C19    C38     1.399   .     A
C20    H45     1.114   .     S
C20    H44     1.109   .     S
C20    C21     1.532   .     S
C21    H43     1.106   .     S
C21    C22     1.527   .     S
C21    H42     1.112   .     S
C22    H82     1.110   .     S
C22    H334    1.111   .     S
C22    H335    1.110   .     S
C23    O96     1.294   .     A
C23    O93     1.285   .     A
C24    H52     1.109   .     S
C24    C25     1.532   .     S
C24    H53     1.114   .     S
C25    H51     1.105   .     S
C25    C26     1.526   .     S
C25    H49     1.112   .     S
C26    H46     1.110   .     S
C26    H635    1.111   1_545 S
C26    H636    1.110   1_545 S
C27    H60     1.113   .     S
C27    H59     1.106   .     S
C27    C28     1.536   .     S
C28    H57     1.112   .     S
C28    C29     1.526   .     S
C28    H58     1.107   .     S
C29    H54     1.109   .     S
C29    H55     1.111   .     S
C29    H56     1.111   .     S
C30    C31     1.536   .     S
C30    H67     1.107   .     S
C30    H68     1.113   .     S
C31    H66     1.108   .     S
C31    C32     1.526   .     S
C31    H65     1.112   .     S
C32    H64     1.111   .     S
C32    H63     1.111   .     S
C32    H62     1.109   .     S
C33    O94     1.286   .     A
C33    O95     1.294   .     A
C34    N84     1.365   .     A
C34    H39     1.079   .     S
C34    C625    1.410   1_545 S
C35    N83     1.365   .     A
C35    H50     1.080   .     S
C35    C330    1.411   .     S
C36    H61     1.080   .     S
C36    N84     1.365   .     A
C36    C623    1.411   1_545 S
C37    H72     1.080   .     S
C37    N83     1.365   .     A
C37    C328    1.410   .     S
C38    N85     1.434   .     S
C38    C199    1.381   1_455 S
H40    C610    1.111   1_545 S
H41    C610    1.110   1_545 S
H47    C320    1.111   .     S
H48    C320    1.110   .     S
H69    N85     1.046   .     S
H70    N85     1.046   .     S
H71    N86     1.045   .     S
H73    N86     1.045   .     S
H74    N87     1.044   .     S
H75    N87     1.045   .     S
H76    N88     1.045   .     S
H77    N88     1.045   .     S
N83    Zn97    2.000   .     S
N84    Zn98    2.000   .     S
O89    Zn97    1.992   .     S
O90    Zn98    1.992   .     S
O91    Zn97    1.991   .     S
O92    Zn98    1.991   .     S
O93    Zn97    2.024   .     S
O94    Zn98    2.024   .     S
O95    Zn97    2.008   .     S
O96    Zn98    2.008   .     S
C99    C117    1.414   .     S
C99    O190    1.276   .     A
C99    O187    1.276   .     A
C100   C116    1.401   .     A
C100   N184    1.438   .     S
C100   C200    1.388   .     S
C101   C116    1.406   .     A
C101   N185    1.438   .     S
C101   C234    1.381   .     S
C102   C117    1.400   .     A
C102   N186    1.435   .     S
C103   C114    1.389   .     A
C103   C107    1.385   .     A
C103   H176    1.085   .     S
C104   C115    1.387   .     A
C104   C108    1.386   .     A
C104   H177    1.085   .     S
C105   C109    1.388   .     A
C105   C115    1.391   .     A
C105   H178    1.084   .     S
C106   C111    1.388   .     A
C106   C114    1.393   .     A
C106   H179    1.084   .     S
C107   C112    1.428   .     A
C107   C118    1.523   .     S
C108   C113    1.431   .     A
C108   C122    1.523   .     S
C109   C113    1.430   .     A
C109   C125    1.527   .     S
C110   O189    1.276   .     A
C110   O188    1.274   .     A
C110   C116    1.409   .     S
C111   C128    1.526   .     S
C111   C112    1.427   .     A
C112   C121    1.462   .     S
C113   C131    1.465   .     S
C114   C997    1.451   1_554 S
C115   C996    1.451   .     S
C117   C136    1.399   .     A
C118   H143    1.114   .     S
C118   H142    1.109   .     S
C118   C119    1.532   .     S
C119   H141    1.106   .     S
C119   C120    1.527   .     S
C119   H140    1.112   .     S
C120   H180    1.110   .     S
C120   H432    1.111   .     S
C120   H433    1.110   .     S
C121   O194    1.294   .     A
C121   O191    1.285   .     A
C122   H150    1.109   .     S
C122   C123    1.532   .     S
C122   H151    1.114   .     S
C123   H149    1.105   .     S
C123   C124    1.526   .     S
C123   H147    1.112   .     S
C124   H144    1.110   .     S
C124   H733    1.111   1_545 S
C124   H734    1.110   1_545 S
C125   H158    1.113   .     S
C125   H157    1.106   .     S
C125   C126    1.536   .     S
C126   H155    1.112   .     S
C126   C127    1.526   .     S
C126   H156    1.107   .     S
C127   H152    1.109   .     S
C127   H153    1.111   .     S
C127   H154    1.111   .     S
C128   C129    1.536   .     S
C128   H165    1.107   .     S
C128   H166    1.113   .     S
C129   H164    1.108   .     S
C129   C130    1.526   .     S
C129   H163    1.112   .     S
C130   H162    1.111   .     S
C130   H161    1.111   .     S
C130   H160    1.109   .     S
C131   O192    1.286   .     A
C131   O193    1.294   .     A
C132   N182    1.365   .     A
C132   H137    1.079   .     S
C132   C723    1.410   1_545 S
C133   N181    1.365   .     A
C133   H148    1.080   .     S
C133   C428    1.411   .     S
C134   H159    1.080   .     S
C134   N182    1.365   .     A
C134   C721    1.411   1_545 S
C135   H170    1.080   .     S
C135   N181    1.365   .     A
C135   C426    1.410   .     S
C136   N183    1.434   .     S
H138   C708    1.111   1_545 S
H139   C708    1.110   1_545 S
H145   C418    1.111   .     S
H146   C418    1.110   .     S
H167   N183    1.046   .     S
H168   N183    1.046   .     S
H169   N184    1.045   .     S
H171   N184    1.045   .     S
H172   N185    1.044   .     S
H173   N185    1.045   .     S
H174   N186    1.045   .     S
H175   N186    1.045   .     S
N181   Zn195   2.000   .     S
N182   Zn196   2.000   .     S
O187   Zn195   1.992   .     S
O188   Zn196   1.992   .     S
O189   Zn195   1.991   .     S
O190   Zn196   1.991   .     S
O191   Zn195   2.024   .     S
O192   Zn196   2.024   .     S
O193   Zn195   2.008   .     S
O194   Zn196   2.008   .     S
C197   C215    1.414   .     S
C197   O288    1.276   .     A
C197   O285    1.276   .     A
C198   C214    1.401   .     A
C198   N282    1.438   .     S
C198   C4      1.388   1_655 S
C199   C214    1.406   .     A
C199   N283    1.438   .     S
C199   C38     1.381   1_655 S
C200   C215    1.400   .     A
C200   N284    1.435   .     S
C201   C212    1.389   .     A
C201   C205    1.385   .     A
C201   H274    1.085   .     S
C202   C213    1.387   .     A
C202   C206    1.386   .     A
C202   H275    1.085   .     S
C203   C207    1.388   .     A
C203   C213    1.391   .     A
C203   H276    1.084   .     S
C204   C209    1.388   .     A
C204   C212    1.393   .     A
C204   H277    1.084   .     S
C205   C210    1.428   .     A
C205   C216    1.523   .     S
C206   C211    1.431   .     A
C206   C220    1.523   .     S
C207   C211    1.430   .     A
C207   C223    1.527   .     S
C208   O287    1.276   .     A
C208   O286    1.274   .     A
C208   C214    1.409   .     S
C209   C226    1.526   .     S
C209   C210    1.427   .     A
C210   C219    1.462   .     S
C211   C229    1.465   .     S
C212   C1095   1.451   1_554 S
C213   C1094   1.451   .     S
C215   C234    1.399   .     A
C216   H241    1.114   .     S
C216   H240    1.109   .     S
C216   C217    1.532   .     S
C217   H239    1.106   .     S
C217   C218    1.527   .     S
C217   H238    1.112   .     S
C218   H278    1.110   .     S
C218   H530    1.111   .     S
C218   H531    1.110   .     S
C219   O292    1.294   .     A
C219   O289    1.285   .     A
C220   H248    1.109   .     S
C220   C221    1.532   .     S
C220   H249    1.114   .     S
C221   H247    1.105   .     S
C221   C222    1.526   .     S
C221   H245    1.112   .     S
C222   H242    1.110   .     S
C222   H831    1.111   1_545 S
C222   H832    1.110   1_545 S
C223   H256    1.113   .     S
C223   H255    1.106   .     S
C223   C224    1.536   .     S
C224   H253    1.112   .     S
C224   C225    1.526   .     S
C224   H254    1.107   .     S
C225   H250    1.109   .     S
C225   H251    1.111   .     S
C225   H252    1.111   .     S
C226   C227    1.536   .     S
C226   H263    1.107   .     S
C226   H264    1.113   .     S
C227   H262    1.108   .     S
C227   C228    1.526   .     S
C227   H261    1.112   .     S
C228   H260    1.111   .     S
C228   H259    1.111   .     S
C228   H258    1.109   .     S
C229   O290    1.286   .     A
C229   O291    1.294   .     A
C230   N280    1.365   .     A
C230   H235    1.079   .     S
C230   C821    1.410   1_545 S
C231   N279    1.365   .     A
C231   H246    1.080   .     S
C231   C526    1.411   .     S
C232   H257    1.080   .     S
C232   N280    1.365   .     A
C232   C819    1.411   1_545 S
C233   H268    1.080   .     S
C233   N279    1.365   .     A
C233   C524    1.410   .     S
C234   N281    1.434   .     S
H236   C806    1.111   1_545 S
H237   C806    1.110   1_545 S
H243   C516    1.111   .     S
H244   C516    1.110   .     S
H265   N281    1.046   .     S
H266   N281    1.046   .     S
H267   N282    1.045   .     S
H269   N282    1.045   .     S
H270   N283    1.044   .     S
H271   N283    1.045   .     S
H272   N284    1.045   .     S
H273   N284    1.045   .     S
N279   Zn293   2.000   .     S
N280   Zn294   2.000   .     S
O285   Zn293   1.992   .     S
O286   Zn294   1.992   .     S
O287   Zn293   1.991   .     S
O288   Zn294   1.991   .     S
O289   Zn293   2.024   .     S
O290   Zn294   2.024   .     S
O291   Zn293   2.008   .     S
O292   Zn294   2.008   .     S
C295   C313    1.414   .     S
C295   O386    1.276   .     A
C295   O383    1.276   .     A
C296   C312    1.401   .     A
C296   N380    1.438   .     S
C296   C396    1.388   .     S
C297   C312    1.406   .     A
C297   N381    1.438   .     S
C297   C430    1.381   .     S
C298   C313    1.400   .     A
C298   N382    1.435   .     S
C298   C492    1.388   1_455 S
C299   C310    1.389   .     A
C299   C303    1.385   .     A
C299   H372    1.085   .     S
C300   C311    1.387   .     A
C300   C304    1.386   .     A
C300   H373    1.085   .     S
C301   C305    1.388   .     A
C301   C311    1.391   .     A
C301   H374    1.084   .     S
C302   C307    1.388   .     A
C302   C310    1.393   .     A
C302   H375    1.084   .     S
C303   C308    1.428   .     A
C303   C314    1.523   .     S
C304   C309    1.431   .     A
C304   C318    1.523   .     S
C305   C309    1.430   .     A
C305   C321    1.527   .     S
C306   O385    1.276   .     A
C306   O384    1.274   .     A
C306   C312    1.409   .     S
C307   C324    1.526   .     S
C307   C308    1.427   .     A
C308   C317    1.462   .     S
C309   C327    1.465   .     S
C310   C1193   1.451   1_554 S
C311   C1192   1.451   .     S
C313   C332    1.399   .     A
C314   H339    1.114   .     S
C314   H338    1.109   .     S
C314   C315    1.532   .     S
C315   H337    1.106   .     S
C315   C316    1.527   .     S
C315   H336    1.112   .     S
C316   H376    1.110   .     S
C316   H628    1.111   .     S
C316   H629    1.110   .     S
C317   O390    1.294   .     A
C317   O387    1.285   .     A
C318   H346    1.109   .     S
C318   C319    1.532   .     S
C318   H347    1.114   .     S
C319   H345    1.105   .     S
C319   C320    1.526   .     S
C319   H343    1.112   .     S
C320   H340    1.110   .     S
C321   H354    1.113   .     S
C321   H353    1.106   .     S
C321   C322    1.536   .     S
C322   H351    1.112   .     S
C322   C323    1.526   .     S
C322   H352    1.107   .     S
C323   H348    1.109   .     S
C323   H349    1.111   .     S
C323   H350    1.111   .     S
C324   C325    1.536   .     S
C324   H361    1.107   .     S
C324   H362    1.113   .     S
C325   H360    1.108   .     S
C325   C326    1.526   .     S
C325   H359    1.112   .     S
C326   H358    1.111   .     S
C326   H357    1.111   .     S
C326   H356    1.109   .     S
C327   O388    1.286   .     A
C327   O389    1.294   .     A
C328   N378    1.365   .     A
C328   H333    1.079   .     S
C329   N377    1.365   .     A
C329   H344    1.080   .     S
C329   C624    1.411   .     S
C330   H355    1.080   .     S
C330   N378    1.365   .     A
C331   H366    1.080   .     S
C331   N377    1.365   .     A
C331   C622    1.410   .     S
C332   N379    1.434   .     S
C332   C493    1.381   1_455 S
H341   C614    1.111   .     S
H342   C614    1.110   .     S
H363   N379    1.046   .     S
H364   N379    1.046   .     S
H365   N380    1.045   .     S
H367   N380    1.045   .     S
H368   N381    1.044   .     S
H369   N381    1.045   .     S
H370   N382    1.045   .     S
H371   N382    1.045   .     S
N377   Zn391   2.000   .     S
N378   Zn392   2.000   .     S
O383   Zn391   1.992   .     S
O384   Zn392   1.992   .     S
O385   Zn391   1.991   .     S
O386   Zn392   1.991   .     S
O387   Zn391   2.024   .     S
O388   Zn392   2.024   .     S
O389   Zn391   2.008   .     S
O390   Zn392   2.008   .     S
C393   C411    1.414   .     S
C393   O484    1.276   .     A
C393   O481    1.276   .     A
C394   C410    1.401   .     A
C394   N478    1.438   .     S
C394   C494    1.388   .     S
C395   C410    1.406   .     A
C395   N479    1.438   .     S
C395   C528    1.381   .     S
C396   C411    1.400   .     A
C396   N480    1.435   .     S
C397   C408    1.389   .     A
C397   C401    1.385   .     A
C397   H470    1.085   .     S
C398   C409    1.387   .     A
C398   C402    1.386   .     A
C398   H471    1.085   .     S
C399   C403    1.388   .     A
C399   C409    1.391   .     A
C399   H472    1.084   .     S
C400   C405    1.388   .     A
C400   C408    1.393   .     A
C400   H473    1.084   .     S
C401   C406    1.428   .     A
C401   C412    1.523   .     S
C402   C407    1.431   .     A
C402   C416    1.523   .     S
C403   C407    1.430   .     A
C403   C419    1.527   .     S
C404   O483    1.276   .     A
C404   O482    1.274   .     A
C404   C410    1.409   .     S
C405   C422    1.526   .     S
C405   C406    1.427   .     A
C406   C415    1.462   .     S
C407   C425    1.465   .     S
C408   C1291   1.451   1_554 S
C409   C1290   1.451   .     S
C411   C430    1.399   .     A
C412   H437    1.114   .     S
C412   H436    1.109   .     S
C412   C413    1.532   .     S
C413   H435    1.106   .     S
C413   C414    1.527   .     S
C413   H434    1.112   .     S
C414   H474    1.110   .     S
C414   H726    1.111   .     S
C414   H727    1.110   .     S
C415   O488    1.294   .     A
C415   O485    1.285   .     A
C416   H444    1.109   .     S
C416   C417    1.532   .     S
C416   H445    1.114   .     S
C417   H443    1.105   .     S
C417   C418    1.526   .     S
C417   H441    1.112   .     S
C418   H438    1.110   .     S
C419   H452    1.113   .     S
C419   H451    1.106   .     S
C419   C420    1.536   .     S
C420   H449    1.112   .     S
C420   C421    1.526   .     S
C420   H450    1.107   .     S
C421   H446    1.109   .     S
C421   H447    1.111   .     S
C421   H448    1.111   .     S
C422   C423    1.536   .     S
C422   H459    1.107   .     S
C422   H460    1.113   .     S
C423   H458    1.108   .     S
C423   C424    1.526   .     S
C423   H457    1.112   .     S
C424   H456    1.111   .     S
C424   H455    1.111   .     S
C424   H454    1.109   .     S
C425   O486    1.286   .     A
C425   O487    1.294   .     A
C426   N476    1.365   .     A
C426   H431    1.079   .     S
C427   N475    1.365   .     A
C427   H442    1.080   .     S
C427   C722    1.411   .     S
C428   H453    1.080   .     S
C428   N476    1.365   .     A
C429   H464    1.080   .     S
C429   N475    1.365   .     A
C429   C720    1.410   .     S
C430   N477    1.434   .     S
H439   C712    1.111   .     S
H440   C712    1.110   .     S
H461   N477    1.046   .     S
H462   N477    1.046   .     S
H463   N478    1.045   .     S
H465   N478    1.045   .     S
H466   N479    1.044   .     S
H467   N479    1.045   .     S
H468   N480    1.045   .     S
H469   N480    1.045   .     S
N475   Zn489   2.000   .     S
N476   Zn490   2.000   .     S
O481   Zn489   1.992   .     S
O482   Zn490   1.992   .     S
O483   Zn489   1.991   .     S
O484   Zn490   1.991   .     S
O485   Zn489   2.024   .     S
O486   Zn490   2.024   .     S
O487   Zn489   2.008   .     S
O488   Zn490   2.008   .     S
C491   C509    1.414   .     S
C491   O582    1.276   .     A
C491   O579    1.276   .     A
C492   C508    1.401   .     A
C492   N576    1.438   .     S
C492   C298    1.388   1_655 S
C493   C508    1.406   .     A
C493   N577    1.438   .     S
C493   C332    1.381   1_655 S
C494   C509    1.400   .     A
C494   N578    1.435   .     S
C495   C506    1.389   .     A
C495   C499    1.385   .     A
C495   H568    1.085   .     S
C496   C507    1.387   .     A
C496   C500    1.386   .     A
C496   H569    1.085   .     S
C497   C501    1.388   .     A
C497   C507    1.391   .     A
C497   H570    1.084   .     S
C498   C503    1.388   .     A
C498   C506    1.393   .     A
C498   H571    1.084   .     S
C499   C504    1.428   .     A
C499   C510    1.523   .     S
C500   C505    1.431   .     A
C500   C514    1.523   .     S
C501   C505    1.430   .     A
C501   C517    1.527   .     S
C502   O581    1.276   .     A
C502   O580    1.274   .     A
C502   C508    1.409   .     S
C503   C520    1.526   .     S
C503   C504    1.427   .     A
C504   C513    1.462   .     S
C505   C523    1.465   .     S
C506   C1389   1.451   1_554 S
C507   C1388   1.451   .     S
C509   C528    1.399   .     A
C510   H535    1.114   .     S
C510   H534    1.109   .     S
C510   C511    1.532   .     S
C511   H533    1.106   .     S
C511   C512    1.527   .     S
C511   H532    1.112   .     S
C512   H572    1.110   .     S
C512   H824    1.111   .     S
C512   H825    1.110   .     S
C513   O586    1.294   .     A
C513   O583    1.285   .     A
C514   H542    1.109   .     S
C514   C515    1.532   .     S
C514   H543    1.114   .     S
C515   H541    1.105   .     S
C515   C516    1.526   .     S
C515   H539    1.112   .     S
C516   H536    1.110   .     S
C517   H550    1.113   .     S
C517   H549    1.106   .     S
C517   C518    1.536   .     S
C518   H547    1.112   .     S
C518   C519    1.526   .     S
C518   H548    1.107   .     S
C519   H544    1.109   .     S
C519   H545    1.111   .     S
C519   H546    1.111   .     S
C520   C521    1.536   .     S
C520   H557    1.107   .     S
C520   H558    1.113   .     S
C521   H556    1.108   .     S
C521   C522    1.526   .     S
C521   H555    1.112   .     S
C522   H554    1.111   .     S
C522   H553    1.111   .     S
C522   H552    1.109   .     S
C523   O584    1.286   .     A
C523   O585    1.294   .     A
C524   N574    1.365   .     A
C524   H529    1.079   .     S
C525   N573    1.365   .     A
C525   H540    1.080   .     S
C525   C820    1.411   .     S
C526   H551    1.080   .     S
C526   N574    1.365   .     A
C527   H562    1.080   .     S
C527   N573    1.365   .     A
C527   C818    1.410   .     S
C528   N575    1.434   .     S
H537   C810    1.111   .     S
H538   C810    1.110   .     S
H559   N575    1.046   .     S
H560   N575    1.046   .     S
H561   N576    1.045   .     S
H563   N576    1.045   .     S
H564   N577    1.044   .     S
H565   N577    1.045   .     S
H566   N578    1.045   .     S
H567   N578    1.045   .     S
N573   Zn587   2.000   .     S
N574   Zn588   2.000   .     S
O579   Zn587   1.992   .     S
O580   Zn588   1.992   .     S
O581   Zn587   1.991   .     S
O582   Zn588   1.991   .     S
O583   Zn587   2.024   .     S
O584   Zn588   2.024   .     S
O585   Zn587   2.008   .     S
O586   Zn588   2.008   .     S
C589   C607    1.414   .     S
C589   O680    1.276   .     A
C589   O677    1.276   .     A
C590   C606    1.401   .     A
C590   N674    1.438   .     S
C590   C690    1.388   .     S
C591   C606    1.406   .     A
C591   N675    1.438   .     S
C591   C724    1.381   .     S
C592   C607    1.400   .     A
C592   N676    1.435   .     S
C592   C786    1.388   1_455 S
C593   C604    1.389   .     A
C593   C597    1.385   .     A
C593   H666    1.085   .     S
C594   C605    1.387   .     A
C594   C598    1.386   .     A
C594   H667    1.085   .     S
C595   C599    1.388   .     A
C595   C605    1.391   .     A
C595   H668    1.084   .     S
C596   C601    1.388   .     A
C596   C604    1.393   .     A
C596   H669    1.084   .     S
C597   C602    1.428   .     A
C597   C608    1.523   .     S
C598   C603    1.431   .     A
C598   C612    1.523   .     S
C599   C603    1.430   .     A
C599   C615    1.527   .     S
C600   O679    1.276   .     A
C600   O678    1.274   .     A
C600   C606    1.409   .     S
C601   C618    1.526   .     S
C601   C602    1.427   .     A
C602   C611    1.462   .     S
C603   C621    1.465   .     S
C604   C1487   1.451   1_554 S
C605   C1486   1.451   .     S
C607   C626    1.399   .     A
C608   H633    1.114   .     S
C608   H632    1.109   .     S
C608   C609    1.532   .     S
C609   H631    1.106   .     S
C609   C610    1.527   .     S
C609   H630    1.112   .     S
C610   H670    1.110   .     S
C610   H40     1.111   1_565 S
C610   H41     1.110   1_565 S
C611   O684    1.294   .     A
C611   O681    1.285   .     A
C612   H640    1.109   .     S
C612   C613    1.532   .     S
C612   H641    1.114   .     S
C613   H639    1.105   .     S
C613   C614    1.526   .     S
C613   H637    1.112   .     S
C614   H634    1.110   .     S
C615   H648    1.113   .     S
C615   H647    1.106   .     S
C615   C616    1.536   .     S
C616   H645    1.112   .     S
C616   C617    1.526   .     S
C616   H646    1.107   .     S
C617   H642    1.109   .     S
C617   H643    1.111   .     S
C617   H644    1.111   .     S
C618   C619    1.536   .     S
C618   H655    1.107   .     S
C618   H656    1.113   .     S
C619   H654    1.108   .     S
C619   C620    1.526   .     S
C619   H653    1.112   .     S
C620   H652    1.111   .     S
C620   H651    1.111   .     S
C620   H650    1.109   .     S
C621   O682    1.286   .     A
C621   O683    1.294   .     A
C622   N672    1.365   .     A
C622   H627    1.079   .     S
C623   N671    1.365   .     A
C623   H638    1.080   .     S
C623   C36     1.411   1_565 S
C624   H649    1.080   .     S
C624   N672    1.365   .     A
C625   H660    1.080   .     S
C625   N671    1.365   .     A
C625   C34     1.410   1_565 S
C626   N673    1.434   .     S
C626   C787    1.381   1_455 S
H635   C26     1.111   1_565 S
H636   C26     1.110   1_565 S
H657   N673    1.046   .     S
H658   N673    1.046   .     S
H659   N674    1.045   .     S
H661   N674    1.045   .     S
H662   N675    1.044   .     S
H663   N675    1.045   .     S
H664   N676    1.045   .     S
H665   N676    1.045   .     S
N671   Zn685   2.000   .     S
N672   Zn686   2.000   .     S
O677   Zn685   1.992   .     S
O678   Zn686   1.992   .     S
O679   Zn685   1.991   .     S
O680   Zn686   1.991   .     S
O681   Zn685   2.024   .     S
O682   Zn686   2.024   .     S
O683   Zn685   2.008   .     S
O684   Zn686   2.008   .     S
C687   C705    1.414   .     S
C687   O778    1.276   .     A
C687   O775    1.276   .     A
C688   C704    1.401   .     A
C688   N772    1.438   .     S
C688   C788    1.388   .     S
C689   C704    1.406   .     A
C689   N773    1.438   .     S
C689   C822    1.381   .     S
C690   C705    1.400   .     A
C690   N774    1.435   .     S
C691   C702    1.389   .     A
C691   C695    1.385   .     A
C691   H764    1.085   .     S
C692   C703    1.387   .     A
C692   C696    1.386   .     A
C692   H765    1.085   .     S
C693   C697    1.388   .     A
C693   C703    1.391   .     A
C693   H766    1.084   .     S
C694   C699    1.388   .     A
C694   C702    1.393   .     A
C694   H767    1.084   .     S
C695   C700    1.428   .     A
C695   C706    1.523   .     S
C696   C701    1.431   .     A
C696   C710    1.523   .     S
C697   C701    1.430   .     A
C697   C713    1.527   .     S
C698   O777    1.276   .     A
C698   O776    1.274   .     A
C698   C704    1.409   .     S
C699   C716    1.526   .     S
C699   C700    1.427   .     A
C700   C709    1.462   .     S
C701   C719    1.465   .     S
C702   C1585   1.451   1_554 S
C703   C1584   1.451   .     S
C705   C724    1.399   .     A
C706   H731    1.114   .     S
C706   H730    1.109   .     S
C706   C707    1.532   .     S
C707   H729    1.106   .     S
C707   C708    1.527   .     S
C707   H728    1.112   .     S
C708   H768    1.110   .     S
C708   H138    1.111   1_565 S
C708   H139    1.110   1_565 S
C709   O782    1.294   .     A
C709   O779    1.285   .     A
C710   H738    1.109   .     S
C710   C711    1.532   .     S
C710   H739    1.114   .     S
C711   H737    1.105   .     S
C711   C712    1.526   .     S
C711   H735    1.112   .     S
C712   H732    1.110   .     S
C713   H746    1.113   .     S
C713   H745    1.106   .     S
C713   C714    1.536   .     S
C714   H743    1.112   .     S
C714   C715    1.526   .     S
C714   H744    1.107   .     S
C715   H740    1.109   .     S
C715   H741    1.111   .     S
C715   H742    1.111   .     S
C716   C717    1.536   .     S
C716   H753    1.107   .     S
C716   H754    1.113   .     S
C717   H752    1.108   .     S
C717   C718    1.526   .     S
C717   H751    1.112   .     S
C718   H750    1.111   .     S
C718   H749    1.111   .     S
C718   H748    1.109   .     S
C719   O780    1.286   .     A
C719   O781    1.294   .     A
C720   N770    1.365   .     A
C720   H725    1.079   .     S
C721   N769    1.365   .     A
C721   H736    1.080   .     S
C721   C134    1.411   1_565 S
C722   H747    1.080   .     S
C722   N770    1.365   .     A
C723   H758    1.080   .     S
C723   N769    1.365   .     A
C723   C132    1.410   1_565 S
C724   N771    1.434   .     S
H733   C124    1.111   1_565 S
H734   C124    1.110   1_565 S
H755   N771    1.046   .     S
H756   N771    1.046   .     S
H757   N772    1.045   .     S
H759   N772    1.045   .     S
H760   N773    1.044   .     S
H761   N773    1.045   .     S
H762   N774    1.045   .     S
H763   N774    1.045   .     S
N769   Zn783   2.000   .     S
N770   Zn784   2.000   .     S
O775   Zn783   1.992   .     S
O776   Zn784   1.992   .     S
O777   Zn783   1.991   .     S
O778   Zn784   1.991   .     S
O779   Zn783   2.024   .     S
O780   Zn784   2.024   .     S
O781   Zn783   2.008   .     S
O782   Zn784   2.008   .     S
C785   C803    1.414   .     S
C785   O876    1.276   .     A
C785   O873    1.276   .     A
C786   C802    1.401   .     A
C786   N870    1.438   .     S
C786   C592    1.388   1_655 S
C787   C802    1.406   .     A
C787   N871    1.438   .     S
C787   C626    1.381   1_655 S
C788   C803    1.400   .     A
C788   N872    1.435   .     S
C789   C800    1.389   .     A
C789   C793    1.385   .     A
C789   H862    1.085   .     S
C790   C801    1.387   .     A
C790   C794    1.386   .     A
C790   H863    1.085   .     S
C791   C795    1.388   .     A
C791   C801    1.391   .     A
C791   H864    1.084   .     S
C792   C797    1.388   .     A
C792   C800    1.393   .     A
C792   H865    1.084   .     S
C793   C798    1.428   .     A
C793   C804    1.523   .     S
C794   C799    1.431   .     A
C794   C808    1.523   .     S
C795   C799    1.430   .     A
C795   C811    1.527   .     S
C796   O875    1.276   .     A
C796   O874    1.274   .     A
C796   C802    1.409   .     S
C797   C814    1.526   .     S
C797   C798    1.427   .     A
C798   C807    1.462   .     S
C799   C817    1.465   .     S
C800   C1683   1.451   1_554 S
C801   C1682   1.451   .     S
C803   C822    1.399   .     A
C804   H829    1.114   .     S
C804   H828    1.109   .     S
C804   C805    1.532   .     S
C805   H827    1.106   .     S
C805   C806    1.527   .     S
C805   H826    1.112   .     S
C806   H866    1.110   .     S
C806   H236    1.111   1_565 S
C806   H237    1.110   1_565 S
C807   O880    1.294   .     A
C807   O877    1.285   .     A
C808   H836    1.109   .     S
C808   C809    1.532   .     S
C808   H837    1.114   .     S
C809   H835    1.105   .     S
C809   C810    1.526   .     S
C809   H833    1.112   .     S
C810   H830    1.110   .     S
C811   H844    1.113   .     S
C811   H843    1.106   .     S
C811   C812    1.536   .     S
C812   H841    1.112   .     S
C812   C813    1.526   .     S
C812   H842    1.107   .     S
C813   H838    1.109   .     S
C813   H839    1.111   .     S
C813   H840    1.111   .     S
C814   C815    1.536   .     S
C814   H851    1.107   .     S
C814   H852    1.113   .     S
C815   H850    1.108   .     S
C815   C816    1.526   .     S
C815   H849    1.112   .     S
C816   H848    1.111   .     S
C816   H847    1.111   .     S
C816   H846    1.109   .     S
C817   O878    1.286   .     A
C817   O879    1.294   .     A
C818   N868    1.365   .     A
C818   H823    1.079   .     S
C819   N867    1.365   .     A
C819   H834    1.080   .     S
C819   C232    1.411   1_565 S
C820   H845    1.080   .     S
C820   N868    1.365   .     A
C821   H856    1.080   .     S
C821   N867    1.365   .     A
C821   C230    1.410   1_565 S
C822   N869    1.434   .     S
H831   C222    1.111   1_565 S
H832   C222    1.110   1_565 S
H853   N869    1.046   .     S
H854   N869    1.046   .     S
H855   N870    1.045   .     S
H857   N870    1.045   .     S
H858   N871    1.044   .     S
H859   N871    1.045   .     S
H860   N872    1.045   .     S
H861   N872    1.045   .     S
N867   Zn881   2.000   .     S
N868   Zn882   2.000   .     S
O873   Zn881   1.992   .     S
O874   Zn882   1.992   .     S
O875   Zn881   1.991   .     S
O876   Zn882   1.991   .     S
O877   Zn881   2.024   .     S
O878   Zn882   2.024   .     S
O879   Zn881   2.008   .     S
O880   Zn882   2.008   .     S
C883   C901    1.414   .     S
C883   O974    1.276   .     A
C883   O971    1.276   .     A
C884   C900    1.401   .     A
C884   N968    1.438   .     S
C884   C984    1.388   .     S
C885   C900    1.406   .     A
C885   N969    1.438   .     S
C885   C1018   1.381   .     S
C886   C901    1.400   .     A
C886   N970    1.435   .     S
C886   C1080   1.388   1_455 S
C887   C898    1.389   .     A
C887   C891    1.385   .     A
C887   H960    1.085   .     S
C888   C899    1.387   .     A
C888   C892    1.386   .     A
C888   H961    1.085   .     S
C889   C893    1.388   .     A
C889   C899    1.391   .     A
C889   H962    1.084   .     S
C890   C895    1.388   .     A
C890   C898    1.393   .     A
C890   H963    1.084   .     S
C891   C896    1.428   .     A
C891   C902    1.523   .     S
C892   C897    1.431   .     A
C892   C906    1.523   .     S
C893   C897    1.430   .     A
C893   C909    1.527   .     S
C894   O973    1.276   .     A
C894   O972    1.274   .     A
C894   C900    1.409   .     S
C895   C912    1.526   .     S
C895   C896    1.427   .     A
C896   C905    1.462   .     S
C897   C915    1.465   .     S
C899   C16     1.451   1_556 S
C901   C920    1.399   .     A
C902   H927    1.114   .     S
C902   H926    1.109   .     S
C902   C903    1.532   .     S
C903   H925    1.106   .     S
C903   C904    1.527   .     S
C903   H924    1.112   .     S
C904   H964    1.110   .     S
C904   H1216   1.111   .     S
C904   H1217   1.110   .     S
C905   O978    1.294   .     A
C905   O975    1.285   .     A
C906   H934    1.109   .     S
C906   C907    1.532   .     S
C906   H935    1.114   .     S
C907   H933    1.105   .     S
C907   C908    1.526   .     S
C907   H931    1.112   .     S
C908   H928    1.110   .     S
C908   H1517   1.111   1_545 S
C908   H1518   1.110   1_545 S
C909   H942    1.113   .     S
C909   H941    1.106   .     S
C909   C910    1.536   .     S
C910   H939    1.112   .     S
C910   C911    1.526   .     S
C910   H940    1.107   .     S
C911   H936    1.109   .     S
C911   H937    1.111   .     S
C911   H938    1.111   .     S
C912   C913    1.536   .     S
C912   H949    1.107   .     S
C912   H950    1.113   .     S
C913   H948    1.108   .     S
C913   C914    1.526   .     S
C913   H947    1.112   .     S
C914   H946    1.111   .     S
C914   H945    1.111   .     S
C914   H944    1.109   .     S
C915   O976    1.286   .     A
C915   O977    1.294   .     A
C916   N966    1.365   .     A
C916   H921    1.079   .     S
C916   C1507   1.410   1_545 S
C917   N965    1.365   .     A
C917   H932    1.080   .     S
C917   C1212   1.411   .     S
C918   H943    1.080   .     S
C918   N966    1.365   .     A
C918   C1505   1.411   1_545 S
C919   H954    1.080   .     S
C919   N965    1.365   .     A
C919   C1210   1.410   .     S
C920   N967    1.434   .     S
C920   C1081   1.381   1_455 S
H922   C1492   1.111   1_545 S
H923   C1492   1.110   1_545 S
H929   C1202   1.111   .     S
H930   C1202   1.110   .     S
H951   N967    1.046   .     S
H952   N967    1.046   .     S
H953   N968    1.045   .     S
H955   N968    1.045   .     S
H956   N969    1.044   .     S
H957   N969    1.045   .     S
H958   N970    1.045   .     S
H959   N970    1.045   .     S
N965   Zn979   2.000   .     S
N966   Zn980   2.000   .     S
O971   Zn979   1.992   .     S
O972   Zn980   1.992   .     S
O973   Zn979   1.991   .     S
O974   Zn980   1.991   .     S
O975   Zn979   2.024   .     S
O976   Zn980   2.024   .     S
O977   Zn979   2.008   .     S
O978   Zn980   2.008   .     S
C981   C999    1.414   .     S
C981   O1072   1.276   .     A
C981   O1069   1.276   .     A
C982   C998    1.401   .     A
C982   N1066   1.438   .     S
C982   C1082   1.388   .     S
C983   C998    1.406   .     A
C983   N1067   1.438   .     S
C983   C1116   1.381   .     S
C984   C999    1.400   .     A
C984   N1068   1.435   .     S
C985   C996    1.389   .     A
C985   C989    1.385   .     A
C985   H1058   1.085   .     S
C986   C997    1.387   .     A
C986   C990    1.386   .     A
C986   H1059   1.085   .     S
C987   C991    1.388   .     A
C987   C997    1.391   .     A
C987   H1060   1.084   .     S
C988   C993    1.388   .     A
C988   C996    1.393   .     A
C988   H1061   1.084   .     S
C989   C994    1.428   .     A
C989   C1000   1.523   .     S
C990   C995    1.431   .     A
C990   C1004   1.523   .     S
C991   C995    1.430   .     A
C991   C1007   1.527   .     S
C992   O1071   1.276   .     A
C992   O1070   1.274   .     A
C992   C998    1.409   .     S
C993   C1010   1.526   .     S
C993   C994    1.427   .     A
C994   C1003   1.462   .     S
C995   C1013   1.465   .     S
C997   C114    1.451   1_556 S
C999   C1018   1.399   .     A
C1000  H1025   1.114   .     S
C1000  H1024   1.109   .     S
C1000  C1001   1.532   .     S
C1001  H1023   1.106   .     S
C1001  C1002   1.527   .     S
C1001  H1022   1.112   .     S
C1002  H1062   1.110   .     S
C1002  H1314   1.111   .     S
C1002  H1315   1.110   .     S
C1003  O1076   1.294   .     A
C1003  O1073   1.285   .     A
C1004  H1032   1.109   .     S
C1004  C1005   1.532   .     S
C1004  H1033   1.114   .     S
C1005  H1031   1.105   .     S
C1005  C1006   1.526   .     S
C1005  H1029   1.112   .     S
C1006  H1026   1.110   .     S
C1006  H1615   1.111   1_545 S
C1006  H1616   1.110   1_545 S
C1007  H1040   1.113   .     S
C1007  H1039   1.106   .     S
C1007  C1008   1.536   .     S
C1008  H1037   1.112   .     S
C1008  C1009   1.526   .     S
C1008  H1038   1.107   .     S
C1009  H1034   1.109   .     S
C1009  H1035   1.111   .     S
C1009  H1036   1.111   .     S
C1010  C1011   1.536   .     S
C1010  H1047   1.107   .     S
C1010  H1048   1.113   .     S
C1011  H1046   1.108   .     S
C1011  C1012   1.526   .     S
C1011  H1045   1.112   .     S
C1012  H1044   1.111   .     S
C1012  H1043   1.111   .     S
C1012  H1042   1.109   .     S
C1013  O1074   1.286   .     A
C1013  O1075   1.294   .     A
C1014  N1064   1.365   .     A
C1014  H1019   1.079   .     S
C1014  C1605   1.410   1_545 S
C1015  N1063   1.365   .     A
C1015  H1030   1.080   .     S
C1015  C1310   1.411   .     S
C1016  H1041   1.080   .     S
C1016  N1064   1.365   .     A
C1016  C1603   1.411   1_545 S
C1017  H1052   1.080   .     S
C1017  N1063   1.365   .     A
C1017  C1308   1.410   .     S
C1018  N1065   1.434   .     S
H1020  C1590   1.111   1_545 S
H1021  C1590   1.110   1_545 S
H1027  C1300   1.111   .     S
H1028  C1300   1.110   .     S
H1049  N1065   1.046   .     S
H1050  N1065   1.046   .     S
H1051  N1066   1.045   .     S
H1053  N1066   1.045   .     S
H1054  N1067   1.044   .     S
H1055  N1067   1.045   .     S
H1056  N1068   1.045   .     S
H1057  N1068   1.045   .     S
N1063  Zn1077  2.000   .     S
N1064  Zn1078  2.000   .     S
O1069  Zn1077  1.992   .     S
O1070  Zn1078  1.992   .     S
O1071  Zn1077  1.991   .     S
O1072  Zn1078  1.991   .     S
O1073  Zn1077  2.024   .     S
O1074  Zn1078  2.024   .     S
O1075  Zn1077  2.008   .     S
O1076  Zn1078  2.008   .     S
C1079  C1097   1.414   .     S
C1079  O1170   1.276   .     A
C1079  O1167   1.276   .     A
C1080  C1096   1.401   .     A
C1080  N1164   1.438   .     S
C1080  C886    1.388   1_655 S
C1081  C1096   1.406   .     A
C1081  N1165   1.438   .     S
C1081  C920    1.381   1_655 S
C1082  C1097   1.400   .     A
C1082  N1166   1.435   .     S
C1083  C1094   1.389   .     A
C1083  C1087   1.385   .     A
C1083  H1156   1.085   .     S
C1084  C1095   1.387   .     A
C1084  C1088   1.386   .     A
C1084  H1157   1.085   .     S
C1085  C1089   1.388   .     A
C1085  C1095   1.391   .     A
C1085  H1158   1.084   .     S
C1086  C1091   1.388   .     A
C1086  C1094   1.393   .     A
C1086  H1159   1.084   .     S
C1087  C1092   1.428   .     A
C1087  C1098   1.523   .     S
C1088  C1093   1.431   .     A
C1088  C1102   1.523   .     S
C1089  C1093   1.430   .     A
C1089  C1105   1.527   .     S
C1090  O1169   1.276   .     A
C1090  O1168   1.274   .     A
C1090  C1096   1.409   .     S
C1091  C1108   1.526   .     S
C1091  C1092   1.427   .     A
C1092  C1101   1.462   .     S
C1093  C1111   1.465   .     S
C1095  C212    1.451   1_556 S
C1097  C1116   1.399   .     A
C1098  H1123   1.114   .     S
C1098  H1122   1.109   .     S
C1098  C1099   1.532   .     S
C1099  H1121   1.106   .     S
C1099  C1100   1.527   .     S
C1099  H1120   1.112   .     S
C1100  H1160   1.110   .     S
C1100  H1412   1.111   .     S
C1100  H1413   1.110   .     S
C1101  O1174   1.294   .     A
C1101  O1171   1.285   .     A
C1102  H1130   1.109   .     S
C1102  C1103   1.532   .     S
C1102  H1131   1.114   .     S
C1103  H1129   1.105   .     S
C1103  C1104   1.526   .     S
C1103  H1127   1.112   .     S
C1104  H1124   1.110   .     S
C1104  H1713   1.111   1_545 S
C1104  H1714   1.110   1_545 S
C1105  H1138   1.113   .     S
C1105  H1137   1.106   .     S
C1105  C1106   1.536   .     S
C1106  H1135   1.112   .     S
C1106  C1107   1.526   .     S
C1106  H1136   1.107   .     S
C1107  H1132   1.109   .     S
C1107  H1133   1.111   .     S
C1107  H1134   1.111   .     S
C1108  C1109   1.536   .     S
C1108  H1145   1.107   .     S
C1108  H1146   1.113   .     S
C1109  H1144   1.108   .     S
C1109  C1110   1.526   .     S
C1109  H1143   1.112   .     S
C1110  H1142   1.111   .     S
C1110  H1141   1.111   .     S
C1110  H1140   1.109   .     S
C1111  O1172   1.286   .     A
C1111  O1173   1.294   .     A
C1112  N1162   1.365   .     A
C1112  H1117   1.079   .     S
C1112  C1703   1.410   1_545 S
C1113  N1161   1.365   .     A
C1113  H1128   1.080   .     S
C1113  C1408   1.411   .     S
C1114  H1139   1.080   .     S
C1114  N1162   1.365   .     A
C1114  C1701   1.411   1_545 S
C1115  H1150   1.080   .     S
C1115  N1161   1.365   .     A
C1115  C1406   1.410   .     S
C1116  N1163   1.434   .     S
H1118  C1688   1.111   1_545 S
H1119  C1688   1.110   1_545 S
H1125  C1398   1.111   .     S
H1126  C1398   1.110   .     S
H1147  N1163   1.046   .     S
H1148  N1163   1.046   .     S
H1149  N1164   1.045   .     S
H1151  N1164   1.045   .     S
H1152  N1165   1.044   .     S
H1153  N1165   1.045   .     S
H1154  N1166   1.045   .     S
H1155  N1166   1.045   .     S
N1161  Zn1175  2.000   .     S
N1162  Zn1176  2.000   .     S
O1167  Zn1175  1.992   .     S
O1168  Zn1176  1.992   .     S
O1169  Zn1175  1.991   .     S
O1170  Zn1176  1.991   .     S
O1171  Zn1175  2.024   .     S
O1172  Zn1176  2.024   .     S
O1173  Zn1175  2.008   .     S
O1174  Zn1176  2.008   .     S
C1177  C1195   1.414   .     S
C1177  O1268   1.276   .     A
C1177  O1265   1.276   .     A
C1178  C1194   1.401   .     A
C1178  N1262   1.438   .     S
C1178  C1278   1.388   .     S
C1179  C1194   1.406   .     A
C1179  N1263   1.438   .     S
C1179  C1312   1.381   .     S
C1180  C1195   1.400   .     A
C1180  N1264   1.435   .     S
C1180  C1374   1.388   1_455 S
C1181  C1192   1.389   .     A
C1181  C1185   1.385   .     A
C1181  H1254   1.085   .     S
C1182  C1193   1.387   .     A
C1182  C1186   1.386   .     A
C1182  H1255   1.085   .     S
C1183  C1187   1.388   .     A
C1183  C1193   1.391   .     A
C1183  H1256   1.084   .     S
C1184  C1189   1.388   .     A
C1184  C1192   1.393   .     A
C1184  H1257   1.084   .     S
C1185  C1190   1.428   .     A
C1185  C1196   1.523   .     S
C1186  C1191   1.431   .     A
C1186  C1200   1.523   .     S
C1187  C1191   1.430   .     A
C1187  C1203   1.527   .     S
C1188  O1267   1.276   .     A
C1188  O1266   1.274   .     A
C1188  C1194   1.409   .     S
C1189  C1206   1.526   .     S
C1189  C1190   1.427   .     A
C1190  C1199   1.462   .     S
C1191  C1209   1.465   .     S
C1193  C310    1.451   1_556 S
C1195  C1214   1.399   .     A
C1196  H1221   1.114   .     S
C1196  H1220   1.109   .     S
C1196  C1197   1.532   .     S
C1197  H1219   1.106   .     S
C1197  C1198   1.527   .     S
C1197  H1218   1.112   .     S
C1198  H1258   1.110   .     S
C1198  H1510   1.111   .     S
C1198  H1511   1.110   .     S
C1199  O1272   1.294   .     A
C1199  O1269   1.285   .     A
C1200  H1228   1.109   .     S
C1200  C1201   1.532   .     S
C1200  H1229   1.114   .     S
C1201  H1227   1.105   .     S
C1201  C1202   1.526   .     S
C1201  H1225   1.112   .     S
C1202  H1222   1.110   .     S
C1203  H1236   1.113   .     S
C1203  H1235   1.106   .     S
C1203  C1204   1.536   .     S
C1204  H1233   1.112   .     S
C1204  C1205   1.526   .     S
C1204  H1234   1.107   .     S
C1205  H1230   1.109   .     S
C1205  H1231   1.111   .     S
C1205  H1232   1.111   .     S
C1206  C1207   1.536   .     S
C1206  H1243   1.107   .     S
C1206  H1244   1.113   .     S
C1207  H1242   1.108   .     S
C1207  C1208   1.526   .     S
C1207  H1241   1.112   .     S
C1208  H1240   1.111   .     S
C1208  H1239   1.111   .     S
C1208  H1238   1.109   .     S
C1209  O1270   1.286   .     A
C1209  O1271   1.294   .     A
C1210  N1260   1.365   .     A
C1210  H1215   1.079   .     S
C1211  N1259   1.365   .     A
C1211  H1226   1.080   .     S
C1211  C1506   1.411   .     S
C1212  H1237   1.080   .     S
C1212  N1260   1.365   .     A
C1213  H1248   1.080   .     S
C1213  N1259   1.365   .     A
C1213  C1504   1.410   .     S
C1214  N1261   1.434   .     S
C1214  C1375   1.381   1_455 S
H1223  C1496   1.111   .     S
H1224  C1496   1.110   .     S
H1245  N1261   1.046   .     S
H1246  N1261   1.046   .     S
H1247  N1262   1.045   .     S
H1249  N1262   1.045   .     S
H1250  N1263   1.044   .     S
H1251  N1263   1.045   .     S
H1252  N1264   1.045   .     S
H1253  N1264   1.045   .     S
N1259  Zn1273  2.000   .     S
N1260  Zn1274  2.000   .     S
O1265  Zn1273  1.992   .     S
O1266  Zn1274  1.992   .     S
O1267  Zn1273  1.991   .     S
O1268  Zn1274  1.991   .     S
O1269  Zn1273  2.024   .     S
O1270  Zn1274  2.024   .     S
O1271  Zn1273  2.008   .     S
O1272  Zn1274  2.008   .     S
C1275  C1293   1.414   .     S
C1275  O1366   1.276   .     A
C1275  O1363   1.276   .     A
C1276  C1292   1.401   .     A
C1276  N1360   1.438   .     S
C1276  C1376   1.388   .     S
C1277  C1292   1.406   .     A
C1277  N1361   1.438   .     S
C1277  C1410   1.381   .     S
C1278  C1293   1.400   .     A
C1278  N1362   1.435   .     S
C1279  C1290   1.389   .     A
C1279  C1283   1.385   .     A
C1279  H1352   1.085   .     S
C1280  C1291   1.387   .     A
C1280  C1284   1.386   .     A
C1280  H1353   1.085   .     S
C1281  C1285   1.388   .     A
C1281  C1291   1.391   .     A
C1281  H1354   1.084   .     S
C1282  C1287   1.388   .     A
C1282  C1290   1.393   .     A
C1282  H1355   1.084   .     S
C1283  C1288   1.428   .     A
C1283  C1294   1.523   .     S
C1284  C1289   1.431   .     A
C1284  C1298   1.523   .     S
C1285  C1289   1.430   .     A
C1285  C1301   1.527   .     S
C1286  O1365   1.276   .     A
C1286  O1364   1.274   .     A
C1286  C1292   1.409   .     S
C1287  C1304   1.526   .     S
C1287  C1288   1.427   .     A
C1288  C1297   1.462   .     S
C1289  C1307   1.465   .     S
C1291  C408    1.451   1_556 S
C1293  C1312   1.399   .     A
C1294  H1319   1.114   .     S
C1294  H1318   1.109   .     S
C1294  C1295   1.532   .     S
C1295  H1317   1.106   .     S
C1295  C1296   1.527   .     S
C1295  H1316   1.112   .     S
C1296  H1356   1.110   .     S
C1296  H1608   1.111   .     S
C1296  H1609   1.110   .     S
C1297  O1370   1.294   .     A
C1297  O1367   1.285   .     A
C1298  H1326   1.109   .     S
C1298  C1299   1.532   .     S
C1298  H1327   1.114   .     S
C1299  H1325   1.105   .     S
C1299  C1300   1.526   .     S
C1299  H1323   1.112   .     S
C1300  H1320   1.110   .     S
C1301  H1334   1.113   .     S
C1301  H1333   1.106   .     S
C1301  C1302   1.536   .     S
C1302  H1331   1.112   .     S
C1302  C1303   1.526   .     S
C1302  H1332   1.107   .     S
C1303  H1328   1.109   .     S
C1303  H1329   1.111   .     S
C1303  H1330   1.111   .     S
C1304  C1305   1.536   .     S
C1304  H1341   1.107   .     S
C1304  H1342   1.113   .     S
C1305  H1340   1.108   .     S
C1305  C1306   1.526   .     S
C1305  H1339   1.112   .     S
C1306  H1338   1.111   .     S
C1306  H1337   1.111   .     S
C1306  H1336   1.109   .     S
C1307  O1368   1.286   .     A
C1307  O1369   1.294   .     A
C1308  N1358   1.365   .     A
C1308  H1313   1.079   .     S
C1309  N1357   1.365   .     A
C1309  H1324   1.080   .     S
C1309  C1604   1.411   .     S
C1310  H1335   1.080   .     S
C1310  N1358   1.365   .     A
C1311  H1346   1.080   .     S
C1311  N1357   1.365   .     A
C1311  C1602   1.410   .     S
C1312  N1359   1.434   .     S
H1321  C1594   1.111   .     S
H1322  C1594   1.110   .     S
H1343  N1359   1.046   .     S
H1344  N1359   1.046   .     S
H1345  N1360   1.045   .     S
H1347  N1360   1.045   .     S
H1348  N1361   1.044   .     S
H1349  N1361   1.045   .     S
H1350  N1362   1.045   .     S
H1351  N1362   1.045   .     S
N1357  Zn1371  2.000   .     S
N1358  Zn1372  2.000   .     S
O1363  Zn1371  1.992   .     S
O1364  Zn1372  1.992   .     S
O1365  Zn1371  1.991   .     S
O1366  Zn1372  1.991   .     S
O1367  Zn1371  2.024   .     S
O1368  Zn1372  2.024   .     S
O1369  Zn1371  2.008   .     S
O1370  Zn1372  2.008   .     S
C1373  C1391   1.414   .     S
C1373  O1464   1.276   .     A
C1373  O1461   1.276   .     A
C1374  C1390   1.401   .     A
C1374  N1458   1.438   .     S
C1374  C1180   1.388   1_655 S
C1375  C1390   1.406   .     A
C1375  N1459   1.438   .     S
C1375  C1214   1.381   1_655 S
C1376  C1391   1.400   .     A
C1376  N1460   1.435   .     S
C1377  C1388   1.389   .     A
C1377  C1381   1.385   .     A
C1377  H1450   1.085   .     S
C1378  C1389   1.387   .     A
C1378  C1382   1.386   .     A
C1378  H1451   1.085   .     S
C1379  C1383   1.388   .     A
C1379  C1389   1.391   .     A
C1379  H1452   1.084   .     S
C1380  C1385   1.388   .     A
C1380  C1388   1.393   .     A
C1380  H1453   1.084   .     S
C1381  C1386   1.428   .     A
C1381  C1392   1.523   .     S
C1382  C1387   1.431   .     A
C1382  C1396   1.523   .     S
C1383  C1387   1.430   .     A
C1383  C1399   1.527   .     S
C1384  O1463   1.276   .     A
C1384  O1462   1.274   .     A
C1384  C1390   1.409   .     S
C1385  C1402   1.526   .     S
C1385  C1386   1.427   .     A
C1386  C1395   1.462   .     S
C1387  C1405   1.465   .     S
C1389  C506    1.451   1_556 S
C1391  C1410   1.399   .     A
C1392  H1417   1.114   .     S
C1392  H1416   1.109   .     S
C1392  C1393   1.532   .     S
C1393  H1415   1.106   .     S
C1393  C1394   1.527   .     S
C1393  H1414   1.112   .     S
C1394  H1454   1.110   .     S
C1394  H1706   1.111   .     S
C1394  H1707   1.110   .     S
C1395  O1468   1.294   .     A
C1395  O1465   1.285   .     A
C1396  H1424   1.109   .     S
C1396  C1397   1.532   .     S
C1396  H1425   1.114   .     S
C1397  H1423   1.105   .     S
C1397  C1398   1.526   .     S
C1397  H1421   1.112   .     S
C1398  H1418   1.110   .     S
C1399  H1432   1.113   .     S
C1399  H1431   1.106   .     S
C1399  C1400   1.536   .     S
C1400  H1429   1.112   .     S
C1400  C1401   1.526   .     S
C1400  H1430   1.107   .     S
C1401  H1426   1.109   .     S
C1401  H1427   1.111   .     S
C1401  H1428   1.111   .     S
C1402  C1403   1.536   .     S
C1402  H1439   1.107   .     S
C1402  H1440   1.113   .     S
C1403  H1438   1.108   .     S
C1403  C1404   1.526   .     S
C1403  H1437   1.112   .     S
C1404  H1436   1.111   .     S
C1404  H1435   1.111   .     S
C1404  H1434   1.109   .     S
C1405  O1466   1.286   .     A
C1405  O1467   1.294   .     A
C1406  N1456   1.365   .     A
C1406  H1411   1.079   .     S
C1407  N1455   1.365   .     A
C1407  H1422   1.080   .     S
C1407  C1702   1.411   .     S
C1408  H1433   1.080   .     S
C1408  N1456   1.365   .     A
C1409  H1444   1.080   .     S
C1409  N1455   1.365   .     A
C1409  C1700   1.410   .     S
C1410  N1457   1.434   .     S
H1419  C1692   1.111   .     S
H1420  C1692   1.110   .     S
H1441  N1457   1.046   .     S
H1442  N1457   1.046   .     S
H1443  N1458   1.045   .     S
H1445  N1458   1.045   .     S
H1446  N1459   1.044   .     S
H1447  N1459   1.045   .     S
H1448  N1460   1.045   .     S
H1449  N1460   1.045   .     S
N1455  Zn1469  2.000   .     S
N1456  Zn1470  2.000   .     S
O1461  Zn1469  1.992   .     S
O1462  Zn1470  1.992   .     S
O1463  Zn1469  1.991   .     S
O1464  Zn1470  1.991   .     S
O1465  Zn1469  2.024   .     S
O1466  Zn1470  2.024   .     S
O1467  Zn1469  2.008   .     S
O1468  Zn1470  2.008   .     S
C1471  C1489   1.414   .     S
C1471  O1562   1.276   .     A
C1471  O1559   1.276   .     A
C1472  C1488   1.401   .     A
C1472  N1556   1.438   .     S
C1472  C1572   1.388   .     S
C1473  C1488   1.406   .     A
C1473  N1557   1.438   .     S
C1473  C1606   1.381   .     S
C1474  C1489   1.400   .     A
C1474  N1558   1.435   .     S
C1474  C1668   1.388   1_455 S
C1475  C1486   1.389   .     A
C1475  C1479   1.385   .     A
C1475  H1548   1.085   .     S
C1476  C1487   1.387   .     A
C1476  C1480   1.386   .     A
C1476  H1549   1.085   .     S
C1477  C1481   1.388   .     A
C1477  C1487   1.391   .     A
C1477  H1550   1.084   .     S
C1478  C1483   1.388   .     A
C1478  C1486   1.393   .     A
C1478  H1551   1.084   .     S
C1479  C1484   1.428   .     A
C1479  C1490   1.523   .     S
C1480  C1485   1.431   .     A
C1480  C1494   1.523   .     S
C1481  C1485   1.430   .     A
C1481  C1497   1.527   .     S
C1482  O1561   1.276   .     A
C1482  O1560   1.274   .     A
C1482  C1488   1.409   .     S
C1483  C1500   1.526   .     S
C1483  C1484   1.427   .     A
C1484  C1493   1.462   .     S
C1485  C1503   1.465   .     S
C1487  C604    1.451   1_556 S
C1489  C1508   1.399   .     A
C1490  H1515   1.114   .     S
C1490  H1514   1.109   .     S
C1490  C1491   1.532   .     S
C1491  H1513   1.106   .     S
C1491  C1492   1.527   .     S
C1491  H1512   1.112   .     S
C1492  H1552   1.110   .     S
C1492  H922    1.111   1_565 S
C1492  H923    1.110   1_565 S
C1493  O1566   1.294   .     A
C1493  O1563   1.285   .     A
C1494  H1522   1.109   .     S
C1494  C1495   1.532   .     S
C1494  H1523   1.114   .     S
C1495  H1521   1.105   .     S
C1495  C1496   1.526   .     S
C1495  H1519   1.112   .     S
C1496  H1516   1.110   .     S
C1497  H1530   1.113   .     S
C1497  H1529   1.106   .     S
C1497  C1498   1.536   .     S
C1498  H1527   1.112   .     S
C1498  C1499   1.526   .     S
C1498  H1528   1.107   .     S
C1499  H1524   1.109   .     S
C1499  H1525   1.111   .     S
C1499  H1526   1.111   .     S
C1500  C1501   1.536   .     S
C1500  H1537   1.107   .     S
C1500  H1538   1.113   .     S
C1501  H1536   1.108   .     S
C1501  C1502   1.526   .     S
C1501  H1535   1.112   .     S
C1502  H1534   1.111   .     S
C1502  H1533   1.111   .     S
C1502  H1532   1.109   .     S
C1503  O1564   1.286   .     A
C1503  O1565   1.294   .     A
C1504  N1554   1.365   .     A
C1504  H1509   1.079   .     S
C1505  N1553   1.365   .     A
C1505  H1520   1.080   .     S
C1505  C918    1.411   1_565 S
C1506  H1531   1.080   .     S
C1506  N1554   1.365   .     A
C1507  H1542   1.080   .     S
C1507  N1553   1.365   .     A
C1507  C916    1.410   1_565 S
C1508  N1555   1.434   .     S
C1508  C1669   1.381   1_455 S
H1517  C908    1.111   1_565 S
H1518  C908    1.110   1_565 S
H1539  N1555   1.046   .     S
H1540  N1555   1.046   .     S
H1541  N1556   1.045   .     S
H1543  N1556   1.045   .     S
H1544  N1557   1.044   .     S
H1545  N1557   1.045   .     S
H1546  N1558   1.045   .     S
H1547  N1558   1.045   .     S
N1553  Zn1567  2.000   .     S
N1554  Zn1568  2.000   .     S
O1559  Zn1567  1.992   .     S
O1560  Zn1568  1.992   .     S
O1561  Zn1567  1.991   .     S
O1562  Zn1568  1.991   .     S
O1563  Zn1567  2.024   .     S
O1564  Zn1568  2.024   .     S
O1565  Zn1567  2.008   .     S
O1566  Zn1568  2.008   .     S
C1569  C1587   1.414   .     S
C1569  O1660   1.276   .     A
C1569  O1657   1.276   .     A
C1570  C1586   1.401   .     A
C1570  N1654   1.438   .     S
C1570  C1670   1.388   .     S
C1571  C1586   1.406   .     A
C1571  N1655   1.438   .     S
C1571  C1704   1.381   .     S
C1572  C1587   1.400   .     A
C1572  N1656   1.435   .     S
C1573  C1584   1.389   .     A
C1573  C1577   1.385   .     A
C1573  H1646   1.085   .     S
C1574  C1585   1.387   .     A
C1574  C1578   1.386   .     A
C1574  H1647   1.085   .     S
C1575  C1579   1.388   .     A
C1575  C1585   1.391   .     A
C1575  H1648   1.084   .     S
C1576  C1581   1.388   .     A
C1576  C1584   1.393   .     A
C1576  H1649   1.084   .     S
C1577  C1582   1.428   .     A
C1577  C1588   1.523   .     S
C1578  C1583   1.431   .     A
C1578  C1592   1.523   .     S
C1579  C1583   1.430   .     A
C1579  C1595   1.527   .     S
C1580  O1659   1.276   .     A
C1580  O1658   1.274   .     A
C1580  C1586   1.409   .     S
C1581  C1598   1.526   .     S
C1581  C1582   1.427   .     A
C1582  C1591   1.462   .     S
C1583  C1601   1.465   .     S
C1585  C702    1.451   1_556 S
C1587  C1606   1.399   .     A
C1588  H1613   1.114   .     S
C1588  H1612   1.109   .     S
C1588  C1589   1.532   .     S
C1589  H1611   1.106   .     S
C1589  C1590   1.527   .     S
C1589  H1610   1.112   .     S
C1590  H1650   1.110   .     S
C1590  H1020   1.111   1_565 S
C1590  H1021   1.110   1_565 S
C1591  O1664   1.294   .     A
C1591  O1661   1.285   .     A
C1592  H1620   1.109   .     S
C1592  C1593   1.532   .     S
C1592  H1621   1.114   .     S
C1593  H1619   1.105   .     S
C1593  C1594   1.526   .     S
C1593  H1617   1.112   .     S
C1594  H1614   1.110   .     S
C1595  H1628   1.113   .     S
C1595  H1627   1.106   .     S
C1595  C1596   1.536   .     S
C1596  H1625   1.112   .     S
C1596  C1597   1.526   .     S
C1596  H1626   1.107   .     S
C1597  H1622   1.109   .     S
C1597  H1623   1.111   .     S
C1597  H1624   1.111   .     S
C1598  C1599   1.536   .     S
C1598  H1635   1.107   .     S
C1598  H1636   1.113   .     S
C1599  H1634   1.108   .     S
C1599  C1600   1.526   .     S
C1599  H1633   1.112   .     S
C1600  H1632   1.111   .     S
C1600  H1631   1.111   .     S
C1600  H1630   1.109   .     S
C1601  O1662   1.286   .     A
C1601  O1663   1.294   .     A
C1602  N1652   1.365   .     A
C1602  H1607   1.079   .     S
C1603  N1651   1.365   .     A
C1603  H1618   1.080   .     S
C1603  C1016   1.411   1_565 S
C1604  H1629   1.080   .     S
C1604  N1652   1.365   .     A
C1605  H1640   1.080   .     S
C1605  N1651   1.365   .     A
C1605  C1014   1.410   1_565 S
C1606  N1653   1.434   .     S
H1615  C1006   1.111   1_565 S
H1616  C1006   1.110   1_565 S
H1637  N1653   1.046   .     S
H1638  N1653   1.046   .     S
H1639  N1654   1.045   .     S
H1641  N1654   1.045   .     S
H1642  N1655   1.044   .     S
H1643  N1655   1.045   .     S
H1644  N1656   1.045   .     S
H1645  N1656   1.045   .     S
N1651  Zn1665  2.000   .     S
N1652  Zn1666  2.000   .     S
O1657  Zn1665  1.992   .     S
O1658  Zn1666  1.992   .     S
O1659  Zn1665  1.991   .     S
O1660  Zn1666  1.991   .     S
O1661  Zn1665  2.024   .     S
O1662  Zn1666  2.024   .     S
O1663  Zn1665  2.008   .     S
O1664  Zn1666  2.008   .     S
C1667  C1685   1.414   .     S
C1667  O1758   1.276   .     A
C1667  O1755   1.276   .     A
C1668  C1684   1.401   .     A
C1668  N1752   1.438   .     S
C1668  C1474   1.388   1_655 S
C1669  C1684   1.406   .     A
C1669  N1753   1.438   .     S
C1669  C1508   1.381   1_655 S
C1670  C1685   1.400   .     A
C1670  N1754   1.435   .     S
C1671  C1682   1.389   .     A
C1671  C1675   1.385   .     A
C1671  H1744   1.085   .     S
C1672  C1683   1.387   .     A
C1672  C1676   1.386   .     A
C1672  H1745   1.085   .     S
C1673  C1677   1.388   .     A
C1673  C1683   1.391   .     A
C1673  H1746   1.084   .     S
C1674  C1679   1.388   .     A
C1674  C1682   1.393   .     A
C1674  H1747   1.084   .     S
C1675  C1680   1.428   .     A
C1675  C1686   1.523   .     S
C1676  C1681   1.431   .     A
C1676  C1690   1.523   .     S
C1677  C1681   1.430   .     A
C1677  C1693   1.527   .     S
C1678  O1757   1.276   .     A
C1678  O1756   1.274   .     A
C1678  C1684   1.409   .     S
C1679  C1696   1.526   .     S
C1679  C1680   1.427   .     A
C1680  C1689   1.462   .     S
C1681  C1699   1.465   .     S
C1683  C800    1.451   1_556 S
C1685  C1704   1.399   .     A
C1686  H1711   1.114   .     S
C1686  H1710   1.109   .     S
C1686  C1687   1.532   .     S
C1687  H1709   1.106   .     S
C1687  C1688   1.527   .     S
C1687  H1708   1.112   .     S
C1688  H1748   1.110   .     S
C1688  H1118   1.111   1_565 S
C1688  H1119   1.110   1_565 S
C1689  O1762   1.294   .     A
C1689  O1759   1.285   .     A
C1690  H1718   1.109   .     S
C1690  C1691   1.532   .     S
C1690  H1719   1.114   .     S
C1691  H1717   1.105   .     S
C1691  C1692   1.526   .     S
C1691  H1715   1.112   .     S
C1692  H1712   1.110   .     S
C1693  H1726   1.113   .     S
C1693  H1725   1.106   .     S
C1693  C1694   1.536   .     S
C1694  H1723   1.112   .     S
C1694  C1695   1.526   .     S
C1694  H1724   1.107   .     S
C1695  H1720   1.109   .     S
C1695  H1721   1.111   .     S
C1695  H1722   1.111   .     S
C1696  C1697   1.536   .     S
C1696  H1733   1.107   .     S
C1696  H1734   1.113   .     S
C1697  H1732   1.108   .     S
C1697  C1698   1.526   .     S
C1697  H1731   1.112   .     S
C1698  H1730   1.111   .     S
C1698  H1729   1.111   .     S
C1698  H1728   1.109   .     S
C1699  O1760   1.286   .     A
C1699  O1761   1.294   .     A
C1700  N1750   1.365   .     A
C1700  H1705   1.079   .     S
C1701  N1749   1.365   .     A
C1701  H1716   1.080   .     S
C1701  C1114   1.411   1_565 S
C1702  H1727   1.080   .     S
C1702  N1750   1.365   .     A
C1703  H1738   1.080   .     S
C1703  N1749   1.365   .     A
C1703  C1112   1.410   1_565 S
C1704  N1751   1.434   .     S
H1713  C1104   1.111   1_565 S
H1714  C1104   1.110   1_565 S
H1735  N1751   1.046   .     S
H1736  N1751   1.046   .     S
H1737  N1752   1.045   .     S
H1739  N1752   1.045   .     S
H1740  N1753   1.044   .     S
H1741  N1753   1.045   .     S
H1742  N1754   1.045   .     S
H1743  N1754   1.045   .     S
N1749  Zn1763  2.000   .     S
N1750  Zn1764  2.000   .     S
O1755  Zn1763  1.992   .     S
O1756  Zn1764  1.992   .     S
O1757  Zn1763  1.991   .     S
O1758  Zn1764  1.991   .     S
O1759  Zn1763  2.024   .     S
O1760  Zn1764  2.024   .     S
O1761  Zn1763  2.008   .     S
O1762  Zn1764  2.008   .     S
