data_str_m3_o1_o10_pcu_sym.223
_audit_creation_date              2020-01-03
_audit_creation_method            'Materials Studio'
_symmetry_space_group_name_H-M    'P1'
_symmetry_Int_Tables_number       1
_symmetry_cell_setting            triclinic
loop_
_symmetry_equiv_pos_as_xyz
  x,y,z
_cell_length_a                    25.7789
_cell_length_b                    32.1135
_cell_length_c                    29.6505
_cell_angle_alpha                 90.3852
_cell_angle_beta                  98.8083
_cell_angle_gamma                 90.5595
loop_
_atom_site_label
_atom_site_type_symbol
_atom_site_fract_x
_atom_site_fract_y
_atom_site_fract_z
_atom_site_U_iso_or_equiv
_atom_site_adp_type
_atom_site_occupancy
O1     O     0.16666   0.10558   0.20487   0.00000  Uiso   1.00
O2     O     0.16667   0.22775   0.12846   0.00000  Uiso   1.00
O3     O     0.16666   0.10559   0.12843   0.00000  Uiso   1.00
O4     O     0.16667   0.22774   0.20490   0.00000  Uiso   1.00
C5     C     0.16651   0.08667   0.16653   0.00000  Uiso   1.00
C6     C     0.16683   0.24666   0.16680   0.00000  Uiso   1.00
O7     O     0.09058   0.16666   0.19595   0.00000  Uiso   1.00
O8     O     0.24275   0.16667   0.13739   0.00000  Uiso   1.00
O9     O     0.09058   0.16667   0.11950   0.00000  Uiso   1.00
O10    O     0.24275   0.16666   0.21383   0.00000  Uiso   1.00
C11    C     0.06706   0.16662   0.15468   0.00000  Uiso   1.00
C12    C     0.26628   0.16671   0.17865   0.00000  Uiso   1.00
Zn13   Zn    0.16667   0.16666   0.21771   0.00000  Uiso   1.00
Zn14   Zn    0.16667   0.16667   0.11563   0.00000  Uiso   1.00
N15    N     0.16665   0.16666   0.28573   0.00000  Uiso   1.00
N16    N     0.16668   0.16668   0.04760   0.00000  Uiso   1.00
C17    C     0.01196   0.16662   0.14828   0.00000  Uiso   1.00
C18    C     0.32138   0.16672   0.18505   0.00000  Uiso   1.00
H19    H     0.32457   0.16654   0.11343   0.00000  Uiso   1.00
H20    H     0.00877   0.16680   0.21990   0.00000  Uiso   1.00
C21    C     0.17982   0.02119   0.12880   0.00000  Uiso   1.00
C22    C     0.15352   0.31215   0.20453   0.00000  Uiso   1.00
H23    H     0.19050   0.03736   0.09955   0.00000  Uiso   1.00
H24    H     0.14284   0.29597   0.23379   0.00000  Uiso   1.00
C25    C     0.18014   0.31186   0.12902   0.00000  Uiso   1.00
C26    C     0.15320   0.02147   0.20432   0.00000  Uiso   1.00
H27    H     0.19101   0.29547   0.09985   0.00000  Uiso   1.00
H28    H     0.14233   0.03786   0.23349   0.00000  Uiso   1.00
C29    C     0.16695   0.29083   0.16687   0.00000  Uiso   1.00
C30    C     0.16638   0.04250   0.16647   0.00000  Uiso   1.00
C31    C     0.20597   0.18595   0.02959   0.00000  Uiso   1.00
C32    C     0.12736   0.14738   0.30375   0.00000  Uiso   1.00
H33    H     0.23714   0.20164   0.05219   0.00000  Uiso   1.00
H34    H     0.09620   0.13168   0.28115   0.00000  Uiso   1.00
C35    C     0.20608   0.18624   0.31511   0.00000  Uiso   1.00
C36    C     0.12727   0.14708   0.01823   0.00000  Uiso   1.00
N37    N     0.24774   0.20763   0.29802   0.00000  Uiso   1.00
O38    O     0.23849   0.24301   0.27751   0.00000  Uiso   1.00
O39    O     0.29608   0.19783   0.31314   0.00000  Uiso   1.00
N40    N     0.08567   0.12563   0.03535   0.00000  Uiso   1.00
O41    O     0.03732   0.13557   0.02050   0.00000  Uiso   1.00
O42    O     0.09495   0.09012   0.05560   0.00000  Uiso   1.00
O43    O     0.50000   0.10558   0.20487   0.00000  Uiso   1.00
O44    O     0.50000   0.22775   0.12846   0.00000  Uiso   1.00
O45    O     0.50000   0.10559   0.12843   0.00000  Uiso   1.00
O46    O     0.50000   0.22774   0.20490   0.00000  Uiso   1.00
C47    C     0.49984   0.08667   0.16653   0.00000  Uiso   1.00
C48    C     0.50016   0.24666   0.16680   0.00000  Uiso   1.00
O49    O     0.42392   0.16666   0.19595   0.00000  Uiso   1.00
O50    O     0.57608   0.16667   0.13739   0.00000  Uiso   1.00
O51    O     0.42392   0.16667   0.11950   0.00000  Uiso   1.00
O52    O     0.57608   0.16666   0.21383   0.00000  Uiso   1.00
C53    C     0.40039   0.16662   0.15468   0.00000  Uiso   1.00
C54    C     0.59961   0.16671   0.17865   0.00000  Uiso   1.00
Zn55   Zn    0.50000   0.16666   0.21771   0.00000  Uiso   1.00
Zn56   Zn    0.50000   0.16667   0.11563   0.00000  Uiso   1.00
N57    N     0.49999   0.16666   0.28573   0.00000  Uiso   1.00
N58    N     0.50001   0.16668   0.04760   0.00000  Uiso   1.00
C59    C     0.34529   0.16662   0.14828   0.00000  Uiso   1.00
C60    C     0.65471   0.16672   0.18505   0.00000  Uiso   1.00
H61    H     0.65790   0.16654   0.11343   0.00000  Uiso   1.00
H62    H     0.34210   0.16680   0.21990   0.00000  Uiso   1.00
C63    C     0.51315   0.02119   0.12880   0.00000  Uiso   1.00
C64    C     0.48685   0.31215   0.20453   0.00000  Uiso   1.00
H65    H     0.52383   0.03736   0.09955   0.00000  Uiso   1.00
H66    H     0.47617   0.29597   0.23379   0.00000  Uiso   1.00
C67    C     0.51347   0.31186   0.12902   0.00000  Uiso   1.00
C68    C     0.48653   0.02147   0.20432   0.00000  Uiso   1.00
H69    H     0.52434   0.29547   0.09985   0.00000  Uiso   1.00
H70    H     0.47566   0.03786   0.23349   0.00000  Uiso   1.00
C71    C     0.50028   0.29083   0.16687   0.00000  Uiso   1.00
C72    C     0.49972   0.04250   0.16647   0.00000  Uiso   1.00
C73    C     0.53930   0.18595   0.02959   0.00000  Uiso   1.00
C74    C     0.46070   0.14738   0.30375   0.00000  Uiso   1.00
H75    H     0.57047   0.20164   0.05219   0.00000  Uiso   1.00
H76    H     0.42954   0.13168   0.28115   0.00000  Uiso   1.00
C77    C     0.53942   0.18624   0.31511   0.00000  Uiso   1.00
C78    C     0.46060   0.14708   0.01823   0.00000  Uiso   1.00
N79    N     0.58108   0.20763   0.29802   0.00000  Uiso   1.00
O80    O     0.57182   0.24301   0.27751   0.00000  Uiso   1.00
O81    O     0.62941   0.19783   0.31314   0.00000  Uiso   1.00
N82    N     0.41901   0.12563   0.03535   0.00000  Uiso   1.00
O83    O     0.37065   0.13557   0.02050   0.00000  Uiso   1.00
O84    O     0.42828   0.09012   0.05560   0.00000  Uiso   1.00
O85    O     0.83333   0.10558   0.20487   0.00000  Uiso   1.00
O86    O     0.83334   0.22775   0.12846   0.00000  Uiso   1.00
O87    O     0.83333   0.10559   0.12843   0.00000  Uiso   1.00
O88    O     0.83334   0.22774   0.20490   0.00000  Uiso   1.00
C89    C     0.83317   0.08667   0.16653   0.00000  Uiso   1.00
C90    C     0.83349   0.24666   0.16680   0.00000  Uiso   1.00
O91    O     0.75725   0.16666   0.19595   0.00000  Uiso   1.00
O92    O     0.90942   0.16667   0.13739   0.00000  Uiso   1.00
O93    O     0.75725   0.16667   0.11950   0.00000  Uiso   1.00
O94    O     0.90942   0.16666   0.21383   0.00000  Uiso   1.00
C95    C     0.73373   0.16662   0.15468   0.00000  Uiso   1.00
C96    C     0.93294   0.16671   0.17865   0.00000  Uiso   1.00
Zn97   Zn    0.83333   0.16666   0.21771   0.00000  Uiso   1.00
Zn98   Zn    0.83333   0.16667   0.11563   0.00000  Uiso   1.00
N99    N     0.83332   0.16666   0.28573   0.00000  Uiso   1.00
N100   N     0.83335   0.16668   0.04760   0.00000  Uiso   1.00
C101   C     0.67862   0.16662   0.14828   0.00000  Uiso   1.00
C102   C     0.98804   0.16672   0.18505   0.00000  Uiso   1.00
H103   H     0.99123   0.16654   0.11343   0.00000  Uiso   1.00
H104   H     0.67543   0.16680   0.21990   0.00000  Uiso   1.00
C105   C     0.84648   0.02119   0.12880   0.00000  Uiso   1.00
C106   C     0.82019   0.31215   0.20453   0.00000  Uiso   1.00
H107   H     0.85716   0.03736   0.09955   0.00000  Uiso   1.00
H108   H     0.80951   0.29597   0.23379   0.00000  Uiso   1.00
C109   C     0.84681   0.31186   0.12902   0.00000  Uiso   1.00
C110   C     0.81986   0.02147   0.20432   0.00000  Uiso   1.00
H111   H     0.85767   0.29547   0.09985   0.00000  Uiso   1.00
H112   H     0.80900   0.03786   0.23349   0.00000  Uiso   1.00
C113   C     0.83362   0.29083   0.16687   0.00000  Uiso   1.00
C114   C     0.83305   0.04250   0.16647   0.00000  Uiso   1.00
C115   C     0.87264   0.18595   0.02959   0.00000  Uiso   1.00
C116   C     0.79403   0.14738   0.30375   0.00000  Uiso   1.00
H117   H     0.90380   0.20164   0.05219   0.00000  Uiso   1.00
H118   H     0.76287   0.13168   0.28115   0.00000  Uiso   1.00
C119   C     0.87275   0.18624   0.31511   0.00000  Uiso   1.00
C120   C     0.79393   0.14708   0.01823   0.00000  Uiso   1.00
N121   N     0.91441   0.20763   0.29802   0.00000  Uiso   1.00
O122   O     0.90516   0.24301   0.27751   0.00000  Uiso   1.00
O123   O     0.96274   0.19783   0.31314   0.00000  Uiso   1.00
N124   N     0.75234   0.12563   0.03535   0.00000  Uiso   1.00
O125   O     0.70398   0.13557   0.02050   0.00000  Uiso   1.00
O126   O     0.76162   0.09012   0.05560   0.00000  Uiso   1.00
O127   O     0.16666   0.43892   0.20487   0.00000  Uiso   1.00
O128   O     0.16667   0.56108   0.12846   0.00000  Uiso   1.00
O129   O     0.16666   0.43893   0.12843   0.00000  Uiso   1.00
O130   O     0.16667   0.56107   0.20490   0.00000  Uiso   1.00
C131   C     0.16651   0.42001   0.16653   0.00000  Uiso   1.00
C132   C     0.16683   0.57999   0.16680   0.00000  Uiso   1.00
O133   O     0.09058   0.50000   0.19595   0.00000  Uiso   1.00
O134   O     0.24275   0.50000   0.13739   0.00000  Uiso   1.00
O135   O     0.09058   0.50000   0.11950   0.00000  Uiso   1.00
O136   O     0.24275   0.50000   0.21383   0.00000  Uiso   1.00
C137   C     0.06706   0.49996   0.15468   0.00000  Uiso   1.00
C138   C     0.26628   0.50004   0.17865   0.00000  Uiso   1.00
Zn139  Zn    0.16667   0.49999   0.21771   0.00000  Uiso   1.00
Zn140  Zn    0.16667   0.50001   0.11563   0.00000  Uiso   1.00
N141   N     0.16665   0.49999   0.28573   0.00000  Uiso   1.00
N142   N     0.16668   0.50001   0.04760   0.00000  Uiso   1.00
C143   C     0.01196   0.49995   0.14828   0.00000  Uiso   1.00
C144   C     0.32138   0.50005   0.18505   0.00000  Uiso   1.00
H145   H     0.32457   0.49987   0.11343   0.00000  Uiso   1.00
H146   H     0.00877   0.50013   0.21990   0.00000  Uiso   1.00
C147   C     0.17982   0.35452   0.12880   0.00000  Uiso   1.00
C148   C     0.15352   0.64548   0.20453   0.00000  Uiso   1.00
H149   H     0.19050   0.37069   0.09955   0.00000  Uiso   1.00
H150   H     0.14284   0.62931   0.23379   0.00000  Uiso   1.00
C151   C     0.18014   0.64520   0.12902   0.00000  Uiso   1.00
C152   C     0.15320   0.35480   0.20432   0.00000  Uiso   1.00
H153   H     0.19101   0.62881   0.09985   0.00000  Uiso   1.00
H154   H     0.14233   0.37119   0.23349   0.00000  Uiso   1.00
C155   C     0.16695   0.62416   0.16687   0.00000  Uiso   1.00
C156   C     0.16638   0.37584   0.16647   0.00000  Uiso   1.00
C157   C     0.20597   0.51928   0.02959   0.00000  Uiso   1.00
C158   C     0.12736   0.48071   0.30375   0.00000  Uiso   1.00
H159   H     0.23714   0.53497   0.05219   0.00000  Uiso   1.00
H160   H     0.09620   0.46501   0.28115   0.00000  Uiso   1.00
C161   C     0.20608   0.51957   0.31511   0.00000  Uiso   1.00
C162   C     0.12727   0.48041   0.01823   0.00000  Uiso   1.00
N163   N     0.24774   0.54096   0.29802   0.00000  Uiso   1.00
O164   O     0.23849   0.57635   0.27751   0.00000  Uiso   1.00
O165   O     0.29608   0.53117   0.31314   0.00000  Uiso   1.00
N166   N     0.08567   0.45896   0.03535   0.00000  Uiso   1.00
O167   O     0.03732   0.46890   0.02050   0.00000  Uiso   1.00
O168   O     0.09495   0.42345   0.05560   0.00000  Uiso   1.00
O169   O     0.50000   0.43892   0.20487   0.00000  Uiso   1.00
O170   O     0.50000   0.56108   0.12846   0.00000  Uiso   1.00
O171   O     0.50000   0.43893   0.12843   0.00000  Uiso   1.00
O172   O     0.50000   0.56107   0.20490   0.00000  Uiso   1.00
C173   C     0.49984   0.42001   0.16653   0.00000  Uiso   1.00
C174   C     0.50016   0.57999   0.16680   0.00000  Uiso   1.00
O175   O     0.42392   0.50000   0.19595   0.00000  Uiso   1.00
O176   O     0.57608   0.50000   0.13739   0.00000  Uiso   1.00
O177   O     0.42392   0.50000   0.11950   0.00000  Uiso   1.00
O178   O     0.57608   0.50000   0.21383   0.00000  Uiso   1.00
C179   C     0.40039   0.49996   0.15468   0.00000  Uiso   1.00
C180   C     0.59961   0.50004   0.17865   0.00000  Uiso   1.00
Zn181  Zn    0.50000   0.49999   0.21771   0.00000  Uiso   1.00
Zn182  Zn    0.50000   0.50001   0.11563   0.00000  Uiso   1.00
N183   N     0.49999   0.49999   0.28573   0.00000  Uiso   1.00
N184   N     0.50001   0.50001   0.04760   0.00000  Uiso   1.00
C185   C     0.34529   0.49995   0.14828   0.00000  Uiso   1.00
C186   C     0.65471   0.50005   0.18505   0.00000  Uiso   1.00
H187   H     0.65790   0.49987   0.11343   0.00000  Uiso   1.00
H188   H     0.34210   0.50013   0.21990   0.00000  Uiso   1.00
C189   C     0.51315   0.35452   0.12880   0.00000  Uiso   1.00
C190   C     0.48685   0.64548   0.20453   0.00000  Uiso   1.00
H191   H     0.52383   0.37069   0.09955   0.00000  Uiso   1.00
H192   H     0.47617   0.62931   0.23379   0.00000  Uiso   1.00
C193   C     0.51347   0.64520   0.12902   0.00000  Uiso   1.00
C194   C     0.48653   0.35480   0.20432   0.00000  Uiso   1.00
H195   H     0.52434   0.62881   0.09985   0.00000  Uiso   1.00
H196   H     0.47566   0.37119   0.23349   0.00000  Uiso   1.00
C197   C     0.50028   0.62416   0.16687   0.00000  Uiso   1.00
C198   C     0.49972   0.37584   0.16647   0.00000  Uiso   1.00
C199   C     0.53930   0.51928   0.02959   0.00000  Uiso   1.00
C200   C     0.46070   0.48071   0.30375   0.00000  Uiso   1.00
H201   H     0.57047   0.53497   0.05219   0.00000  Uiso   1.00
H202   H     0.42954   0.46501   0.28115   0.00000  Uiso   1.00
C203   C     0.53942   0.51957   0.31511   0.00000  Uiso   1.00
C204   C     0.46060   0.48041   0.01823   0.00000  Uiso   1.00
N205   N     0.58108   0.54096   0.29802   0.00000  Uiso   1.00
O206   O     0.57182   0.57635   0.27751   0.00000  Uiso   1.00
O207   O     0.62941   0.53117   0.31314   0.00000  Uiso   1.00
N208   N     0.41901   0.45896   0.03535   0.00000  Uiso   1.00
O209   O     0.37065   0.46890   0.02050   0.00000  Uiso   1.00
O210   O     0.42828   0.42345   0.05560   0.00000  Uiso   1.00
O211   O     0.83333   0.43892   0.20487   0.00000  Uiso   1.00
O212   O     0.83334   0.56108   0.12846   0.00000  Uiso   1.00
O213   O     0.83333   0.43893   0.12843   0.00000  Uiso   1.00
O214   O     0.83334   0.56107   0.20490   0.00000  Uiso   1.00
C215   C     0.83317   0.42001   0.16653   0.00000  Uiso   1.00
C216   C     0.83349   0.57999   0.16680   0.00000  Uiso   1.00
O217   O     0.75725   0.50000   0.19595   0.00000  Uiso   1.00
O218   O     0.90942   0.50000   0.13739   0.00000  Uiso   1.00
O219   O     0.75725   0.50000   0.11950   0.00000  Uiso   1.00
O220   O     0.90942   0.50000   0.21383   0.00000  Uiso   1.00
C221   C     0.73373   0.49996   0.15468   0.00000  Uiso   1.00
C222   C     0.93294   0.50004   0.17865   0.00000  Uiso   1.00
Zn223  Zn    0.83333   0.49999   0.21771   0.00000  Uiso   1.00
Zn224  Zn    0.83333   0.50001   0.11563   0.00000  Uiso   1.00
N225   N     0.83332   0.49999   0.28573   0.00000  Uiso   1.00
N226   N     0.83335   0.50001   0.04760   0.00000  Uiso   1.00
C227   C     0.67862   0.49995   0.14828   0.00000  Uiso   1.00
C228   C     0.98804   0.50005   0.18505   0.00000  Uiso   1.00
H229   H     0.99123   0.49987   0.11343   0.00000  Uiso   1.00
H230   H     0.67543   0.50013   0.21990   0.00000  Uiso   1.00
C231   C     0.84648   0.35452   0.12880   0.00000  Uiso   1.00
C232   C     0.82019   0.64548   0.20453   0.00000  Uiso   1.00
H233   H     0.85716   0.37069   0.09955   0.00000  Uiso   1.00
H234   H     0.80951   0.62931   0.23379   0.00000  Uiso   1.00
C235   C     0.84681   0.64520   0.12902   0.00000  Uiso   1.00
C236   C     0.81986   0.35480   0.20432   0.00000  Uiso   1.00
H237   H     0.85767   0.62881   0.09985   0.00000  Uiso   1.00
H238   H     0.80900   0.37119   0.23349   0.00000  Uiso   1.00
C239   C     0.83362   0.62416   0.16687   0.00000  Uiso   1.00
C240   C     0.83305   0.37584   0.16647   0.00000  Uiso   1.00
C241   C     0.87264   0.51928   0.02959   0.00000  Uiso   1.00
C242   C     0.79403   0.48071   0.30375   0.00000  Uiso   1.00
H243   H     0.90380   0.53497   0.05219   0.00000  Uiso   1.00
H244   H     0.76287   0.46501   0.28115   0.00000  Uiso   1.00
C245   C     0.87275   0.51957   0.31511   0.00000  Uiso   1.00
C246   C     0.79393   0.48041   0.01823   0.00000  Uiso   1.00
N247   N     0.91441   0.54096   0.29802   0.00000  Uiso   1.00
O248   O     0.90516   0.57635   0.27751   0.00000  Uiso   1.00
O249   O     0.96274   0.53117   0.31314   0.00000  Uiso   1.00
N250   N     0.75234   0.45896   0.03535   0.00000  Uiso   1.00
O251   O     0.70398   0.46890   0.02050   0.00000  Uiso   1.00
O252   O     0.76162   0.42345   0.05560   0.00000  Uiso   1.00
O253   O     0.16666   0.77225   0.20487   0.00000  Uiso   1.00
O254   O     0.16667   0.89442   0.12846   0.00000  Uiso   1.00
O255   O     0.16666   0.77226   0.12843   0.00000  Uiso   1.00
O256   O     0.16667   0.89441   0.20490   0.00000  Uiso   1.00
C257   C     0.16651   0.75334   0.16653   0.00000  Uiso   1.00
C258   C     0.16683   0.91333   0.16680   0.00000  Uiso   1.00
O259   O     0.09058   0.83333   0.19595   0.00000  Uiso   1.00
O260   O     0.24275   0.83334   0.13739   0.00000  Uiso   1.00
O261   O     0.09058   0.83334   0.11950   0.00000  Uiso   1.00
O262   O     0.24275   0.83333   0.21383   0.00000  Uiso   1.00
C263   C     0.06706   0.83329   0.15468   0.00000  Uiso   1.00
C264   C     0.26628   0.83338   0.17865   0.00000  Uiso   1.00
Zn265  Zn    0.16667   0.83333   0.21771   0.00000  Uiso   1.00
Zn266  Zn    0.16667   0.83334   0.11563   0.00000  Uiso   1.00
N267   N     0.16665   0.83332   0.28573   0.00000  Uiso   1.00
N268   N     0.16668   0.83334   0.04760   0.00000  Uiso   1.00
C269   C     0.01196   0.83328   0.14828   0.00000  Uiso   1.00
C270   C     0.32138   0.83338   0.18505   0.00000  Uiso   1.00
H271   H     0.32457   0.83320   0.11343   0.00000  Uiso   1.00
H272   H     0.00877   0.83347   0.21990   0.00000  Uiso   1.00
C273   C     0.17982   0.68785   0.12880   0.00000  Uiso   1.00
C274   C     0.15352   0.97881   0.20453   0.00000  Uiso   1.00
H275   H     0.19050   0.70403   0.09955   0.00000  Uiso   1.00
H276   H     0.14284   0.96264   0.23379   0.00000  Uiso   1.00
C277   C     0.18014   0.97853   0.12902   0.00000  Uiso   1.00
C278   C     0.15320   0.68814   0.20432   0.00000  Uiso   1.00
H279   H     0.19101   0.96214   0.09985   0.00000  Uiso   1.00
H280   H     0.14233   0.70453   0.23349   0.00000  Uiso   1.00
C281   C     0.16695   0.95750   0.16687   0.00000  Uiso   1.00
C282   C     0.16638   0.70917   0.16647   0.00000  Uiso   1.00
C283   C     0.20597   0.85261   0.02959   0.00000  Uiso   1.00
C284   C     0.12736   0.81405   0.30375   0.00000  Uiso   1.00
H285   H     0.23714   0.86830   0.05219   0.00000  Uiso   1.00
H286   H     0.09620   0.79835   0.28115   0.00000  Uiso   1.00
C287   C     0.20608   0.85291   0.31511   0.00000  Uiso   1.00
C288   C     0.12727   0.81374   0.01823   0.00000  Uiso   1.00
N289   N     0.24774   0.87429   0.29802   0.00000  Uiso   1.00
O290   O     0.23849   0.90968   0.27751   0.00000  Uiso   1.00
O291   O     0.29608   0.86450   0.31314   0.00000  Uiso   1.00
N292   N     0.08567   0.79230   0.03535   0.00000  Uiso   1.00
O293   O     0.03732   0.80223   0.02050   0.00000  Uiso   1.00
O294   O     0.09495   0.75679   0.05560   0.00000  Uiso   1.00
O295   O     0.50000   0.77225   0.20487   0.00000  Uiso   1.00
O296   O     0.50000   0.89442   0.12846   0.00000  Uiso   1.00
O297   O     0.50000   0.77226   0.12843   0.00000  Uiso   1.00
O298   O     0.50000   0.89441   0.20490   0.00000  Uiso   1.00
C299   C     0.49984   0.75334   0.16653   0.00000  Uiso   1.00
C300   C     0.50016   0.91333   0.16680   0.00000  Uiso   1.00
O301   O     0.42392   0.83333   0.19595   0.00000  Uiso   1.00
O302   O     0.57608   0.83334   0.13739   0.00000  Uiso   1.00
O303   O     0.42392   0.83334   0.11950   0.00000  Uiso   1.00
O304   O     0.57608   0.83333   0.21383   0.00000  Uiso   1.00
C305   C     0.40039   0.83329   0.15468   0.00000  Uiso   1.00
C306   C     0.59961   0.83338   0.17865   0.00000  Uiso   1.00
Zn307  Zn    0.50000   0.83333   0.21771   0.00000  Uiso   1.00
Zn308  Zn    0.50000   0.83334   0.11563   0.00000  Uiso   1.00
N309   N     0.49999   0.83332   0.28573   0.00000  Uiso   1.00
N310   N     0.50001   0.83334   0.04760   0.00000  Uiso   1.00
C311   C     0.34529   0.83328   0.14828   0.00000  Uiso   1.00
C312   C     0.65471   0.83338   0.18505   0.00000  Uiso   1.00
H313   H     0.65790   0.83320   0.11343   0.00000  Uiso   1.00
H314   H     0.34210   0.83347   0.21990   0.00000  Uiso   1.00
C315   C     0.51315   0.68785   0.12880   0.00000  Uiso   1.00
C316   C     0.48685   0.97881   0.20453   0.00000  Uiso   1.00
H317   H     0.52383   0.70403   0.09955   0.00000  Uiso   1.00
H318   H     0.47617   0.96264   0.23379   0.00000  Uiso   1.00
C319   C     0.51347   0.97853   0.12902   0.00000  Uiso   1.00
C320   C     0.48653   0.68814   0.20432   0.00000  Uiso   1.00
H321   H     0.52434   0.96214   0.09985   0.00000  Uiso   1.00
H322   H     0.47566   0.70453   0.23349   0.00000  Uiso   1.00
C323   C     0.50028   0.95750   0.16687   0.00000  Uiso   1.00
C324   C     0.49972   0.70917   0.16647   0.00000  Uiso   1.00
C325   C     0.53930   0.85261   0.02959   0.00000  Uiso   1.00
C326   C     0.46070   0.81405   0.30375   0.00000  Uiso   1.00
H327   H     0.57047   0.86830   0.05219   0.00000  Uiso   1.00
H328   H     0.42954   0.79835   0.28115   0.00000  Uiso   1.00
C329   C     0.53942   0.85291   0.31511   0.00000  Uiso   1.00
C330   C     0.46060   0.81374   0.01823   0.00000  Uiso   1.00
N331   N     0.58108   0.87429   0.29802   0.00000  Uiso   1.00
O332   O     0.57182   0.90968   0.27751   0.00000  Uiso   1.00
O333   O     0.62941   0.86450   0.31314   0.00000  Uiso   1.00
N334   N     0.41901   0.79230   0.03535   0.00000  Uiso   1.00
O335   O     0.37065   0.80223   0.02050   0.00000  Uiso   1.00
O336   O     0.42828   0.75679   0.05560   0.00000  Uiso   1.00
O337   O     0.83333   0.77225   0.20487   0.00000  Uiso   1.00
O338   O     0.83334   0.89442   0.12846   0.00000  Uiso   1.00
O339   O     0.83333   0.77226   0.12843   0.00000  Uiso   1.00
O340   O     0.83334   0.89441   0.20490   0.00000  Uiso   1.00
C341   C     0.83317   0.75334   0.16653   0.00000  Uiso   1.00
C342   C     0.83349   0.91333   0.16680   0.00000  Uiso   1.00
O343   O     0.75725   0.83333   0.19595   0.00000  Uiso   1.00
O344   O     0.90942   0.83334   0.13739   0.00000  Uiso   1.00
O345   O     0.75725   0.83334   0.11950   0.00000  Uiso   1.00
O346   O     0.90942   0.83333   0.21383   0.00000  Uiso   1.00
C347   C     0.73373   0.83329   0.15468   0.00000  Uiso   1.00
C348   C     0.93294   0.83338   0.17865   0.00000  Uiso   1.00
Zn349  Zn    0.83333   0.83333   0.21771   0.00000  Uiso   1.00
Zn350  Zn    0.83333   0.83334   0.11563   0.00000  Uiso   1.00
N351   N     0.83332   0.83332   0.28573   0.00000  Uiso   1.00
N352   N     0.83335   0.83334   0.04760   0.00000  Uiso   1.00
C353   C     0.67862   0.83328   0.14828   0.00000  Uiso   1.00
C354   C     0.98804   0.83338   0.18505   0.00000  Uiso   1.00
H355   H     0.99123   0.83320   0.11343   0.00000  Uiso   1.00
H356   H     0.67543   0.83347   0.21990   0.00000  Uiso   1.00
C357   C     0.84648   0.68785   0.12880   0.00000  Uiso   1.00
C358   C     0.82019   0.97881   0.20453   0.00000  Uiso   1.00
H359   H     0.85716   0.70403   0.09955   0.00000  Uiso   1.00
H360   H     0.80951   0.96264   0.23379   0.00000  Uiso   1.00
C361   C     0.84681   0.97853   0.12902   0.00000  Uiso   1.00
C362   C     0.81986   0.68814   0.20432   0.00000  Uiso   1.00
H363   H     0.85767   0.96214   0.09985   0.00000  Uiso   1.00
H364   H     0.80900   0.70453   0.23349   0.00000  Uiso   1.00
C365   C     0.83362   0.95750   0.16687   0.00000  Uiso   1.00
C366   C     0.83305   0.70917   0.16647   0.00000  Uiso   1.00
C367   C     0.87264   0.85261   0.02959   0.00000  Uiso   1.00
C368   C     0.79403   0.81405   0.30375   0.00000  Uiso   1.00
H369   H     0.90380   0.86830   0.05219   0.00000  Uiso   1.00
H370   H     0.76287   0.79835   0.28115   0.00000  Uiso   1.00
C371   C     0.87275   0.85291   0.31511   0.00000  Uiso   1.00
C372   C     0.79393   0.81374   0.01823   0.00000  Uiso   1.00
N373   N     0.91441   0.87429   0.29802   0.00000  Uiso   1.00
O374   O     0.90516   0.90968   0.27751   0.00000  Uiso   1.00
O375   O     0.96274   0.86450   0.31314   0.00000  Uiso   1.00
N376   N     0.75234   0.79230   0.03535   0.00000  Uiso   1.00
O377   O     0.70398   0.80223   0.02050   0.00000  Uiso   1.00
O378   O     0.76162   0.75679   0.05560   0.00000  Uiso   1.00
O379   O     0.16666   0.10558   0.53821   0.00000  Uiso   1.00
O380   O     0.16667   0.22775   0.46179   0.00000  Uiso   1.00
O381   O     0.16666   0.10559   0.46176   0.00000  Uiso   1.00
O382   O     0.16667   0.22774   0.53824   0.00000  Uiso   1.00
C383   C     0.16651   0.08667   0.49987   0.00000  Uiso   1.00
C384   C     0.16683   0.24666   0.50013   0.00000  Uiso   1.00
O385   O     0.09058   0.16666   0.52928   0.00000  Uiso   1.00
O386   O     0.24275   0.16667   0.47072   0.00000  Uiso   1.00
O387   O     0.09058   0.16667   0.45284   0.00000  Uiso   1.00
O388   O     0.24275   0.16666   0.54716   0.00000  Uiso   1.00
C389   C     0.06706   0.16662   0.48801   0.00000  Uiso   1.00
C390   C     0.26628   0.16671   0.51199   0.00000  Uiso   1.00
Zn391  Zn    0.16667   0.16666   0.55104   0.00000  Uiso   1.00
Zn392  Zn    0.16667   0.16667   0.44896   0.00000  Uiso   1.00
N393   N     0.16665   0.16666   0.61907   0.00000  Uiso   1.00
N394   N     0.16668   0.16668   0.38093   0.00000  Uiso   1.00
C395   C     0.01196   0.16662   0.48162   0.00000  Uiso   1.00
C396   C     0.32138   0.16672   0.51839   0.00000  Uiso   1.00
H397   H     0.32457   0.16654   0.44677   0.00000  Uiso   1.00
H398   H     0.00877   0.16680   0.55323   0.00000  Uiso   1.00
C399   C     0.17982   0.02119   0.46214   0.00000  Uiso   1.00
C400   C     0.15352   0.31215   0.53786   0.00000  Uiso   1.00
H401   H     0.19050   0.03736   0.43288   0.00000  Uiso   1.00
H402   H     0.14284   0.29597   0.56712   0.00000  Uiso   1.00
C403   C     0.18014   0.31186   0.46235   0.00000  Uiso   1.00
C404   C     0.15320   0.02147   0.53765   0.00000  Uiso   1.00
H405   H     0.19101   0.29547   0.43318   0.00000  Uiso   1.00
H406   H     0.14233   0.03786   0.56682   0.00000  Uiso   1.00
C407   C     0.16695   0.29083   0.50020   0.00000  Uiso   1.00
C408   C     0.16638   0.04250   0.49980   0.00000  Uiso   1.00
C409   C     0.20597   0.18595   0.36292   0.00000  Uiso   1.00
C410   C     0.12736   0.14738   0.63709   0.00000  Uiso   1.00
H411   H     0.23714   0.20164   0.38552   0.00000  Uiso   1.00
H412   H     0.09620   0.13168   0.61449   0.00000  Uiso   1.00
C413   C     0.20608   0.18624   0.64844   0.00000  Uiso   1.00
C414   C     0.12727   0.14708   0.35156   0.00000  Uiso   1.00
N415   N     0.24774   0.20763   0.63135   0.00000  Uiso   1.00
O416   O     0.23849   0.24301   0.61084   0.00000  Uiso   1.00
O417   O     0.29608   0.19783   0.64647   0.00000  Uiso   1.00
N418   N     0.08567   0.12563   0.36868   0.00000  Uiso   1.00
O419   O     0.03732   0.13557   0.35383   0.00000  Uiso   1.00
O420   O     0.09495   0.09012   0.38893   0.00000  Uiso   1.00
O421   O     0.50000   0.10558   0.53821   0.00000  Uiso   1.00
O422   O     0.50000   0.22775   0.46179   0.00000  Uiso   1.00
O423   O     0.50000   0.10559   0.46176   0.00000  Uiso   1.00
O424   O     0.50000   0.22774   0.53824   0.00000  Uiso   1.00
C425   C     0.49984   0.08667   0.49987   0.00000  Uiso   1.00
C426   C     0.50016   0.24666   0.50013   0.00000  Uiso   1.00
O427   O     0.42392   0.16666   0.52928   0.00000  Uiso   1.00
O428   O     0.57608   0.16667   0.47072   0.00000  Uiso   1.00
O429   O     0.42392   0.16667   0.45284   0.00000  Uiso   1.00
O430   O     0.57608   0.16666   0.54716   0.00000  Uiso   1.00
C431   C     0.40039   0.16662   0.48801   0.00000  Uiso   1.00
C432   C     0.59961   0.16671   0.51199   0.00000  Uiso   1.00
Zn433  Zn    0.50000   0.16666   0.55104   0.00000  Uiso   1.00
Zn434  Zn    0.50000   0.16667   0.44896   0.00000  Uiso   1.00
N435   N     0.49999   0.16666   0.61907   0.00000  Uiso   1.00
N436   N     0.50001   0.16668   0.38093   0.00000  Uiso   1.00
C437   C     0.34529   0.16662   0.48162   0.00000  Uiso   1.00
C438   C     0.65471   0.16672   0.51839   0.00000  Uiso   1.00
H439   H     0.65790   0.16654   0.44677   0.00000  Uiso   1.00
H440   H     0.34210   0.16680   0.55323   0.00000  Uiso   1.00
C441   C     0.51315   0.02119   0.46214   0.00000  Uiso   1.00
C442   C     0.48685   0.31215   0.53786   0.00000  Uiso   1.00
H443   H     0.52383   0.03736   0.43288   0.00000  Uiso   1.00
H444   H     0.47617   0.29597   0.56712   0.00000  Uiso   1.00
C445   C     0.51347   0.31186   0.46235   0.00000  Uiso   1.00
C446   C     0.48653   0.02147   0.53765   0.00000  Uiso   1.00
H447   H     0.52434   0.29547   0.43318   0.00000  Uiso   1.00
H448   H     0.47566   0.03786   0.56682   0.00000  Uiso   1.00
C449   C     0.50028   0.29083   0.50020   0.00000  Uiso   1.00
C450   C     0.49972   0.04250   0.49980   0.00000  Uiso   1.00
C451   C     0.53930   0.18595   0.36292   0.00000  Uiso   1.00
C452   C     0.46070   0.14738   0.63709   0.00000  Uiso   1.00
H453   H     0.57047   0.20164   0.38552   0.00000  Uiso   1.00
H454   H     0.42954   0.13168   0.61449   0.00000  Uiso   1.00
C455   C     0.53942   0.18624   0.64844   0.00000  Uiso   1.00
C456   C     0.46060   0.14708   0.35156   0.00000  Uiso   1.00
N457   N     0.58108   0.20763   0.63135   0.00000  Uiso   1.00
O458   O     0.57182   0.24301   0.61084   0.00000  Uiso   1.00
O459   O     0.62941   0.19783   0.64647   0.00000  Uiso   1.00
N460   N     0.41901   0.12563   0.36868   0.00000  Uiso   1.00
O461   O     0.37065   0.13557   0.35383   0.00000  Uiso   1.00
O462   O     0.42828   0.09012   0.38893   0.00000  Uiso   1.00
O463   O     0.83333   0.10558   0.53821   0.00000  Uiso   1.00
O464   O     0.83334   0.22775   0.46179   0.00000  Uiso   1.00
O465   O     0.83333   0.10559   0.46176   0.00000  Uiso   1.00
O466   O     0.83334   0.22774   0.53824   0.00000  Uiso   1.00
C467   C     0.83317   0.08667   0.49987   0.00000  Uiso   1.00
C468   C     0.83349   0.24666   0.50013   0.00000  Uiso   1.00
O469   O     0.75725   0.16666   0.52928   0.00000  Uiso   1.00
O470   O     0.90942   0.16667   0.47072   0.00000  Uiso   1.00
O471   O     0.75725   0.16667   0.45284   0.00000  Uiso   1.00
O472   O     0.90942   0.16666   0.54716   0.00000  Uiso   1.00
C473   C     0.73373   0.16662   0.48801   0.00000  Uiso   1.00
C474   C     0.93294   0.16671   0.51199   0.00000  Uiso   1.00
Zn475  Zn    0.83333   0.16666   0.55104   0.00000  Uiso   1.00
Zn476  Zn    0.83333   0.16667   0.44896   0.00000  Uiso   1.00
N477   N     0.83332   0.16666   0.61907   0.00000  Uiso   1.00
N478   N     0.83335   0.16668   0.38093   0.00000  Uiso   1.00
C479   C     0.67862   0.16662   0.48162   0.00000  Uiso   1.00
C480   C     0.98804   0.16672   0.51839   0.00000  Uiso   1.00
H481   H     0.99123   0.16654   0.44677   0.00000  Uiso   1.00
H482   H     0.67543   0.16680   0.55323   0.00000  Uiso   1.00
C483   C     0.84648   0.02119   0.46214   0.00000  Uiso   1.00
C484   C     0.82019   0.31215   0.53786   0.00000  Uiso   1.00
H485   H     0.85716   0.03736   0.43288   0.00000  Uiso   1.00
H486   H     0.80951   0.29597   0.56712   0.00000  Uiso   1.00
C487   C     0.84681   0.31186   0.46235   0.00000  Uiso   1.00
C488   C     0.81986   0.02147   0.53765   0.00000  Uiso   1.00
H489   H     0.85767   0.29547   0.43318   0.00000  Uiso   1.00
H490   H     0.80900   0.03786   0.56682   0.00000  Uiso   1.00
C491   C     0.83362   0.29083   0.50020   0.00000  Uiso   1.00
C492   C     0.83305   0.04250   0.49980   0.00000  Uiso   1.00
C493   C     0.87264   0.18595   0.36292   0.00000  Uiso   1.00
C494   C     0.79403   0.14738   0.63709   0.00000  Uiso   1.00
H495   H     0.90380   0.20164   0.38552   0.00000  Uiso   1.00
H496   H     0.76287   0.13168   0.61449   0.00000  Uiso   1.00
C497   C     0.87275   0.18624   0.64844   0.00000  Uiso   1.00
C498   C     0.79393   0.14708   0.35156   0.00000  Uiso   1.00
N499   N     0.91441   0.20763   0.63135   0.00000  Uiso   1.00
O500   O     0.90516   0.24301   0.61084   0.00000  Uiso   1.00
O501   O     0.96274   0.19783   0.64647   0.00000  Uiso   1.00
N502   N     0.75234   0.12563   0.36868   0.00000  Uiso   1.00
O503   O     0.70398   0.13557   0.35383   0.00000  Uiso   1.00
O504   O     0.76162   0.09012   0.38893   0.00000  Uiso   1.00
O505   O     0.16666   0.43892   0.53821   0.00000  Uiso   1.00
O506   O     0.16667   0.56108   0.46179   0.00000  Uiso   1.00
O507   O     0.16666   0.43893   0.46176   0.00000  Uiso   1.00
O508   O     0.16667   0.56107   0.53824   0.00000  Uiso   1.00
C509   C     0.16651   0.42001   0.49987   0.00000  Uiso   1.00
C510   C     0.16683   0.57999   0.50013   0.00000  Uiso   1.00
O511   O     0.09058   0.50000   0.52928   0.00000  Uiso   1.00
O512   O     0.24275   0.50000   0.47072   0.00000  Uiso   1.00
O513   O     0.09058   0.50000   0.45284   0.00000  Uiso   1.00
O514   O     0.24275   0.50000   0.54716   0.00000  Uiso   1.00
C515   C     0.06706   0.49996   0.48801   0.00000  Uiso   1.00
C516   C     0.26628   0.50004   0.51199   0.00000  Uiso   1.00
Zn517  Zn    0.16667   0.49999   0.55104   0.00000  Uiso   1.00
Zn518  Zn    0.16667   0.50001   0.44896   0.00000  Uiso   1.00
N519   N     0.16665   0.49999   0.61907   0.00000  Uiso   1.00
N520   N     0.16668   0.50001   0.38093   0.00000  Uiso   1.00
C521   C     0.01196   0.49995   0.48162   0.00000  Uiso   1.00
C522   C     0.32138   0.50005   0.51839   0.00000  Uiso   1.00
H523   H     0.32457   0.49987   0.44677   0.00000  Uiso   1.00
H524   H     0.00877   0.50013   0.55323   0.00000  Uiso   1.00
C525   C     0.17982   0.35452   0.46214   0.00000  Uiso   1.00
C526   C     0.15352   0.64548   0.53786   0.00000  Uiso   1.00
H527   H     0.19050   0.37069   0.43288   0.00000  Uiso   1.00
H528   H     0.14284   0.62931   0.56712   0.00000  Uiso   1.00
C529   C     0.18014   0.64520   0.46235   0.00000  Uiso   1.00
C530   C     0.15320   0.35480   0.53765   0.00000  Uiso   1.00
H531   H     0.19101   0.62881   0.43318   0.00000  Uiso   1.00
H532   H     0.14233   0.37119   0.56682   0.00000  Uiso   1.00
C533   C     0.16695   0.62416   0.50020   0.00000  Uiso   1.00
C534   C     0.16638   0.37584   0.49980   0.00000  Uiso   1.00
C535   C     0.20597   0.51928   0.36292   0.00000  Uiso   1.00
C536   C     0.12736   0.48071   0.63709   0.00000  Uiso   1.00
H537   H     0.23714   0.53497   0.38552   0.00000  Uiso   1.00
H538   H     0.09620   0.46501   0.61449   0.00000  Uiso   1.00
C539   C     0.20608   0.51957   0.64844   0.00000  Uiso   1.00
C540   C     0.12727   0.48041   0.35156   0.00000  Uiso   1.00
N541   N     0.24774   0.54096   0.63135   0.00000  Uiso   1.00
O542   O     0.23849   0.57635   0.61084   0.00000  Uiso   1.00
O543   O     0.29608   0.53117   0.64647   0.00000  Uiso   1.00
N544   N     0.08567   0.45896   0.36868   0.00000  Uiso   1.00
O545   O     0.03732   0.46890   0.35383   0.00000  Uiso   1.00
O546   O     0.09495   0.42345   0.38893   0.00000  Uiso   1.00
O547   O     0.50000   0.43892   0.53821   0.00000  Uiso   1.00
O548   O     0.50000   0.56108   0.46179   0.00000  Uiso   1.00
O549   O     0.50000   0.43893   0.46176   0.00000  Uiso   1.00
O550   O     0.50000   0.56107   0.53824   0.00000  Uiso   1.00
C551   C     0.49984   0.42001   0.49987   0.00000  Uiso   1.00
C552   C     0.50016   0.57999   0.50013   0.00000  Uiso   1.00
O553   O     0.42392   0.50000   0.52928   0.00000  Uiso   1.00
O554   O     0.57608   0.50000   0.47072   0.00000  Uiso   1.00
O555   O     0.42392   0.50000   0.45284   0.00000  Uiso   1.00
O556   O     0.57608   0.50000   0.54716   0.00000  Uiso   1.00
C557   C     0.40039   0.49996   0.48801   0.00000  Uiso   1.00
C558   C     0.59961   0.50004   0.51199   0.00000  Uiso   1.00
Zn559  Zn    0.50000   0.49999   0.55104   0.00000  Uiso   1.00
Zn560  Zn    0.50000   0.50001   0.44896   0.00000  Uiso   1.00
N561   N     0.49999   0.49999   0.61907   0.00000  Uiso   1.00
N562   N     0.50001   0.50001   0.38093   0.00000  Uiso   1.00
C563   C     0.34529   0.49995   0.48162   0.00000  Uiso   1.00
C564   C     0.65471   0.50005   0.51839   0.00000  Uiso   1.00
H565   H     0.65790   0.49987   0.44677   0.00000  Uiso   1.00
H566   H     0.34210   0.50013   0.55323   0.00000  Uiso   1.00
C567   C     0.51315   0.35452   0.46214   0.00000  Uiso   1.00
C568   C     0.48685   0.64548   0.53786   0.00000  Uiso   1.00
H569   H     0.52383   0.37069   0.43288   0.00000  Uiso   1.00
H570   H     0.47617   0.62931   0.56712   0.00000  Uiso   1.00
C571   C     0.51347   0.64520   0.46235   0.00000  Uiso   1.00
C572   C     0.48653   0.35480   0.53765   0.00000  Uiso   1.00
H573   H     0.52434   0.62881   0.43318   0.00000  Uiso   1.00
H574   H     0.47566   0.37119   0.56682   0.00000  Uiso   1.00
C575   C     0.50028   0.62416   0.50020   0.00000  Uiso   1.00
C576   C     0.49972   0.37584   0.49980   0.00000  Uiso   1.00
C577   C     0.53930   0.51928   0.36292   0.00000  Uiso   1.00
C578   C     0.46070   0.48071   0.63709   0.00000  Uiso   1.00
H579   H     0.57047   0.53497   0.38552   0.00000  Uiso   1.00
H580   H     0.42954   0.46501   0.61449   0.00000  Uiso   1.00
C581   C     0.53942   0.51957   0.64844   0.00000  Uiso   1.00
C582   C     0.46060   0.48041   0.35156   0.00000  Uiso   1.00
N583   N     0.58108   0.54096   0.63135   0.00000  Uiso   1.00
O584   O     0.57182   0.57635   0.61084   0.00000  Uiso   1.00
O585   O     0.62941   0.53117   0.64647   0.00000  Uiso   1.00
N586   N     0.41901   0.45896   0.36868   0.00000  Uiso   1.00
O587   O     0.37065   0.46890   0.35383   0.00000  Uiso   1.00
O588   O     0.42828   0.42345   0.38893   0.00000  Uiso   1.00
O589   O     0.83333   0.43892   0.53821   0.00000  Uiso   1.00
O590   O     0.83334   0.56108   0.46179   0.00000  Uiso   1.00
O591   O     0.83333   0.43893   0.46176   0.00000  Uiso   1.00
O592   O     0.83334   0.56107   0.53824   0.00000  Uiso   1.00
C593   C     0.83317   0.42001   0.49987   0.00000  Uiso   1.00
C594   C     0.83349   0.57999   0.50013   0.00000  Uiso   1.00
O595   O     0.75725   0.50000   0.52928   0.00000  Uiso   1.00
O596   O     0.90942   0.50000   0.47072   0.00000  Uiso   1.00
O597   O     0.75725   0.50000   0.45284   0.00000  Uiso   1.00
O598   O     0.90942   0.50000   0.54716   0.00000  Uiso   1.00
C599   C     0.73373   0.49996   0.48801   0.00000  Uiso   1.00
C600   C     0.93294   0.50004   0.51199   0.00000  Uiso   1.00
Zn601  Zn    0.83333   0.49999   0.55104   0.00000  Uiso   1.00
Zn602  Zn    0.83333   0.50001   0.44896   0.00000  Uiso   1.00
N603   N     0.83332   0.49999   0.61907   0.00000  Uiso   1.00
N604   N     0.83335   0.50001   0.38093   0.00000  Uiso   1.00
C605   C     0.67862   0.49995   0.48162   0.00000  Uiso   1.00
C606   C     0.98804   0.50005   0.51839   0.00000  Uiso   1.00
H607   H     0.99123   0.49987   0.44677   0.00000  Uiso   1.00
H608   H     0.67543   0.50013   0.55323   0.00000  Uiso   1.00
C609   C     0.84648   0.35452   0.46214   0.00000  Uiso   1.00
C610   C     0.82019   0.64548   0.53786   0.00000  Uiso   1.00
H611   H     0.85716   0.37069   0.43288   0.00000  Uiso   1.00
H612   H     0.80951   0.62931   0.56712   0.00000  Uiso   1.00
C613   C     0.84681   0.64520   0.46235   0.00000  Uiso   1.00
C614   C     0.81986   0.35480   0.53765   0.00000  Uiso   1.00
H615   H     0.85767   0.62881   0.43318   0.00000  Uiso   1.00
H616   H     0.80900   0.37119   0.56682   0.00000  Uiso   1.00
C617   C     0.83362   0.62416   0.50020   0.00000  Uiso   1.00
C618   C     0.83305   0.37584   0.49980   0.00000  Uiso   1.00
C619   C     0.87264   0.51928   0.36292   0.00000  Uiso   1.00
C620   C     0.79403   0.48071   0.63709   0.00000  Uiso   1.00
H621   H     0.90380   0.53497   0.38552   0.00000  Uiso   1.00
H622   H     0.76287   0.46501   0.61449   0.00000  Uiso   1.00
C623   C     0.87275   0.51957   0.64844   0.00000  Uiso   1.00
C624   C     0.79393   0.48041   0.35156   0.00000  Uiso   1.00
N625   N     0.91441   0.54096   0.63135   0.00000  Uiso   1.00
O626   O     0.90516   0.57635   0.61084   0.00000  Uiso   1.00
O627   O     0.96274   0.53117   0.64647   0.00000  Uiso   1.00
N628   N     0.75234   0.45896   0.36868   0.00000  Uiso   1.00
O629   O     0.70398   0.46890   0.35383   0.00000  Uiso   1.00
O630   O     0.76162   0.42345   0.38893   0.00000  Uiso   1.00
O631   O     0.16666   0.77225   0.53821   0.00000  Uiso   1.00
O632   O     0.16667   0.89442   0.46179   0.00000  Uiso   1.00
O633   O     0.16666   0.77226   0.46176   0.00000  Uiso   1.00
O634   O     0.16667   0.89441   0.53824   0.00000  Uiso   1.00
C635   C     0.16651   0.75334   0.49987   0.00000  Uiso   1.00
C636   C     0.16683   0.91333   0.50013   0.00000  Uiso   1.00
O637   O     0.09058   0.83333   0.52928   0.00000  Uiso   1.00
O638   O     0.24275   0.83334   0.47072   0.00000  Uiso   1.00
O639   O     0.09058   0.83334   0.45284   0.00000  Uiso   1.00
O640   O     0.24275   0.83333   0.54716   0.00000  Uiso   1.00
C641   C     0.06706   0.83329   0.48801   0.00000  Uiso   1.00
C642   C     0.26628   0.83338   0.51199   0.00000  Uiso   1.00
Zn643  Zn    0.16667   0.83333   0.55104   0.00000  Uiso   1.00
Zn644  Zn    0.16667   0.83334   0.44896   0.00000  Uiso   1.00
N645   N     0.16665   0.83332   0.61907   0.00000  Uiso   1.00
N646   N     0.16668   0.83334   0.38093   0.00000  Uiso   1.00
C647   C     0.01196   0.83328   0.48162   0.00000  Uiso   1.00
C648   C     0.32138   0.83338   0.51839   0.00000  Uiso   1.00
H649   H     0.32457   0.83320   0.44677   0.00000  Uiso   1.00
H650   H     0.00877   0.83347   0.55323   0.00000  Uiso   1.00
C651   C     0.17982   0.68785   0.46214   0.00000  Uiso   1.00
C652   C     0.15352   0.97881   0.53786   0.00000  Uiso   1.00
H653   H     0.19050   0.70403   0.43288   0.00000  Uiso   1.00
H654   H     0.14284   0.96264   0.56712   0.00000  Uiso   1.00
C655   C     0.18014   0.97853   0.46235   0.00000  Uiso   1.00
C656   C     0.15320   0.68814   0.53765   0.00000  Uiso   1.00
H657   H     0.19101   0.96214   0.43318   0.00000  Uiso   1.00
H658   H     0.14233   0.70453   0.56682   0.00000  Uiso   1.00
C659   C     0.16695   0.95750   0.50020   0.00000  Uiso   1.00
C660   C     0.16638   0.70917   0.49980   0.00000  Uiso   1.00
C661   C     0.20597   0.85261   0.36292   0.00000  Uiso   1.00
C662   C     0.12736   0.81405   0.63709   0.00000  Uiso   1.00
H663   H     0.23714   0.86830   0.38552   0.00000  Uiso   1.00
H664   H     0.09620   0.79835   0.61449   0.00000  Uiso   1.00
C665   C     0.20608   0.85291   0.64844   0.00000  Uiso   1.00
C666   C     0.12727   0.81374   0.35156   0.00000  Uiso   1.00
N667   N     0.24774   0.87429   0.63135   0.00000  Uiso   1.00
O668   O     0.23849   0.90968   0.61084   0.00000  Uiso   1.00
O669   O     0.29608   0.86450   0.64647   0.00000  Uiso   1.00
N670   N     0.08567   0.79230   0.36868   0.00000  Uiso   1.00
O671   O     0.03732   0.80223   0.35383   0.00000  Uiso   1.00
O672   O     0.09495   0.75679   0.38893   0.00000  Uiso   1.00
O673   O     0.50000   0.77225   0.53821   0.00000  Uiso   1.00
O674   O     0.50000   0.89442   0.46179   0.00000  Uiso   1.00
O675   O     0.50000   0.77226   0.46176   0.00000  Uiso   1.00
O676   O     0.50000   0.89441   0.53824   0.00000  Uiso   1.00
C677   C     0.49984   0.75334   0.49987   0.00000  Uiso   1.00
C678   C     0.50016   0.91333   0.50013   0.00000  Uiso   1.00
O679   O     0.42392   0.83333   0.52928   0.00000  Uiso   1.00
O680   O     0.57608   0.83334   0.47072   0.00000  Uiso   1.00
O681   O     0.42392   0.83334   0.45284   0.00000  Uiso   1.00
O682   O     0.57608   0.83333   0.54716   0.00000  Uiso   1.00
C683   C     0.40039   0.83329   0.48801   0.00000  Uiso   1.00
C684   C     0.59961   0.83338   0.51199   0.00000  Uiso   1.00
Zn685  Zn    0.50000   0.83333   0.55104   0.00000  Uiso   1.00
Zn686  Zn    0.50000   0.83334   0.44896   0.00000  Uiso   1.00
N687   N     0.49999   0.83332   0.61907   0.00000  Uiso   1.00
N688   N     0.50001   0.83334   0.38093   0.00000  Uiso   1.00
C689   C     0.34529   0.83328   0.48162   0.00000  Uiso   1.00
C690   C     0.65471   0.83338   0.51839   0.00000  Uiso   1.00
H691   H     0.65790   0.83320   0.44677   0.00000  Uiso   1.00
H692   H     0.34210   0.83347   0.55323   0.00000  Uiso   1.00
C693   C     0.51315   0.68785   0.46214   0.00000  Uiso   1.00
C694   C     0.48685   0.97881   0.53786   0.00000  Uiso   1.00
H695   H     0.52383   0.70403   0.43288   0.00000  Uiso   1.00
H696   H     0.47617   0.96264   0.56712   0.00000  Uiso   1.00
C697   C     0.51347   0.97853   0.46235   0.00000  Uiso   1.00
C698   C     0.48653   0.68814   0.53765   0.00000  Uiso   1.00
H699   H     0.52434   0.96214   0.43318   0.00000  Uiso   1.00
H700   H     0.47566   0.70453   0.56682   0.00000  Uiso   1.00
C701   C     0.50028   0.95750   0.50020   0.00000  Uiso   1.00
C702   C     0.49972   0.70917   0.49980   0.00000  Uiso   1.00
C703   C     0.53930   0.85261   0.36292   0.00000  Uiso   1.00
C704   C     0.46070   0.81405   0.63709   0.00000  Uiso   1.00
H705   H     0.57047   0.86830   0.38552   0.00000  Uiso   1.00
H706   H     0.42954   0.79835   0.61449   0.00000  Uiso   1.00
C707   C     0.53942   0.85291   0.64844   0.00000  Uiso   1.00
C708   C     0.46060   0.81374   0.35156   0.00000  Uiso   1.00
N709   N     0.58108   0.87429   0.63135   0.00000  Uiso   1.00
O710   O     0.57182   0.90968   0.61084   0.00000  Uiso   1.00
O711   O     0.62941   0.86450   0.64647   0.00000  Uiso   1.00
N712   N     0.41901   0.79230   0.36868   0.00000  Uiso   1.00
O713   O     0.37065   0.80223   0.35383   0.00000  Uiso   1.00
O714   O     0.42828   0.75679   0.38893   0.00000  Uiso   1.00
O715   O     0.83333   0.77225   0.53821   0.00000  Uiso   1.00
O716   O     0.83334   0.89442   0.46179   0.00000  Uiso   1.00
O717   O     0.83333   0.77226   0.46176   0.00000  Uiso   1.00
O718   O     0.83334   0.89441   0.53824   0.00000  Uiso   1.00
C719   C     0.83317   0.75334   0.49987   0.00000  Uiso   1.00
C720   C     0.83349   0.91333   0.50013   0.00000  Uiso   1.00
O721   O     0.75725   0.83333   0.52928   0.00000  Uiso   1.00
O722   O     0.90942   0.83334   0.47072   0.00000  Uiso   1.00
O723   O     0.75725   0.83334   0.45284   0.00000  Uiso   1.00
O724   O     0.90942   0.83333   0.54716   0.00000  Uiso   1.00
C725   C     0.73373   0.83329   0.48801   0.00000  Uiso   1.00
C726   C     0.93294   0.83338   0.51199   0.00000  Uiso   1.00
Zn727  Zn    0.83333   0.83333   0.55104   0.00000  Uiso   1.00
Zn728  Zn    0.83333   0.83334   0.44896   0.00000  Uiso   1.00
N729   N     0.83332   0.83332   0.61907   0.00000  Uiso   1.00
N730   N     0.83335   0.83334   0.38093   0.00000  Uiso   1.00
C731   C     0.67862   0.83328   0.48162   0.00000  Uiso   1.00
C732   C     0.98804   0.83338   0.51839   0.00000  Uiso   1.00
H733   H     0.99123   0.83320   0.44677   0.00000  Uiso   1.00
H734   H     0.67543   0.83347   0.55323   0.00000  Uiso   1.00
C735   C     0.84648   0.68785   0.46214   0.00000  Uiso   1.00
C736   C     0.82019   0.97881   0.53786   0.00000  Uiso   1.00
H737   H     0.85716   0.70403   0.43288   0.00000  Uiso   1.00
H738   H     0.80951   0.96264   0.56712   0.00000  Uiso   1.00
C739   C     0.84681   0.97853   0.46235   0.00000  Uiso   1.00
C740   C     0.81986   0.68814   0.53765   0.00000  Uiso   1.00
H741   H     0.85767   0.96214   0.43318   0.00000  Uiso   1.00
H742   H     0.80900   0.70453   0.56682   0.00000  Uiso   1.00
C743   C     0.83362   0.95750   0.50020   0.00000  Uiso   1.00
C744   C     0.83305   0.70917   0.49980   0.00000  Uiso   1.00
C745   C     0.87264   0.85261   0.36292   0.00000  Uiso   1.00
C746   C     0.79403   0.81405   0.63709   0.00000  Uiso   1.00
H747   H     0.90380   0.86830   0.38552   0.00000  Uiso   1.00
H748   H     0.76287   0.79835   0.61449   0.00000  Uiso   1.00
C749   C     0.87275   0.85291   0.64844   0.00000  Uiso   1.00
C750   C     0.79393   0.81374   0.35156   0.00000  Uiso   1.00
N751   N     0.91441   0.87429   0.63135   0.00000  Uiso   1.00
O752   O     0.90516   0.90968   0.61084   0.00000  Uiso   1.00
O753   O     0.96274   0.86450   0.64647   0.00000  Uiso   1.00
N754   N     0.75234   0.79230   0.36868   0.00000  Uiso   1.00
O755   O     0.70398   0.80223   0.35383   0.00000  Uiso   1.00
O756   O     0.76162   0.75679   0.38893   0.00000  Uiso   1.00
O757   O     0.16666   0.10558   0.87154   0.00000  Uiso   1.00
O758   O     0.16667   0.22775   0.79513   0.00000  Uiso   1.00
O759   O     0.16666   0.10559   0.79510   0.00000  Uiso   1.00
O760   O     0.16667   0.22774   0.87157   0.00000  Uiso   1.00
C761   C     0.16651   0.08667   0.83320   0.00000  Uiso   1.00
C762   C     0.16683   0.24666   0.83347   0.00000  Uiso   1.00
O763   O     0.09058   0.16666   0.86261   0.00000  Uiso   1.00
O764   O     0.24275   0.16667   0.80405   0.00000  Uiso   1.00
O765   O     0.09058   0.16667   0.78617   0.00000  Uiso   1.00
O766   O     0.24275   0.16666   0.88050   0.00000  Uiso   1.00
C767   C     0.06706   0.16662   0.82135   0.00000  Uiso   1.00
C768   C     0.26628   0.16671   0.84532   0.00000  Uiso   1.00
Zn769  Zn    0.16667   0.16666   0.88437   0.00000  Uiso   1.00
Zn770  Zn    0.16667   0.16667   0.78229   0.00000  Uiso   1.00
N771   N     0.16665   0.16666   0.95240   0.00000  Uiso   1.00
N772   N     0.16668   0.16668   0.71427   0.00000  Uiso   1.00
C773   C     0.01196   0.16662   0.81495   0.00000  Uiso   1.00
C774   C     0.32138   0.16672   0.85172   0.00000  Uiso   1.00
H775   H     0.32457   0.16654   0.78010   0.00000  Uiso   1.00
H776   H     0.00877   0.16680   0.88657   0.00000  Uiso   1.00
C777   C     0.17982   0.02119   0.79547   0.00000  Uiso   1.00
C778   C     0.15352   0.31215   0.87120   0.00000  Uiso   1.00
H779   H     0.19050   0.03736   0.76622   0.00000  Uiso   1.00
H780   H     0.14284   0.29597   0.90045   0.00000  Uiso   1.00
C781   C     0.18014   0.31186   0.79568   0.00000  Uiso   1.00
C782   C     0.15320   0.02147   0.87099   0.00000  Uiso   1.00
H783   H     0.19101   0.29547   0.76651   0.00000  Uiso   1.00
H784   H     0.14233   0.03786   0.90015   0.00000  Uiso   1.00
C785   C     0.16695   0.29083   0.83353   0.00000  Uiso   1.00
C786   C     0.16638   0.04250   0.83313   0.00000  Uiso   1.00
C787   C     0.20597   0.18595   0.69625   0.00000  Uiso   1.00
C788   C     0.12736   0.14738   0.97042   0.00000  Uiso   1.00
H789   H     0.23714   0.20164   0.71886   0.00000  Uiso   1.00
H790   H     0.09620   0.13168   0.94782   0.00000  Uiso   1.00
C791   C     0.20608   0.18624   0.98178   0.00000  Uiso   1.00
C792   C     0.12727   0.14708   0.68490   0.00000  Uiso   1.00
N793   N     0.24774   0.20763   0.96469   0.00000  Uiso   1.00
O794   O     0.23849   0.24301   0.94418   0.00000  Uiso   1.00
O795   O     0.29608   0.19783   0.97981   0.00000  Uiso   1.00
N796   N     0.08567   0.12563   0.70201   0.00000  Uiso   1.00
O797   O     0.03732   0.13557   0.68716   0.00000  Uiso   1.00
O798   O     0.09495   0.09012   0.72226   0.00000  Uiso   1.00
O799   O     0.50000   0.10558   0.87154   0.00000  Uiso   1.00
O800   O     0.50000   0.22775   0.79513   0.00000  Uiso   1.00
O801   O     0.50000   0.10559   0.79510   0.00000  Uiso   1.00
O802   O     0.50000   0.22774   0.87157   0.00000  Uiso   1.00
C803   C     0.49984   0.08667   0.83320   0.00000  Uiso   1.00
C804   C     0.50016   0.24666   0.83347   0.00000  Uiso   1.00
O805   O     0.42392   0.16666   0.86261   0.00000  Uiso   1.00
O806   O     0.57608   0.16667   0.80405   0.00000  Uiso   1.00
O807   O     0.42392   0.16667   0.78617   0.00000  Uiso   1.00
O808   O     0.57608   0.16666   0.88050   0.00000  Uiso   1.00
C809   C     0.40039   0.16662   0.82135   0.00000  Uiso   1.00
C810   C     0.59961   0.16671   0.84532   0.00000  Uiso   1.00
Zn811  Zn    0.50000   0.16666   0.88437   0.00000  Uiso   1.00
Zn812  Zn    0.50000   0.16667   0.78229   0.00000  Uiso   1.00
N813   N     0.49999   0.16666   0.95240   0.00000  Uiso   1.00
N814   N     0.50001   0.16668   0.71427   0.00000  Uiso   1.00
C815   C     0.34529   0.16662   0.81495   0.00000  Uiso   1.00
C816   C     0.65471   0.16672   0.85172   0.00000  Uiso   1.00
H817   H     0.65790   0.16654   0.78010   0.00000  Uiso   1.00
H818   H     0.34210   0.16680   0.88657   0.00000  Uiso   1.00
C819   C     0.51315   0.02119   0.79547   0.00000  Uiso   1.00
C820   C     0.48685   0.31215   0.87120   0.00000  Uiso   1.00
H821   H     0.52383   0.03736   0.76622   0.00000  Uiso   1.00
H822   H     0.47617   0.29597   0.90045   0.00000  Uiso   1.00
C823   C     0.51347   0.31186   0.79568   0.00000  Uiso   1.00
C824   C     0.48653   0.02147   0.87099   0.00000  Uiso   1.00
H825   H     0.52434   0.29547   0.76651   0.00000  Uiso   1.00
H826   H     0.47566   0.03786   0.90015   0.00000  Uiso   1.00
C827   C     0.50028   0.29083   0.83353   0.00000  Uiso   1.00
C828   C     0.49972   0.04250   0.83313   0.00000  Uiso   1.00
C829   C     0.53930   0.18595   0.69625   0.00000  Uiso   1.00
C830   C     0.46070   0.14738   0.97042   0.00000  Uiso   1.00
H831   H     0.57047   0.20164   0.71886   0.00000  Uiso   1.00
H832   H     0.42954   0.13168   0.94782   0.00000  Uiso   1.00
C833   C     0.53942   0.18624   0.98178   0.00000  Uiso   1.00
C834   C     0.46060   0.14708   0.68490   0.00000  Uiso   1.00
N835   N     0.58108   0.20763   0.96469   0.00000  Uiso   1.00
O836   O     0.57182   0.24301   0.94418   0.00000  Uiso   1.00
O837   O     0.62941   0.19783   0.97981   0.00000  Uiso   1.00
N838   N     0.41901   0.12563   0.70201   0.00000  Uiso   1.00
O839   O     0.37065   0.13557   0.68716   0.00000  Uiso   1.00
O840   O     0.42828   0.09012   0.72226   0.00000  Uiso   1.00
O841   O     0.83333   0.10558   0.87154   0.00000  Uiso   1.00
O842   O     0.83334   0.22775   0.79513   0.00000  Uiso   1.00
O843   O     0.83333   0.10559   0.79510   0.00000  Uiso   1.00
O844   O     0.83334   0.22774   0.87157   0.00000  Uiso   1.00
C845   C     0.83317   0.08667   0.83320   0.00000  Uiso   1.00
C846   C     0.83349   0.24666   0.83347   0.00000  Uiso   1.00
O847   O     0.75725   0.16666   0.86261   0.00000  Uiso   1.00
O848   O     0.90942   0.16667   0.80405   0.00000  Uiso   1.00
O849   O     0.75725   0.16667   0.78617   0.00000  Uiso   1.00
O850   O     0.90942   0.16666   0.88050   0.00000  Uiso   1.00
C851   C     0.73373   0.16662   0.82135   0.00000  Uiso   1.00
C852   C     0.93294   0.16671   0.84532   0.00000  Uiso   1.00
Zn853  Zn    0.83333   0.16666   0.88437   0.00000  Uiso   1.00
Zn854  Zn    0.83333   0.16667   0.78229   0.00000  Uiso   1.00
N855   N     0.83332   0.16666   0.95240   0.00000  Uiso   1.00
N856   N     0.83335   0.16668   0.71427   0.00000  Uiso   1.00
C857   C     0.67862   0.16662   0.81495   0.00000  Uiso   1.00
C858   C     0.98804   0.16672   0.85172   0.00000  Uiso   1.00
H859   H     0.99123   0.16654   0.78010   0.00000  Uiso   1.00
H860   H     0.67543   0.16680   0.88657   0.00000  Uiso   1.00
C861   C     0.84648   0.02119   0.79547   0.00000  Uiso   1.00
C862   C     0.82019   0.31215   0.87120   0.00000  Uiso   1.00
H863   H     0.85716   0.03736   0.76622   0.00000  Uiso   1.00
H864   H     0.80951   0.29597   0.90045   0.00000  Uiso   1.00
C865   C     0.84681   0.31186   0.79568   0.00000  Uiso   1.00
C866   C     0.81986   0.02147   0.87099   0.00000  Uiso   1.00
H867   H     0.85767   0.29547   0.76651   0.00000  Uiso   1.00
H868   H     0.80900   0.03786   0.90015   0.00000  Uiso   1.00
C869   C     0.83362   0.29083   0.83353   0.00000  Uiso   1.00
C870   C     0.83305   0.04250   0.83313   0.00000  Uiso   1.00
C871   C     0.87264   0.18595   0.69625   0.00000  Uiso   1.00
C872   C     0.79403   0.14738   0.97042   0.00000  Uiso   1.00
H873   H     0.90380   0.20164   0.71886   0.00000  Uiso   1.00
H874   H     0.76287   0.13168   0.94782   0.00000  Uiso   1.00
C875   C     0.87275   0.18624   0.98178   0.00000  Uiso   1.00
C876   C     0.79393   0.14708   0.68490   0.00000  Uiso   1.00
N877   N     0.91441   0.20763   0.96469   0.00000  Uiso   1.00
O878   O     0.90516   0.24301   0.94418   0.00000  Uiso   1.00
O879   O     0.96274   0.19783   0.97981   0.00000  Uiso   1.00
N880   N     0.75234   0.12563   0.70201   0.00000  Uiso   1.00
O881   O     0.70398   0.13557   0.68716   0.00000  Uiso   1.00
O882   O     0.76162   0.09012   0.72226   0.00000  Uiso   1.00
O883   O     0.16666   0.43892   0.87154   0.00000  Uiso   1.00
O884   O     0.16667   0.56108   0.79513   0.00000  Uiso   1.00
O885   O     0.16666   0.43893   0.79510   0.00000  Uiso   1.00
O886   O     0.16667   0.56107   0.87157   0.00000  Uiso   1.00
C887   C     0.16651   0.42001   0.83320   0.00000  Uiso   1.00
C888   C     0.16683   0.57999   0.83347   0.00000  Uiso   1.00
O889   O     0.09058   0.50000   0.86261   0.00000  Uiso   1.00
O890   O     0.24275   0.50000   0.80405   0.00000  Uiso   1.00
O891   O     0.09058   0.50000   0.78617   0.00000  Uiso   1.00
O892   O     0.24275   0.50000   0.88050   0.00000  Uiso   1.00
C893   C     0.06706   0.49996   0.82135   0.00000  Uiso   1.00
C894   C     0.26628   0.50004   0.84532   0.00000  Uiso   1.00
Zn895  Zn    0.16667   0.49999   0.88437   0.00000  Uiso   1.00
Zn896  Zn    0.16667   0.50001   0.78229   0.00000  Uiso   1.00
N897   N     0.16665   0.49999   0.95240   0.00000  Uiso   1.00
N898   N     0.16668   0.50001   0.71427   0.00000  Uiso   1.00
C899   C     0.01196   0.49995   0.81495   0.00000  Uiso   1.00
C900   C     0.32138   0.50005   0.85172   0.00000  Uiso   1.00
H901   H     0.32457   0.49987   0.78010   0.00000  Uiso   1.00
H902   H     0.00877   0.50013   0.88657   0.00000  Uiso   1.00
C903   C     0.17982   0.35452   0.79547   0.00000  Uiso   1.00
C904   C     0.15352   0.64548   0.87120   0.00000  Uiso   1.00
H905   H     0.19050   0.37069   0.76622   0.00000  Uiso   1.00
H906   H     0.14284   0.62931   0.90045   0.00000  Uiso   1.00
C907   C     0.18014   0.64520   0.79568   0.00000  Uiso   1.00
C908   C     0.15320   0.35480   0.87099   0.00000  Uiso   1.00
H909   H     0.19101   0.62881   0.76651   0.00000  Uiso   1.00
H910   H     0.14233   0.37119   0.90015   0.00000  Uiso   1.00
C911   C     0.16695   0.62416   0.83353   0.00000  Uiso   1.00
C912   C     0.16638   0.37584   0.83313   0.00000  Uiso   1.00
C913   C     0.20597   0.51928   0.69625   0.00000  Uiso   1.00
C914   C     0.12736   0.48071   0.97042   0.00000  Uiso   1.00
H915   H     0.23714   0.53497   0.71886   0.00000  Uiso   1.00
H916   H     0.09620   0.46501   0.94782   0.00000  Uiso   1.00
C917   C     0.20608   0.51957   0.98178   0.00000  Uiso   1.00
C918   C     0.12727   0.48041   0.68490   0.00000  Uiso   1.00
N919   N     0.24774   0.54096   0.96469   0.00000  Uiso   1.00
O920   O     0.23849   0.57635   0.94418   0.00000  Uiso   1.00
O921   O     0.29608   0.53117   0.97981   0.00000  Uiso   1.00
N922   N     0.08567   0.45896   0.70201   0.00000  Uiso   1.00
O923   O     0.03732   0.46890   0.68716   0.00000  Uiso   1.00
O924   O     0.09495   0.42345   0.72226   0.00000  Uiso   1.00
O925   O     0.50000   0.43892   0.87154   0.00000  Uiso   1.00
O926   O     0.50000   0.56108   0.79513   0.00000  Uiso   1.00
O927   O     0.50000   0.43893   0.79510   0.00000  Uiso   1.00
O928   O     0.50000   0.56107   0.87157   0.00000  Uiso   1.00
C929   C     0.49984   0.42001   0.83320   0.00000  Uiso   1.00
C930   C     0.50016   0.57999   0.83347   0.00000  Uiso   1.00
O931   O     0.42392   0.50000   0.86261   0.00000  Uiso   1.00
O932   O     0.57608   0.50000   0.80405   0.00000  Uiso   1.00
O933   O     0.42392   0.50000   0.78617   0.00000  Uiso   1.00
O934   O     0.57608   0.50000   0.88050   0.00000  Uiso   1.00
C935   C     0.40039   0.49996   0.82135   0.00000  Uiso   1.00
C936   C     0.59961   0.50004   0.84532   0.00000  Uiso   1.00
Zn937  Zn    0.50000   0.49999   0.88437   0.00000  Uiso   1.00
Zn938  Zn    0.50000   0.50001   0.78229   0.00000  Uiso   1.00
N939   N     0.49999   0.49999   0.95240   0.00000  Uiso   1.00
N940   N     0.50001   0.50001   0.71427   0.00000  Uiso   1.00
C941   C     0.34529   0.49995   0.81495   0.00000  Uiso   1.00
C942   C     0.65471   0.50005   0.85172   0.00000  Uiso   1.00
H943   H     0.65790   0.49987   0.78010   0.00000  Uiso   1.00
H944   H     0.34210   0.50013   0.88657   0.00000  Uiso   1.00
C945   C     0.51315   0.35452   0.79547   0.00000  Uiso   1.00
C946   C     0.48685   0.64548   0.87120   0.00000  Uiso   1.00
H947   H     0.52383   0.37069   0.76622   0.00000  Uiso   1.00
H948   H     0.47617   0.62931   0.90045   0.00000  Uiso   1.00
C949   C     0.51347   0.64520   0.79568   0.00000  Uiso   1.00
C950   C     0.48653   0.35480   0.87099   0.00000  Uiso   1.00
H951   H     0.52434   0.62881   0.76651   0.00000  Uiso   1.00
H952   H     0.47566   0.37119   0.90015   0.00000  Uiso   1.00
C953   C     0.50028   0.62416   0.83353   0.00000  Uiso   1.00
C954   C     0.49972   0.37584   0.83313   0.00000  Uiso   1.00
C955   C     0.53930   0.51928   0.69625   0.00000  Uiso   1.00
C956   C     0.46070   0.48071   0.97042   0.00000  Uiso   1.00
H957   H     0.57047   0.53497   0.71886   0.00000  Uiso   1.00
H958   H     0.42954   0.46501   0.94782   0.00000  Uiso   1.00
C959   C     0.53942   0.51957   0.98178   0.00000  Uiso   1.00
C960   C     0.46060   0.48041   0.68490   0.00000  Uiso   1.00
N961   N     0.58108   0.54096   0.96469   0.00000  Uiso   1.00
O962   O     0.57182   0.57635   0.94418   0.00000  Uiso   1.00
O963   O     0.62941   0.53117   0.97981   0.00000  Uiso   1.00
N964   N     0.41901   0.45896   0.70201   0.00000  Uiso   1.00
O965   O     0.37065   0.46890   0.68716   0.00000  Uiso   1.00
O966   O     0.42828   0.42345   0.72226   0.00000  Uiso   1.00
O967   O     0.83333   0.43892   0.87154   0.00000  Uiso   1.00
O968   O     0.83334   0.56108   0.79513   0.00000  Uiso   1.00
O969   O     0.83333   0.43893   0.79510   0.00000  Uiso   1.00
O970   O     0.83334   0.56107   0.87157   0.00000  Uiso   1.00
C971   C     0.83317   0.42001   0.83320   0.00000  Uiso   1.00
C972   C     0.83349   0.57999   0.83347   0.00000  Uiso   1.00
O973   O     0.75725   0.50000   0.86261   0.00000  Uiso   1.00
O974   O     0.90942   0.50000   0.80405   0.00000  Uiso   1.00
O975   O     0.75725   0.50000   0.78617   0.00000  Uiso   1.00
O976   O     0.90942   0.50000   0.88050   0.00000  Uiso   1.00
C977   C     0.73373   0.49996   0.82135   0.00000  Uiso   1.00
C978   C     0.93294   0.50004   0.84532   0.00000  Uiso   1.00
Zn979  Zn    0.83333   0.49999   0.88437   0.00000  Uiso   1.00
Zn980  Zn    0.83333   0.50001   0.78229   0.00000  Uiso   1.00
N981   N     0.83332   0.49999   0.95240   0.00000  Uiso   1.00
N982   N     0.83335   0.50001   0.71427   0.00000  Uiso   1.00
C983   C     0.67862   0.49995   0.81495   0.00000  Uiso   1.00
C984   C     0.98804   0.50005   0.85172   0.00000  Uiso   1.00
H985   H     0.99123   0.49987   0.78010   0.00000  Uiso   1.00
H986   H     0.67543   0.50013   0.88657   0.00000  Uiso   1.00
C987   C     0.84648   0.35452   0.79547   0.00000  Uiso   1.00
C988   C     0.82019   0.64548   0.87120   0.00000  Uiso   1.00
H989   H     0.85716   0.37069   0.76622   0.00000  Uiso   1.00
H990   H     0.80951   0.62931   0.90045   0.00000  Uiso   1.00
C991   C     0.84681   0.64520   0.79568   0.00000  Uiso   1.00
C992   C     0.81986   0.35480   0.87099   0.00000  Uiso   1.00
H993   H     0.85767   0.62881   0.76651   0.00000  Uiso   1.00
H994   H     0.80900   0.37119   0.90015   0.00000  Uiso   1.00
C995   C     0.83362   0.62416   0.83353   0.00000  Uiso   1.00
C996   C     0.83305   0.37584   0.83313   0.00000  Uiso   1.00
C997   C     0.87264   0.51928   0.69625   0.00000  Uiso   1.00
C998   C     0.79403   0.48071   0.97042   0.00000  Uiso   1.00
H999   H     0.90380   0.53497   0.71886   0.00000  Uiso   1.00
H1000  H     0.76287   0.46501   0.94782   0.00000  Uiso   1.00
C1001  C     0.87275   0.51957   0.98178   0.00000  Uiso   1.00
C1002  C     0.79393   0.48041   0.68490   0.00000  Uiso   1.00
N1003  N     0.91441   0.54096   0.96469   0.00000  Uiso   1.00
O1004  O     0.90516   0.57635   0.94418   0.00000  Uiso   1.00
O1005  O     0.96274   0.53117   0.97981   0.00000  Uiso   1.00
N1006  N     0.75234   0.45896   0.70201   0.00000  Uiso   1.00
O1007  O     0.70398   0.46890   0.68716   0.00000  Uiso   1.00
O1008  O     0.76162   0.42345   0.72226   0.00000  Uiso   1.00
O1009  O     0.16666   0.77225   0.87154   0.00000  Uiso   1.00
O1010  O     0.16667   0.89442   0.79513   0.00000  Uiso   1.00
O1011  O     0.16666   0.77226   0.79510   0.00000  Uiso   1.00
O1012  O     0.16667   0.89441   0.87157   0.00000  Uiso   1.00
C1013  C     0.16651   0.75334   0.83320   0.00000  Uiso   1.00
C1014  C     0.16683   0.91333   0.83347   0.00000  Uiso   1.00
O1015  O     0.09058   0.83333   0.86261   0.00000  Uiso   1.00
O1016  O     0.24275   0.83334   0.80405   0.00000  Uiso   1.00
O1017  O     0.09058   0.83334   0.78617   0.00000  Uiso   1.00
O1018  O     0.24275   0.83333   0.88050   0.00000  Uiso   1.00
C1019  C     0.06706   0.83329   0.82135   0.00000  Uiso   1.00
C1020  C     0.26628   0.83338   0.84532   0.00000  Uiso   1.00
Zn1021 Zn    0.16667   0.83333   0.88437   0.00000  Uiso   1.00
Zn1022 Zn    0.16667   0.83334   0.78229   0.00000  Uiso   1.00
N1023  N     0.16665   0.83332   0.95240   0.00000  Uiso   1.00
N1024  N     0.16668   0.83334   0.71427   0.00000  Uiso   1.00
C1025  C     0.01196   0.83328   0.81495   0.00000  Uiso   1.00
C1026  C     0.32138   0.83338   0.85172   0.00000  Uiso   1.00
H1027  H     0.32457   0.83320   0.78010   0.00000  Uiso   1.00
H1028  H     0.00877   0.83347   0.88657   0.00000  Uiso   1.00
C1029  C     0.17982   0.68785   0.79547   0.00000  Uiso   1.00
C1030  C     0.15352   0.97881   0.87120   0.00000  Uiso   1.00
H1031  H     0.19050   0.70403   0.76622   0.00000  Uiso   1.00
H1032  H     0.14284   0.96264   0.90045   0.00000  Uiso   1.00
C1033  C     0.18014   0.97853   0.79568   0.00000  Uiso   1.00
C1034  C     0.15320   0.68814   0.87099   0.00000  Uiso   1.00
H1035  H     0.19101   0.96214   0.76651   0.00000  Uiso   1.00
H1036  H     0.14233   0.70453   0.90015   0.00000  Uiso   1.00
C1037  C     0.16695   0.95750   0.83353   0.00000  Uiso   1.00
C1038  C     0.16638   0.70917   0.83313   0.00000  Uiso   1.00
C1039  C     0.20597   0.85261   0.69625   0.00000  Uiso   1.00
C1040  C     0.12736   0.81405   0.97042   0.00000  Uiso   1.00
H1041  H     0.23714   0.86830   0.71886   0.00000  Uiso   1.00
H1042  H     0.09620   0.79835   0.94782   0.00000  Uiso   1.00
C1043  C     0.20608   0.85291   0.98178   0.00000  Uiso   1.00
C1044  C     0.12727   0.81374   0.68490   0.00000  Uiso   1.00
N1045  N     0.24774   0.87429   0.96469   0.00000  Uiso   1.00
O1046  O     0.23849   0.90968   0.94418   0.00000  Uiso   1.00
O1047  O     0.29608   0.86450   0.97981   0.00000  Uiso   1.00
N1048  N     0.08567   0.79230   0.70201   0.00000  Uiso   1.00
O1049  O     0.03732   0.80223   0.68716   0.00000  Uiso   1.00
O1050  O     0.09495   0.75679   0.72226   0.00000  Uiso   1.00
O1051  O     0.50000   0.77225   0.87154   0.00000  Uiso   1.00
O1052  O     0.50000   0.89442   0.79513   0.00000  Uiso   1.00
O1053  O     0.50000   0.77226   0.79510   0.00000  Uiso   1.00
O1054  O     0.50000   0.89441   0.87157   0.00000  Uiso   1.00
C1055  C     0.49984   0.75334   0.83320   0.00000  Uiso   1.00
C1056  C     0.50016   0.91333   0.83347   0.00000  Uiso   1.00
O1057  O     0.42392   0.83333   0.86261   0.00000  Uiso   1.00
O1058  O     0.57608   0.83334   0.80405   0.00000  Uiso   1.00
O1059  O     0.42392   0.83334   0.78617   0.00000  Uiso   1.00
O1060  O     0.57608   0.83333   0.88050   0.00000  Uiso   1.00
C1061  C     0.40039   0.83329   0.82135   0.00000  Uiso   1.00
C1062  C     0.59961   0.83338   0.84532   0.00000  Uiso   1.00
Zn1063 Zn    0.50000   0.83333   0.88437   0.00000  Uiso   1.00
Zn1064 Zn    0.50000   0.83334   0.78229   0.00000  Uiso   1.00
N1065  N     0.49999   0.83332   0.95240   0.00000  Uiso   1.00
N1066  N     0.50001   0.83334   0.71427   0.00000  Uiso   1.00
C1067  C     0.34529   0.83328   0.81495   0.00000  Uiso   1.00
C1068  C     0.65471   0.83338   0.85172   0.00000  Uiso   1.00
H1069  H     0.65790   0.83320   0.78010   0.00000  Uiso   1.00
H1070  H     0.34210   0.83347   0.88657   0.00000  Uiso   1.00
C1071  C     0.51315   0.68785   0.79547   0.00000  Uiso   1.00
C1072  C     0.48685   0.97881   0.87120   0.00000  Uiso   1.00
H1073  H     0.52383   0.70403   0.76622   0.00000  Uiso   1.00
H1074  H     0.47617   0.96264   0.90045   0.00000  Uiso   1.00
C1075  C     0.51347   0.97853   0.79568   0.00000  Uiso   1.00
C1076  C     0.48653   0.68814   0.87099   0.00000  Uiso   1.00
H1077  H     0.52434   0.96214   0.76651   0.00000  Uiso   1.00
H1078  H     0.47566   0.70453   0.90015   0.00000  Uiso   1.00
C1079  C     0.50028   0.95750   0.83353   0.00000  Uiso   1.00
C1080  C     0.49972   0.70917   0.83313   0.00000  Uiso   1.00
C1081  C     0.53930   0.85261   0.69625   0.00000  Uiso   1.00
C1082  C     0.46070   0.81405   0.97042   0.00000  Uiso   1.00
H1083  H     0.57047   0.86830   0.71886   0.00000  Uiso   1.00
H1084  H     0.42954   0.79835   0.94782   0.00000  Uiso   1.00
C1085  C     0.53942   0.85291   0.98178   0.00000  Uiso   1.00
C1086  C     0.46060   0.81374   0.68490   0.00000  Uiso   1.00
N1087  N     0.58108   0.87429   0.96469   0.00000  Uiso   1.00
O1088  O     0.57182   0.90968   0.94418   0.00000  Uiso   1.00
O1089  O     0.62941   0.86450   0.97981   0.00000  Uiso   1.00
N1090  N     0.41901   0.79230   0.70201   0.00000  Uiso   1.00
O1091  O     0.37065   0.80223   0.68716   0.00000  Uiso   1.00
O1092  O     0.42828   0.75679   0.72226   0.00000  Uiso   1.00
O1093  O     0.83333   0.77225   0.87154   0.00000  Uiso   1.00
O1094  O     0.83334   0.89442   0.79513   0.00000  Uiso   1.00
O1095  O     0.83333   0.77226   0.79510   0.00000  Uiso   1.00
O1096  O     0.83334   0.89441   0.87157   0.00000  Uiso   1.00
C1097  C     0.83317   0.75334   0.83320   0.00000  Uiso   1.00
C1098  C     0.83349   0.91333   0.83347   0.00000  Uiso   1.00
O1099  O     0.75725   0.83333   0.86261   0.00000  Uiso   1.00
O1100  O     0.90942   0.83334   0.80405   0.00000  Uiso   1.00
O1101  O     0.75725   0.83334   0.78617   0.00000  Uiso   1.00
O1102  O     0.90942   0.83333   0.88050   0.00000  Uiso   1.00
C1103  C     0.73373   0.83329   0.82135   0.00000  Uiso   1.00
C1104  C     0.93294   0.83338   0.84532   0.00000  Uiso   1.00
Zn1105 Zn    0.83333   0.83333   0.88437   0.00000  Uiso   1.00
Zn1106 Zn    0.83333   0.83334   0.78229   0.00000  Uiso   1.00
N1107  N     0.83332   0.83332   0.95240   0.00000  Uiso   1.00
N1108  N     0.83335   0.83334   0.71427   0.00000  Uiso   1.00
C1109  C     0.67862   0.83328   0.81495   0.00000  Uiso   1.00
C1110  C     0.98804   0.83338   0.85172   0.00000  Uiso   1.00
H1111  H     0.99123   0.83320   0.78010   0.00000  Uiso   1.00
H1112  H     0.67543   0.83347   0.88657   0.00000  Uiso   1.00
C1113  C     0.84648   0.68785   0.79547   0.00000  Uiso   1.00
C1114  C     0.82019   0.97881   0.87120   0.00000  Uiso   1.00
H1115  H     0.85716   0.70403   0.76622   0.00000  Uiso   1.00
H1116  H     0.80951   0.96264   0.90045   0.00000  Uiso   1.00
C1117  C     0.84681   0.97853   0.79568   0.00000  Uiso   1.00
C1118  C     0.81986   0.68814   0.87099   0.00000  Uiso   1.00
H1119  H     0.85767   0.96214   0.76651   0.00000  Uiso   1.00
H1120  H     0.80900   0.70453   0.90015   0.00000  Uiso   1.00
C1121  C     0.83362   0.95750   0.83353   0.00000  Uiso   1.00
C1122  C     0.83305   0.70917   0.83313   0.00000  Uiso   1.00
C1123  C     0.87264   0.85261   0.69625   0.00000  Uiso   1.00
C1124  C     0.79403   0.81405   0.97042   0.00000  Uiso   1.00
H1125  H     0.90380   0.86830   0.71886   0.00000  Uiso   1.00
H1126  H     0.76287   0.79835   0.94782   0.00000  Uiso   1.00
C1127  C     0.87275   0.85291   0.98178   0.00000  Uiso   1.00
C1128  C     0.79393   0.81374   0.68490   0.00000  Uiso   1.00
N1129  N     0.91441   0.87429   0.96469   0.00000  Uiso   1.00
O1130  O     0.90516   0.90968   0.94418   0.00000  Uiso   1.00
O1131  O     0.96274   0.86450   0.97981   0.00000  Uiso   1.00
N1132  N     0.75234   0.79230   0.70201   0.00000  Uiso   1.00
O1133  O     0.70398   0.80223   0.68716   0.00000  Uiso   1.00
O1134  O     0.76162   0.75679   0.72226   0.00000  Uiso   1.00
loop_
_geom_bond_atom_site_label_1
_geom_bond_atom_site_label_2
_geom_bond_distance
_geom_bond_site_symmetry_2
_ccdc_geom_bond_type
O1     C5      1.285   .     A
O1     Zn13    1.995   .     S
O2     C6      1.285   .     A
O2     Zn14    1.995   .     S
O3     Zn14    2.000   .     S
O3     C5      1.287   .     A
O4     C6      1.287   .     A
O4     Zn13    2.000   .     S
C5     C30     1.418   .     S
C6     C29     1.418   .     S
O7     C11     1.280   .     A
O7     Zn13    1.969   .     S
O8     C12     1.280   .     A
O8     Zn14    1.969   .     S
O9     Zn14    1.982   .     S
O9     C11     1.284   .     A
O10    C12     1.284   .     A
O10    Zn13    1.982   .     S
C11    C17     1.404   .     S
C12    C18     1.404   .     S
Zn13   N15     2.017   .     S
Zn14   N16     2.017   .     S
N15    C32     1.361   .     A
N15    C35     1.377   .     A
N16    C36     1.377   .     A
N16    C31     1.361   .     A
C17    C102    1.332   1_455 S
C17    H103    1.088   1_455 S
C18    C59     1.332   .     S
C18    H62     1.088   .     S
H19    C59     1.088   .     S
H20    C102    1.088   1_455 S
C21    C30     1.396   .     A
C21    H23     1.084   .     S
C21    C277    1.370   1_545 S
C22    C29     1.396   .     A
C22    H24     1.084   .     S
C22    C152    1.370   .     S
C25    H27     1.084   .     S
C25    C29     1.398   .     A
C25    C147    1.370   .     S
C26    H28     1.084   .     S
C26    C30     1.398   .     A
C26    C274    1.370   1_545 S
C31    H33     1.082   .     S
C31    C791    1.418   1_554 S
C32    H34     1.082   .     S
C32    C414    1.418   .     S
C35    N37     1.428   .     S
C35    C409    1.418   .     S
C36    N40     1.428   .     S
C36    C788    1.418   1_554 S
N37    O38     1.299   .     A
N37    O39     1.300   .     A
N40    O41     1.300   .     A
N40    O42     1.299   .     A
O43    C47     1.285   .     A
O43    Zn55    1.995   .     S
O44    C48     1.285   .     A
O44    Zn56    1.995   .     S
O45    Zn56    2.000   .     S
O45    C47     1.287   .     A
O46    C48     1.287   .     A
O46    Zn55    2.000   .     S
C47    C72     1.418   .     S
C48    C71     1.418   .     S
O49    C53     1.280   .     A
O49    Zn55    1.969   .     S
O50    C54     1.280   .     A
O50    Zn56    1.969   .     S
O51    Zn56    1.982   .     S
O51    C53     1.284   .     A
O52    C54     1.284   .     A
O52    Zn55    1.982   .     S
C53    C59     1.404   .     S
C54    C60     1.404   .     S
Zn55   N57     2.017   .     S
Zn56   N58     2.017   .     S
N57    C74     1.361   .     A
N57    C77     1.377   .     A
N58    C78     1.377   .     A
N58    C73     1.361   .     A
C60    C101    1.332   .     S
C60    H104    1.088   .     S
H61    C101    1.088   .     S
C63    C72     1.396   .     A
C63    H65     1.084   .     S
C63    C319    1.370   1_545 S
C64    C71     1.396   .     A
C64    H66     1.084   .     S
C64    C194    1.370   .     S
C67    H69     1.084   .     S
C67    C71     1.398   .     A
C67    C189    1.370   .     S
C68    H70     1.084   .     S
C68    C72     1.398   .     A
C68    C316    1.370   1_545 S
C73    H75     1.082   .     S
C73    C833    1.418   1_554 S
C74    H76     1.082   .     S
C74    C456    1.418   .     S
C77    N79     1.428   .     S
C77    C451    1.418   .     S
C78    N82     1.428   .     S
C78    C830    1.418   1_554 S
N79    O80     1.299   .     A
N79    O81     1.300   .     A
N82    O83     1.300   .     A
N82    O84     1.299   .     A
O85    C89     1.285   .     A
O85    Zn97    1.995   .     S
O86    C90     1.285   .     A
O86    Zn98    1.995   .     S
O87    Zn98    2.000   .     S
O87    C89     1.287   .     A
O88    C90     1.287   .     A
O88    Zn97    2.000   .     S
C89    C114    1.418   .     S
C90    C113    1.418   .     S
O91    C95     1.280   .     A
O91    Zn97    1.969   .     S
O92    C96     1.280   .     A
O92    Zn98    1.969   .     S
O93    Zn98    1.982   .     S
O93    C95     1.284   .     A
O94    C96     1.284   .     A
O94    Zn97    1.982   .     S
C95    C101    1.404   .     S
C96    C102    1.404   .     S
Zn97   N99     2.017   .     S
Zn98   N100    2.017   .     S
N99    C116    1.361   .     A
N99    C119    1.377   .     A
N100   C120    1.377   .     A
N100   C115    1.361   .     A
C102   C17     1.332   1_655 S
C102   H20     1.088   1_655 S
H103   C17     1.088   1_655 S
C105   C114    1.396   .     A
C105   H107    1.084   .     S
C105   C361    1.370   1_545 S
C106   C113    1.396   .     A
C106   H108    1.084   .     S
C106   C236    1.370   .     S
C109   H111    1.084   .     S
C109   C113    1.398   .     A
C109   C231    1.370   .     S
C110   H112    1.084   .     S
C110   C114    1.398   .     A
C110   C358    1.370   1_545 S
C115   H117    1.082   .     S
C115   C875    1.418   1_554 S
C116   H118    1.082   .     S
C116   C498    1.418   .     S
C119   N121    1.428   .     S
C119   C493    1.418   .     S
C120   N124    1.428   .     S
C120   C872    1.418   1_554 S
N121   O122    1.299   .     A
N121   O123    1.300   .     A
N124   O125    1.300   .     A
N124   O126    1.299   .     A
O127   C131    1.285   .     A
O127   Zn139   1.995   .     S
O128   C132    1.285   .     A
O128   Zn140   1.995   .     S
O129   Zn140   2.000   .     S
O129   C131    1.287   .     A
O130   C132    1.287   .     A
O130   Zn139   2.000   .     S
C131   C156    1.418   .     S
C132   C155    1.418   .     S
O133   C137    1.280   .     A
O133   Zn139   1.969   .     S
O134   C138    1.280   .     A
O134   Zn140   1.969   .     S
O135   Zn140   1.982   .     S
O135   C137    1.284   .     A
O136   C138    1.284   .     A
O136   Zn139   1.982   .     S
C137   C143    1.404   .     S
C138   C144    1.404   .     S
Zn139  N141    2.017   .     S
Zn140  N142    2.017   .     S
N141   C158    1.361   .     A
N141   C161    1.377   .     A
N142   C162    1.377   .     A
N142   C157    1.361   .     A
C143   C228    1.332   1_455 S
C143   H229    1.088   1_455 S
C144   C185    1.332   .     S
C144   H188    1.088   .     S
H145   C185    1.088   .     S
H146   C228    1.088   1_455 S
C147   C156    1.396   .     A
C147   H149    1.084   .     S
C148   C155    1.396   .     A
C148   H150    1.084   .     S
C148   C278    1.370   .     S
C151   H153    1.084   .     S
C151   C155    1.398   .     A
C151   C273    1.370   .     S
C152   H154    1.084   .     S
C152   C156    1.398   .     A
C157   H159    1.082   .     S
C157   C917    1.418   1_554 S
C158   H160    1.082   .     S
C158   C540    1.418   .     S
C161   N163    1.428   .     S
C161   C535    1.418   .     S
C162   N166    1.428   .     S
C162   C914    1.418   1_554 S
N163   O164    1.299   .     A
N163   O165    1.300   .     A
N166   O167    1.300   .     A
N166   O168    1.299   .     A
O169   C173    1.285   .     A
O169   Zn181   1.995   .     S
O170   C174    1.285   .     A
O170   Zn182   1.995   .     S
O171   Zn182   2.000   .     S
O171   C173    1.287   .     A
O172   C174    1.287   .     A
O172   Zn181   2.000   .     S
C173   C198    1.418   .     S
C174   C197    1.418   .     S
O175   C179    1.280   .     A
O175   Zn181   1.969   .     S
O176   C180    1.280   .     A
O176   Zn182   1.969   .     S
O177   Zn182   1.982   .     S
O177   C179    1.284   .     A
O178   C180    1.284   .     A
O178   Zn181   1.982   .     S
C179   C185    1.404   .     S
C180   C186    1.404   .     S
Zn181  N183    2.017   .     S
Zn182  N184    2.017   .     S
N183   C200    1.361   .     A
N183   C203    1.377   .     A
N184   C204    1.377   .     A
N184   C199    1.361   .     A
C186   C227    1.332   .     S
C186   H230    1.088   .     S
H187   C227    1.088   .     S
C189   C198    1.396   .     A
C189   H191    1.084   .     S
C190   C197    1.396   .     A
C190   H192    1.084   .     S
C190   C320    1.370   .     S
C193   H195    1.084   .     S
C193   C197    1.398   .     A
C193   C315    1.370   .     S
C194   H196    1.084   .     S
C194   C198    1.398   .     A
C199   H201    1.082   .     S
C199   C959    1.418   1_554 S
C200   H202    1.082   .     S
C200   C582    1.418   .     S
C203   N205    1.428   .     S
C203   C577    1.418   .     S
C204   N208    1.428   .     S
C204   C956    1.418   1_554 S
N205   O206    1.299   .     A
N205   O207    1.300   .     A
N208   O209    1.300   .     A
N208   O210    1.299   .     A
O211   C215    1.285   .     A
O211   Zn223   1.995   .     S
O212   C216    1.285   .     A
O212   Zn224   1.995   .     S
O213   Zn224   2.000   .     S
O213   C215    1.287   .     A
O214   C216    1.287   .     A
O214   Zn223   2.000   .     S
C215   C240    1.418   .     S
C216   C239    1.418   .     S
O217   C221    1.280   .     A
O217   Zn223   1.969   .     S
O218   C222    1.280   .     A
O218   Zn224   1.969   .     S
O219   Zn224   1.982   .     S
O219   C221    1.284   .     A
O220   C222    1.284   .     A
O220   Zn223   1.982   .     S
C221   C227    1.404   .     S
C222   C228    1.404   .     S
Zn223  N225    2.017   .     S
Zn224  N226    2.017   .     S
N225   C242    1.361   .     A
N225   C245    1.377   .     A
N226   C246    1.377   .     A
N226   C241    1.361   .     A
C228   C143    1.332   1_655 S
C228   H146    1.088   1_655 S
H229   C143    1.088   1_655 S
C231   C240    1.396   .     A
C231   H233    1.084   .     S
C232   C239    1.396   .     A
C232   H234    1.084   .     S
C232   C362    1.370   .     S
C235   H237    1.084   .     S
C235   C239    1.398   .     A
C235   C357    1.370   .     S
C236   H238    1.084   .     S
C236   C240    1.398   .     A
C241   H243    1.082   .     S
C241   C1001   1.418   1_554 S
C242   H244    1.082   .     S
C242   C624    1.418   .     S
C245   N247    1.428   .     S
C245   C619    1.418   .     S
C246   N250    1.428   .     S
C246   C998    1.418   1_554 S
N247   O248    1.299   .     A
N247   O249    1.300   .     A
N250   O251    1.300   .     A
N250   O252    1.299   .     A
O253   C257    1.285   .     A
O253   Zn265   1.995   .     S
O254   C258    1.285   .     A
O254   Zn266   1.995   .     S
O255   Zn266   2.000   .     S
O255   C257    1.287   .     A
O256   C258    1.287   .     A
O256   Zn265   2.000   .     S
C257   C282    1.418   .     S
C258   C281    1.418   .     S
O259   C263    1.280   .     A
O259   Zn265   1.969   .     S
O260   C264    1.280   .     A
O260   Zn266   1.969   .     S
O261   Zn266   1.982   .     S
O261   C263    1.284   .     A
O262   C264    1.284   .     A
O262   Zn265   1.982   .     S
C263   C269    1.404   .     S
C264   C270    1.404   .     S
Zn265  N267    2.017   .     S
Zn266  N268    2.017   .     S
N267   C284    1.361   .     A
N267   C287    1.377   .     A
N268   C288    1.377   .     A
N268   C283    1.361   .     A
C269   C354    1.332   1_455 S
C269   H355    1.088   1_455 S
C270   C311    1.332   .     S
C270   H314    1.088   .     S
H271   C311    1.088   .     S
H272   C354    1.088   1_455 S
C273   C282    1.396   .     A
C273   H275    1.084   .     S
C274   C281    1.396   .     A
C274   H276    1.084   .     S
C274   C26     1.370   1_565 S
C277   H279    1.084   .     S
C277   C281    1.398   .     A
C277   C21     1.370   1_565 S
C278   H280    1.084   .     S
C278   C282    1.398   .     A
C283   H285    1.082   .     S
C283   C1043   1.418   1_554 S
C284   H286    1.082   .     S
C284   C666    1.418   .     S
C287   N289    1.428   .     S
C287   C661    1.418   .     S
C288   N292    1.428   .     S
C288   C1040   1.418   1_554 S
N289   O290    1.299   .     A
N289   O291    1.300   .     A
N292   O293    1.300   .     A
N292   O294    1.299   .     A
O295   C299    1.285   .     A
O295   Zn307   1.995   .     S
O296   C300    1.285   .     A
O296   Zn308   1.995   .     S
O297   Zn308   2.000   .     S
O297   C299    1.287   .     A
O298   C300    1.287   .     A
O298   Zn307   2.000   .     S
C299   C324    1.418   .     S
C300   C323    1.418   .     S
O301   C305    1.280   .     A
O301   Zn307   1.969   .     S
O302   C306    1.280   .     A
O302   Zn308   1.969   .     S
O303   Zn308   1.982   .     S
O303   C305    1.284   .     A
O304   C306    1.284   .     A
O304   Zn307   1.982   .     S
C305   C311    1.404   .     S
C306   C312    1.404   .     S
Zn307  N309    2.017   .     S
Zn308  N310    2.017   .     S
N309   C326    1.361   .     A
N309   C329    1.377   .     A
N310   C330    1.377   .     A
N310   C325    1.361   .     A
C312   C353    1.332   .     S
C312   H356    1.088   .     S
H313   C353    1.088   .     S
C315   C324    1.396   .     A
C315   H317    1.084   .     S
C316   C323    1.396   .     A
C316   H318    1.084   .     S
C316   C68     1.370   1_565 S
C319   H321    1.084   .     S
C319   C323    1.398   .     A
C319   C63     1.370   1_565 S
C320   H322    1.084   .     S
C320   C324    1.398   .     A
C325   H327    1.082   .     S
C325   C1085   1.418   1_554 S
C326   H328    1.082   .     S
C326   C708    1.418   .     S
C329   N331    1.428   .     S
C329   C703    1.418   .     S
C330   N334    1.428   .     S
C330   C1082   1.418   1_554 S
N331   O332    1.299   .     A
N331   O333    1.300   .     A
N334   O335    1.300   .     A
N334   O336    1.299   .     A
O337   C341    1.285   .     A
O337   Zn349   1.995   .     S
O338   C342    1.285   .     A
O338   Zn350   1.995   .     S
O339   Zn350   2.000   .     S
O339   C341    1.287   .     A
O340   C342    1.287   .     A
O340   Zn349   2.000   .     S
C341   C366    1.418   .     S
C342   C365    1.418   .     S
O343   C347    1.280   .     A
O343   Zn349   1.969   .     S
O344   C348    1.280   .     A
O344   Zn350   1.969   .     S
O345   Zn350   1.982   .     S
O345   C347    1.284   .     A
O346   C348    1.284   .     A
O346   Zn349   1.982   .     S
C347   C353    1.404   .     S
C348   C354    1.404   .     S
Zn349  N351    2.017   .     S
Zn350  N352    2.017   .     S
N351   C368    1.361   .     A
N351   C371    1.377   .     A
N352   C372    1.377   .     A
N352   C367    1.361   .     A
C354   C269    1.332   1_655 S
C354   H272    1.088   1_655 S
H355   C269    1.088   1_655 S
C357   C366    1.396   .     A
C357   H359    1.084   .     S
C358   C365    1.396   .     A
C358   H360    1.084   .     S
C358   C110    1.370   1_565 S
C361   H363    1.084   .     S
C361   C365    1.398   .     A
C361   C105    1.370   1_565 S
C362   H364    1.084   .     S
C362   C366    1.398   .     A
C367   H369    1.082   .     S
C367   C1127   1.418   1_554 S
C368   H370    1.082   .     S
C368   C750    1.418   .     S
C371   N373    1.428   .     S
C371   C745    1.418   .     S
C372   N376    1.428   .     S
C372   C1124   1.418   1_554 S
N373   O374    1.299   .     A
N373   O375    1.300   .     A
N376   O377    1.300   .     A
N376   O378    1.299   .     A
O379   C383    1.285   .     A
O379   Zn391   1.995   .     S
O380   C384    1.285   .     A
O380   Zn392   1.995   .     S
O381   Zn392   2.000   .     S
O381   C383    1.287   .     A
O382   C384    1.287   .     A
O382   Zn391   2.000   .     S
C383   C408    1.418   .     S
C384   C407    1.418   .     S
O385   C389    1.280   .     A
O385   Zn391   1.969   .     S
O386   C390    1.280   .     A
O386   Zn392   1.969   .     S
O387   Zn392   1.982   .     S
O387   C389    1.284   .     A
O388   C390    1.284   .     A
O388   Zn391   1.982   .     S
C389   C395    1.404   .     S
C390   C396    1.404   .     S
Zn391  N393    2.017   .     S
Zn392  N394    2.017   .     S
N393   C410    1.361   .     A
N393   C413    1.377   .     A
N394   C414    1.377   .     A
N394   C409    1.361   .     A
C395   C480    1.332   1_455 S
C395   H481    1.088   1_455 S
C396   C437    1.332   .     S
C396   H440    1.088   .     S
H397   C437    1.088   .     S
H398   C480    1.088   1_455 S
C399   C408    1.396   .     A
C399   H401    1.084   .     S
C399   C655    1.370   1_545 S
C400   C407    1.396   .     A
C400   H402    1.084   .     S
C400   C530    1.370   .     S
C403   H405    1.084   .     S
C403   C407    1.398   .     A
C403   C525    1.370   .     S
C404   H406    1.084   .     S
C404   C408    1.398   .     A
C404   C652    1.370   1_545 S
C409   H411    1.082   .     S
C410   H412    1.082   .     S
C410   C792    1.418   .     S
C413   N415    1.428   .     S
C413   C787    1.418   .     S
C414   N418    1.428   .     S
N415   O416    1.299   .     A
N415   O417    1.300   .     A
N418   O419    1.300   .     A
N418   O420    1.299   .     A
O421   C425    1.285   .     A
O421   Zn433   1.995   .     S
O422   C426    1.285   .     A
O422   Zn434   1.995   .     S
O423   Zn434   2.000   .     S
O423   C425    1.287   .     A
O424   C426    1.287   .     A
O424   Zn433   2.000   .     S
C425   C450    1.418   .     S
C426   C449    1.418   .     S
O427   C431    1.280   .     A
O427   Zn433   1.969   .     S
O428   C432    1.280   .     A
O428   Zn434   1.969   .     S
O429   Zn434   1.982   .     S
O429   C431    1.284   .     A
O430   C432    1.284   .     A
O430   Zn433   1.982   .     S
C431   C437    1.404   .     S
C432   C438    1.404   .     S
Zn433  N435    2.017   .     S
Zn434  N436    2.017   .     S
N435   C452    1.361   .     A
N435   C455    1.377   .     A
N436   C456    1.377   .     A
N436   C451    1.361   .     A
C438   C479    1.332   .     S
C438   H482    1.088   .     S
H439   C479    1.088   .     S
C441   C450    1.396   .     A
C441   H443    1.084   .     S
C441   C697    1.370   1_545 S
C442   C449    1.396   .     A
C442   H444    1.084   .     S
C442   C572    1.370   .     S
C445   H447    1.084   .     S
C445   C449    1.398   .     A
C445   C567    1.370   .     S
C446   H448    1.084   .     S
C446   C450    1.398   .     A
C446   C694    1.370   1_545 S
C451   H453    1.082   .     S
C452   H454    1.082   .     S
C452   C834    1.418   .     S
C455   N457    1.428   .     S
C455   C829    1.418   .     S
C456   N460    1.428   .     S
N457   O458    1.299   .     A
N457   O459    1.300   .     A
N460   O461    1.300   .     A
N460   O462    1.299   .     A
O463   C467    1.285   .     A
O463   Zn475   1.995   .     S
O464   C468    1.285   .     A
O464   Zn476   1.995   .     S
O465   Zn476   2.000   .     S
O465   C467    1.287   .     A
O466   C468    1.287   .     A
O466   Zn475   2.000   .     S
C467   C492    1.418   .     S
C468   C491    1.418   .     S
O469   C473    1.280   .     A
O469   Zn475   1.969   .     S
O470   C474    1.280   .     A
O470   Zn476   1.969   .     S
O471   Zn476   1.982   .     S
O471   C473    1.284   .     A
O472   C474    1.284   .     A
O472   Zn475   1.982   .     S
C473   C479    1.404   .     S
C474   C480    1.404   .     S
Zn475  N477    2.017   .     S
Zn476  N478    2.017   .     S
N477   C494    1.361   .     A
N477   C497    1.377   .     A
N478   C498    1.377   .     A
N478   C493    1.361   .     A
C480   C395    1.332   1_655 S
C480   H398    1.088   1_655 S
H481   C395    1.088   1_655 S
C483   C492    1.396   .     A
C483   H485    1.084   .     S
C483   C739    1.370   1_545 S
C484   C491    1.396   .     A
C484   H486    1.084   .     S
C484   C614    1.370   .     S
C487   H489    1.084   .     S
C487   C491    1.398   .     A
C487   C609    1.370   .     S
C488   H490    1.084   .     S
C488   C492    1.398   .     A
C488   C736    1.370   1_545 S
C493   H495    1.082   .     S
C494   H496    1.082   .     S
C494   C876    1.418   .     S
C497   N499    1.428   .     S
C497   C871    1.418   .     S
C498   N502    1.428   .     S
N499   O500    1.299   .     A
N499   O501    1.300   .     A
N502   O503    1.300   .     A
N502   O504    1.299   .     A
O505   C509    1.285   .     A
O505   Zn517   1.995   .     S
O506   C510    1.285   .     A
O506   Zn518   1.995   .     S
O507   Zn518   2.000   .     S
O507   C509    1.287   .     A
O508   C510    1.287   .     A
O508   Zn517   2.000   .     S
C509   C534    1.418   .     S
C510   C533    1.418   .     S
O511   C515    1.280   .     A
O511   Zn517   1.969   .     S
O512   C516    1.280   .     A
O512   Zn518   1.969   .     S
O513   Zn518   1.982   .     S
O513   C515    1.284   .     A
O514   C516    1.284   .     A
O514   Zn517   1.982   .     S
C515   C521    1.404   .     S
C516   C522    1.404   .     S
Zn517  N519    2.017   .     S
Zn518  N520    2.017   .     S
N519   C536    1.361   .     A
N519   C539    1.377   .     A
N520   C540    1.377   .     A
N520   C535    1.361   .     A
C521   C606    1.332   1_455 S
C521   H607    1.088   1_455 S
C522   C563    1.332   .     S
C522   H566    1.088   .     S
H523   C563    1.088   .     S
H524   C606    1.088   1_455 S
C525   C534    1.396   .     A
C525   H527    1.084   .     S
C526   C533    1.396   .     A
C526   H528    1.084   .     S
C526   C656    1.370   .     S
C529   H531    1.084   .     S
C529   C533    1.398   .     A
C529   C651    1.370   .     S
C530   H532    1.084   .     S
C530   C534    1.398   .     A
C535   H537    1.082   .     S
C536   H538    1.082   .     S
C536   C918    1.418   .     S
C539   N541    1.428   .     S
C539   C913    1.418   .     S
C540   N544    1.428   .     S
N541   O542    1.299   .     A
N541   O543    1.300   .     A
N544   O545    1.300   .     A
N544   O546    1.299   .     A
O547   C551    1.285   .     A
O547   Zn559   1.995   .     S
O548   C552    1.285   .     A
O548   Zn560   1.995   .     S
O549   Zn560   2.000   .     S
O549   C551    1.287   .     A
O550   C552    1.287   .     A
O550   Zn559   2.000   .     S
C551   C576    1.418   .     S
C552   C575    1.418   .     S
O553   C557    1.280   .     A
O553   Zn559   1.969   .     S
O554   C558    1.280   .     A
O554   Zn560   1.969   .     S
O555   Zn560   1.982   .     S
O555   C557    1.284   .     A
O556   C558    1.284   .     A
O556   Zn559   1.982   .     S
C557   C563    1.404   .     S
C558   C564    1.404   .     S
Zn559  N561    2.017   .     S
Zn560  N562    2.017   .     S
N561   C578    1.361   .     A
N561   C581    1.377   .     A
N562   C582    1.377   .     A
N562   C577    1.361   .     A
C564   C605    1.332   .     S
C564   H608    1.088   .     S
H565   C605    1.088   .     S
C567   C576    1.396   .     A
C567   H569    1.084   .     S
C568   C575    1.396   .     A
C568   H570    1.084   .     S
C568   C698    1.370   .     S
C571   H573    1.084   .     S
C571   C575    1.398   .     A
C571   C693    1.370   .     S
C572   H574    1.084   .     S
C572   C576    1.398   .     A
C577   H579    1.082   .     S
C578   H580    1.082   .     S
C578   C960    1.418   .     S
C581   N583    1.428   .     S
C581   C955    1.418   .     S
C582   N586    1.428   .     S
N583   O584    1.299   .     A
N583   O585    1.300   .     A
N586   O587    1.300   .     A
N586   O588    1.299   .     A
O589   C593    1.285   .     A
O589   Zn601   1.995   .     S
O590   C594    1.285   .     A
O590   Zn602   1.995   .     S
O591   Zn602   2.000   .     S
O591   C593    1.287   .     A
O592   C594    1.287   .     A
O592   Zn601   2.000   .     S
C593   C618    1.418   .     S
C594   C617    1.418   .     S
O595   C599    1.280   .     A
O595   Zn601   1.969   .     S
O596   C600    1.280   .     A
O596   Zn602   1.969   .     S
O597   Zn602   1.982   .     S
O597   C599    1.284   .     A
O598   C600    1.284   .     A
O598   Zn601   1.982   .     S
C599   C605    1.404   .     S
C600   C606    1.404   .     S
Zn601  N603    2.017   .     S
Zn602  N604    2.017   .     S
N603   C620    1.361   .     A
N603   C623    1.377   .     A
N604   C624    1.377   .     A
N604   C619    1.361   .     A
C606   C521    1.332   1_655 S
C606   H524    1.088   1_655 S
H607   C521    1.088   1_655 S
C609   C618    1.396   .     A
C609   H611    1.084   .     S
C610   C617    1.396   .     A
C610   H612    1.084   .     S
C610   C740    1.370   .     S
C613   H615    1.084   .     S
C613   C617    1.398   .     A
C613   C735    1.370   .     S
C614   H616    1.084   .     S
C614   C618    1.398   .     A
C619   H621    1.082   .     S
C620   H622    1.082   .     S
C620   C1002   1.418   .     S
C623   N625    1.428   .     S
C623   C997    1.418   .     S
C624   N628    1.428   .     S
N625   O626    1.299   .     A
N625   O627    1.300   .     A
N628   O629    1.300   .     A
N628   O630    1.299   .     A
O631   C635    1.285   .     A
O631   Zn643   1.995   .     S
O632   C636    1.285   .     A
O632   Zn644   1.995   .     S
O633   Zn644   2.000   .     S
O633   C635    1.287   .     A
O634   C636    1.287   .     A
O634   Zn643   2.000   .     S
C635   C660    1.418   .     S
C636   C659    1.418   .     S
O637   C641    1.280   .     A
O637   Zn643   1.969   .     S
O638   C642    1.280   .     A
O638   Zn644   1.969   .     S
O639   Zn644   1.982   .     S
O639   C641    1.284   .     A
O640   C642    1.284   .     A
O640   Zn643   1.982   .     S
C641   C647    1.404   .     S
C642   C648    1.404   .     S
Zn643  N645    2.017   .     S
Zn644  N646    2.017   .     S
N645   C662    1.361   .     A
N645   C665    1.377   .     A
N646   C666    1.377   .     A
N646   C661    1.361   .     A
C647   C732    1.332   1_455 S
C647   H733    1.088   1_455 S
C648   C689    1.332   .     S
C648   H692    1.088   .     S
H649   C689    1.088   .     S
H650   C732    1.088   1_455 S
C651   C660    1.396   .     A
C651   H653    1.084   .     S
C652   C659    1.396   .     A
C652   H654    1.084   .     S
C652   C404    1.370   1_565 S
C655   H657    1.084   .     S
C655   C659    1.398   .     A
C655   C399    1.370   1_565 S
C656   H658    1.084   .     S
C656   C660    1.398   .     A
C661   H663    1.082   .     S
C662   H664    1.082   .     S
C662   C1044   1.418   .     S
C665   N667    1.428   .     S
C665   C1039   1.418   .     S
C666   N670    1.428   .     S
N667   O668    1.299   .     A
N667   O669    1.300   .     A
N670   O671    1.300   .     A
N670   O672    1.299   .     A
O673   C677    1.285   .     A
O673   Zn685   1.995   .     S
O674   C678    1.285   .     A
O674   Zn686   1.995   .     S
O675   Zn686   2.000   .     S
O675   C677    1.287   .     A
O676   C678    1.287   .     A
O676   Zn685   2.000   .     S
C677   C702    1.418   .     S
C678   C701    1.418   .     S
O679   C683    1.280   .     A
O679   Zn685   1.969   .     S
O680   C684    1.280   .     A
O680   Zn686   1.969   .     S
O681   Zn686   1.982   .     S
O681   C683    1.284   .     A
O682   C684    1.284   .     A
O682   Zn685   1.982   .     S
C683   C689    1.404   .     S
C684   C690    1.404   .     S
Zn685  N687    2.017   .     S
Zn686  N688    2.017   .     S
N687   C704    1.361   .     A
N687   C707    1.377   .     A
N688   C708    1.377   .     A
N688   C703    1.361   .     A
C690   C731    1.332   .     S
C690   H734    1.088   .     S
H691   C731    1.088   .     S
C693   C702    1.396   .     A
C693   H695    1.084   .     S
C694   C701    1.396   .     A
C694   H696    1.084   .     S
C694   C446    1.370   1_565 S
C697   H699    1.084   .     S
C697   C701    1.398   .     A
C697   C441    1.370   1_565 S
C698   H700    1.084   .     S
C698   C702    1.398   .     A
C703   H705    1.082   .     S
C704   H706    1.082   .     S
C704   C1086   1.418   .     S
C707   N709    1.428   .     S
C707   C1081   1.418   .     S
C708   N712    1.428   .     S
N709   O710    1.299   .     A
N709   O711    1.300   .     A
N712   O713    1.300   .     A
N712   O714    1.299   .     A
O715   C719    1.285   .     A
O715   Zn727   1.995   .     S
O716   C720    1.285   .     A
O716   Zn728   1.995   .     S
O717   Zn728   2.000   .     S
O717   C719    1.287   .     A
O718   C720    1.287   .     A
O718   Zn727   2.000   .     S
C719   C744    1.418   .     S
C720   C743    1.418   .     S
O721   C725    1.280   .     A
O721   Zn727   1.969   .     S
O722   C726    1.280   .     A
O722   Zn728   1.969   .     S
O723   Zn728   1.982   .     S
O723   C725    1.284   .     A
O724   C726    1.284   .     A
O724   Zn727   1.982   .     S
C725   C731    1.404   .     S
C726   C732    1.404   .     S
Zn727  N729    2.017   .     S
Zn728  N730    2.017   .     S
N729   C746    1.361   .     A
N729   C749    1.377   .     A
N730   C750    1.377   .     A
N730   C745    1.361   .     A
C732   C647    1.332   1_655 S
C732   H650    1.088   1_655 S
H733   C647    1.088   1_655 S
C735   C744    1.396   .     A
C735   H737    1.084   .     S
C736   C743    1.396   .     A
C736   H738    1.084   .     S
C736   C488    1.370   1_565 S
C739   H741    1.084   .     S
C739   C743    1.398   .     A
C739   C483    1.370   1_565 S
C740   H742    1.084   .     S
C740   C744    1.398   .     A
C745   H747    1.082   .     S
C746   H748    1.082   .     S
C746   C1128   1.418   .     S
C749   N751    1.428   .     S
C749   C1123   1.418   .     S
C750   N754    1.428   .     S
N751   O752    1.299   .     A
N751   O753    1.300   .     A
N754   O755    1.300   .     A
N754   O756    1.299   .     A
O757   C761    1.285   .     A
O757   Zn769   1.995   .     S
O758   C762    1.285   .     A
O758   Zn770   1.995   .     S
O759   Zn770   2.000   .     S
O759   C761    1.287   .     A
O760   C762    1.287   .     A
O760   Zn769   2.000   .     S
C761   C786    1.418   .     S
C762   C785    1.418   .     S
O763   C767    1.280   .     A
O763   Zn769   1.969   .     S
O764   C768    1.280   .     A
O764   Zn770   1.969   .     S
O765   Zn770   1.982   .     S
O765   C767    1.284   .     A
O766   C768    1.284   .     A
O766   Zn769   1.982   .     S
C767   C773    1.404   .     S
C768   C774    1.404   .     S
Zn769  N771    2.017   .     S
Zn770  N772    2.017   .     S
N771   C788    1.361   .     A
N771   C791    1.377   .     A
N772   C792    1.377   .     A
N772   C787    1.361   .     A
C773   C858    1.332   1_455 S
C773   H859    1.088   1_455 S
C774   C815    1.332   .     S
C774   H818    1.088   .     S
H775   C815    1.088   .     S
H776   C858    1.088   1_455 S
C777   C786    1.396   .     A
C777   H779    1.084   .     S
C777   C1033   1.370   1_545 S
C778   C785    1.396   .     A
C778   H780    1.084   .     S
C778   C908    1.370   .     S
C781   H783    1.084   .     S
C781   C785    1.398   .     A
C781   C903    1.370   .     S
C782   H784    1.084   .     S
C782   C786    1.398   .     A
C782   C1030   1.370   1_545 S
C787   H789    1.082   .     S
C788   H790    1.082   .     S
C788   C36     1.418   1_556 S
C791   N793    1.428   .     S
C791   C31     1.418   1_556 S
C792   N796    1.428   .     S
N793   O794    1.299   .     A
N793   O795    1.300   .     A
N796   O797    1.300   .     A
N796   O798    1.299   .     A
O799   C803    1.285   .     A
O799   Zn811   1.995   .     S
O800   C804    1.285   .     A
O800   Zn812   1.995   .     S
O801   Zn812   2.000   .     S
O801   C803    1.287   .     A
O802   C804    1.287   .     A
O802   Zn811   2.000   .     S
C803   C828    1.418   .     S
C804   C827    1.418   .     S
O805   C809    1.280   .     A
O805   Zn811   1.969   .     S
O806   C810    1.280   .     A
O806   Zn812   1.969   .     S
O807   Zn812   1.982   .     S
O807   C809    1.284   .     A
O808   C810    1.284   .     A
O808   Zn811   1.982   .     S
C809   C815    1.404   .     S
C810   C816    1.404   .     S
Zn811  N813    2.017   .     S
Zn812  N814    2.017   .     S
N813   C830    1.361   .     A
N813   C833    1.377   .     A
N814   C834    1.377   .     A
N814   C829    1.361   .     A
C816   C857    1.332   .     S
C816   H860    1.088   .     S
H817   C857    1.088   .     S
C819   C828    1.396   .     A
C819   H821    1.084   .     S
C819   C1075   1.370   1_545 S
C820   C827    1.396   .     A
C820   H822    1.084   .     S
C820   C950    1.370   .     S
C823   H825    1.084   .     S
C823   C827    1.398   .     A
C823   C945    1.370   .     S
C824   H826    1.084   .     S
C824   C828    1.398   .     A
C824   C1072   1.370   1_545 S
C829   H831    1.082   .     S
C830   H832    1.082   .     S
C830   C78     1.418   1_556 S
C833   N835    1.428   .     S
C833   C73     1.418   1_556 S
C834   N838    1.428   .     S
N835   O836    1.299   .     A
N835   O837    1.300   .     A
N838   O839    1.300   .     A
N838   O840    1.299   .     A
O841   C845    1.285   .     A
O841   Zn853   1.995   .     S
O842   C846    1.285   .     A
O842   Zn854   1.995   .     S
O843   Zn854   2.000   .     S
O843   C845    1.287   .     A
O844   C846    1.287   .     A
O844   Zn853   2.000   .     S
C845   C870    1.418   .     S
C846   C869    1.418   .     S
O847   C851    1.280   .     A
O847   Zn853   1.969   .     S
O848   C852    1.280   .     A
O848   Zn854   1.969   .     S
O849   Zn854   1.982   .     S
O849   C851    1.284   .     A
O850   C852    1.284   .     A
O850   Zn853   1.982   .     S
C851   C857    1.404   .     S
C852   C858    1.404   .     S
Zn853  N855    2.017   .     S
Zn854  N856    2.017   .     S
N855   C872    1.361   .     A
N855   C875    1.377   .     A
N856   C876    1.377   .     A
N856   C871    1.361   .     A
C858   C773    1.332   1_655 S
C858   H776    1.088   1_655 S
H859   C773    1.088   1_655 S
C861   C870    1.396   .     A
C861   H863    1.084   .     S
C861   C1117   1.370   1_545 S
C862   C869    1.396   .     A
C862   H864    1.084   .     S
C862   C992    1.370   .     S
C865   H867    1.084   .     S
C865   C869    1.398   .     A
C865   C987    1.370   .     S
C866   H868    1.084   .     S
C866   C870    1.398   .     A
C866   C1114   1.370   1_545 S
C871   H873    1.082   .     S
C872   H874    1.082   .     S
C872   C120    1.418   1_556 S
C875   N877    1.428   .     S
C875   C115    1.418   1_556 S
C876   N880    1.428   .     S
N877   O878    1.299   .     A
N877   O879    1.300   .     A
N880   O881    1.300   .     A
N880   O882    1.299   .     A
O883   C887    1.285   .     A
O883   Zn895   1.995   .     S
O884   C888    1.285   .     A
O884   Zn896   1.995   .     S
O885   Zn896   2.000   .     S
O885   C887    1.287   .     A
O886   C888    1.287   .     A
O886   Zn895   2.000   .     S
C887   C912    1.418   .     S
C888   C911    1.418   .     S
O889   C893    1.280   .     A
O889   Zn895   1.969   .     S
O890   C894    1.280   .     A
O890   Zn896   1.969   .     S
O891   Zn896   1.982   .     S
O891   C893    1.284   .     A
O892   C894    1.284   .     A
O892   Zn895   1.982   .     S
C893   C899    1.404   .     S
C894   C900    1.404   .     S
Zn895  N897    2.017   .     S
Zn896  N898    2.017   .     S
N897   C914    1.361   .     A
N897   C917    1.377   .     A
N898   C918    1.377   .     A
N898   C913    1.361   .     A
C899   C984    1.332   1_455 S
C899   H985    1.088   1_455 S
C900   C941    1.332   .     S
C900   H944    1.088   .     S
H901   C941    1.088   .     S
H902   C984    1.088   1_455 S
C903   C912    1.396   .     A
C903   H905    1.084   .     S
C904   C911    1.396   .     A
C904   H906    1.084   .     S
C904   C1034   1.370   .     S
C907   H909    1.084   .     S
C907   C911    1.398   .     A
C907   C1029   1.370   .     S
C908   H910    1.084   .     S
C908   C912    1.398   .     A
C913   H915    1.082   .     S
C914   H916    1.082   .     S
C914   C162    1.418   1_556 S
C917   N919    1.428   .     S
C917   C157    1.418   1_556 S
C918   N922    1.428   .     S
N919   O920    1.299   .     A
N919   O921    1.300   .     A
N922   O923    1.300   .     A
N922   O924    1.299   .     A
O925   C929    1.285   .     A
O925   Zn937   1.995   .     S
O926   C930    1.285   .     A
O926   Zn938   1.995   .     S
O927   Zn938   2.000   .     S
O927   C929    1.287   .     A
O928   C930    1.287   .     A
O928   Zn937   2.000   .     S
C929   C954    1.418   .     S
C930   C953    1.418   .     S
O931   C935    1.280   .     A
O931   Zn937   1.969   .     S
O932   C936    1.280   .     A
O932   Zn938   1.969   .     S
O933   Zn938   1.982   .     S
O933   C935    1.284   .     A
O934   C936    1.284   .     A
O934   Zn937   1.982   .     S
C935   C941    1.404   .     S
C936   C942    1.404   .     S
Zn937  N939    2.017   .     S
Zn938  N940    2.017   .     S
N939   C956    1.361   .     A
N939   C959    1.377   .     A
N940   C960    1.377   .     A
N940   C955    1.361   .     A
C942   C983    1.332   .     S
C942   H986    1.088   .     S
H943   C983    1.088   .     S
C945   C954    1.396   .     A
C945   H947    1.084   .     S
C946   C953    1.396   .     A
C946   H948    1.084   .     S
C946   C1076   1.370   .     S
C949   H951    1.084   .     S
C949   C953    1.398   .     A
C949   C1071   1.370   .     S
C950   H952    1.084   .     S
C950   C954    1.398   .     A
C955   H957    1.082   .     S
C956   H958    1.082   .     S
C956   C204    1.418   1_556 S
C959   N961    1.428   .     S
C959   C199    1.418   1_556 S
C960   N964    1.428   .     S
N961   O962    1.299   .     A
N961   O963    1.300   .     A
N964   O965    1.300   .     A
N964   O966    1.299   .     A
O967   C971    1.285   .     A
O967   Zn979   1.995   .     S
O968   C972    1.285   .     A
O968   Zn980   1.995   .     S
O969   Zn980   2.000   .     S
O969   C971    1.287   .     A
O970   C972    1.287   .     A
O970   Zn979   2.000   .     S
C971   C996    1.418   .     S
C972   C995    1.418   .     S
O973   C977    1.280   .     A
O973   Zn979   1.969   .     S
O974   C978    1.280   .     A
O974   Zn980   1.969   .     S
O975   Zn980   1.982   .     S
O975   C977    1.284   .     A
O976   C978    1.284   .     A
O976   Zn979   1.982   .     S
C977   C983    1.404   .     S
C978   C984    1.404   .     S
Zn979  N981    2.017   .     S
Zn980  N982    2.017   .     S
N981   C998    1.361   .     A
N981   C1001   1.377   .     A
N982   C1002   1.377   .     A
N982   C997    1.361   .     A
C984   C899    1.332   1_655 S
C984   H902    1.088   1_655 S
H985   C899    1.088   1_655 S
C987   C996    1.396   .     A
C987   H989    1.084   .     S
C988   C995    1.396   .     A
C988   H990    1.084   .     S
C988   C1118   1.370   .     S
C991   H993    1.084   .     S
C991   C995    1.398   .     A
C991   C1113   1.370   .     S
C992   H994    1.084   .     S
C992   C996    1.398   .     A
C997   H999    1.082   .     S
C998   H1000   1.082   .     S
C998   C246    1.418   1_556 S
C1001  N1003   1.428   .     S
C1001  C241    1.418   1_556 S
C1002  N1006   1.428   .     S
N1003  O1004   1.299   .     A
N1003  O1005   1.300   .     A
N1006  O1007   1.300   .     A
N1006  O1008   1.299   .     A
O1009  C1013   1.285   .     A
O1009  Zn1021  1.995   .     S
O1010  C1014   1.285   .     A
O1010  Zn1022  1.995   .     S
O1011  Zn1022  2.000   .     S
O1011  C1013   1.287   .     A
O1012  C1014   1.287   .     A
O1012  Zn1021  2.000   .     S
C1013  C1038   1.418   .     S
C1014  C1037   1.418   .     S
O1015  C1019   1.280   .     A
O1015  Zn1021  1.969   .     S
O1016  C1020   1.280   .     A
O1016  Zn1022  1.969   .     S
O1017  Zn1022  1.982   .     S
O1017  C1019   1.284   .     A
O1018  C1020   1.284   .     A
O1018  Zn1021  1.982   .     S
C1019  C1025   1.404   .     S
C1020  C1026   1.404   .     S
Zn1021 N1023   2.017   .     S
Zn1022 N1024   2.017   .     S
N1023  C1040   1.361   .     A
N1023  C1043   1.377   .     A
N1024  C1044   1.377   .     A
N1024  C1039   1.361   .     A
C1025  C1110   1.332   1_455 S
C1025  H1111   1.088   1_455 S
C1026  C1067   1.332   .     S
C1026  H1070   1.088   .     S
H1027  C1067   1.088   .     S
H1028  C1110   1.088   1_455 S
C1029  C1038   1.396   .     A
C1029  H1031   1.084   .     S
C1030  C1037   1.396   .     A
C1030  H1032   1.084   .     S
C1030  C782    1.370   1_565 S
C1033  H1035   1.084   .     S
C1033  C1037   1.398   .     A
C1033  C777    1.370   1_565 S
C1034  H1036   1.084   .     S
C1034  C1038   1.398   .     A
C1039  H1041   1.082   .     S
C1040  H1042   1.082   .     S
C1040  C288    1.418   1_556 S
C1043  N1045   1.428   .     S
C1043  C283    1.418   1_556 S
C1044  N1048   1.428   .     S
N1045  O1046   1.299   .     A
N1045  O1047   1.300   .     A
N1048  O1049   1.300   .     A
N1048  O1050   1.299   .     A
O1051  C1055   1.285   .     A
O1051  Zn1063  1.995   .     S
O1052  C1056   1.285   .     A
O1052  Zn1064  1.995   .     S
O1053  Zn1064  2.000   .     S
O1053  C1055   1.287   .     A
O1054  C1056   1.287   .     A
O1054  Zn1063  2.000   .     S
C1055  C1080   1.418   .     S
C1056  C1079   1.418   .     S
O1057  C1061   1.280   .     A
O1057  Zn1063  1.969   .     S
O1058  C1062   1.280   .     A
O1058  Zn1064  1.969   .     S
O1059  Zn1064  1.982   .     S
O1059  C1061   1.284   .     A
O1060  C1062   1.284   .     A
O1060  Zn1063  1.982   .     S
C1061  C1067   1.404   .     S
C1062  C1068   1.404   .     S
Zn1063 N1065   2.017   .     S
Zn1064 N1066   2.017   .     S
N1065  C1082   1.361   .     A
N1065  C1085   1.377   .     A
N1066  C1086   1.377   .     A
N1066  C1081   1.361   .     A
C1068  C1109   1.332   .     S
C1068  H1112   1.088   .     S
H1069  C1109   1.088   .     S
C1071  C1080   1.396   .     A
C1071  H1073   1.084   .     S
C1072  C1079   1.396   .     A
C1072  H1074   1.084   .     S
C1072  C824    1.370   1_565 S
C1075  H1077   1.084   .     S
C1075  C1079   1.398   .     A
C1075  C819    1.370   1_565 S
C1076  H1078   1.084   .     S
C1076  C1080   1.398   .     A
C1081  H1083   1.082   .     S
C1082  H1084   1.082   .     S
C1082  C330    1.418   1_556 S
C1085  N1087   1.428   .     S
C1085  C325    1.418   1_556 S
C1086  N1090   1.428   .     S
N1087  O1088   1.299   .     A
N1087  O1089   1.300   .     A
N1090  O1091   1.300   .     A
N1090  O1092   1.299   .     A
O1093  C1097   1.285   .     A
O1093  Zn1105  1.995   .     S
O1094  C1098   1.285   .     A
O1094  Zn1106  1.995   .     S
O1095  Zn1106  2.000   .     S
O1095  C1097   1.287   .     A
O1096  C1098   1.287   .     A
O1096  Zn1105  2.000   .     S
C1097  C1122   1.418   .     S
C1098  C1121   1.418   .     S
O1099  C1103   1.280   .     A
O1099  Zn1105  1.969   .     S
O1100  C1104   1.280   .     A
O1100  Zn1106  1.969   .     S
O1101  Zn1106  1.982   .     S
O1101  C1103   1.284   .     A
O1102  C1104   1.284   .     A
O1102  Zn1105  1.982   .     S
C1103  C1109   1.404   .     S
C1104  C1110   1.404   .     S
Zn1105 N1107   2.017   .     S
Zn1106 N1108   2.017   .     S
N1107  C1124   1.361   .     A
N1107  C1127   1.377   .     A
N1108  C1128   1.377   .     A
N1108  C1123   1.361   .     A
C1110  C1025   1.332   1_655 S
C1110  H1028   1.088   1_655 S
H1111  C1025   1.088   1_655 S
C1113  C1122   1.396   .     A
C1113  H1115   1.084   .     S
C1114  C1121   1.396   .     A
C1114  H1116   1.084   .     S
C1114  C866    1.370   1_565 S
C1117  H1119   1.084   .     S
C1117  C1121   1.398   .     A
C1117  C861    1.370   1_565 S
C1118  H1120   1.084   .     S
C1118  C1122   1.398   .     A
C1123  H1125   1.082   .     S
C1124  H1126   1.082   .     S
C1124  C372    1.418   1_556 S
C1127  N1129   1.428   .     S
C1127  C367    1.418   1_556 S
C1128  N1132   1.428   .     S
N1129  O1130   1.299   .     A
N1129  O1131   1.300   .     A
N1132  O1133   1.300   .     A
N1132  O1134   1.299   .     A
