data_str_m3_o2_o10_pcu_sym.186
_audit_creation_date              2020-01-03
_audit_creation_method            'Materials Studio'
_symmetry_space_group_name_H-M    'P1'
_symmetry_Int_Tables_number       1
_symmetry_cell_setting            triclinic
loop_
_symmetry_equiv_pos_as_xyz
  x,y,z
_cell_length_a                    25.7791
_cell_length_b                    29.9768
_cell_length_c                    28.3885
_cell_angle_alpha                 89.6977
_cell_angle_beta                  98.5044
_cell_angle_gamma                 90.1896
loop_
_atom_site_label
_atom_site_type_symbol
_atom_site_fract_x
_atom_site_fract_y
_atom_site_fract_z
_atom_site_U_iso_or_equiv
_atom_site_adp_type
_atom_site_occupancy
C1     C     0.16644   0.16391   0.25006   0.00000  Uiso   1.00
C2     C     0.16646   0.33612   0.24986   0.00000  Uiso   1.00
C3     C     0.12342   0.23244   0.04719   0.00000  Uiso   1.00
C4     C     0.18489   0.28772   0.44936   0.00000  Uiso   1.00
C5     C     0.12525   0.23195   0.09703   0.00000  Uiso   1.00
C6     C     0.18554   0.28618   0.39986   0.00000  Uiso   1.00
C7     C     0.20712   0.26897   0.10716   0.00000  Uiso   1.00
C8     C     0.14678   0.21458   0.39574   0.00000  Uiso   1.00
C9     C     0.20754   0.26910   0.05770   0.00000  Uiso   1.00
C10    C     0.14663   0.21425   0.44524   0.00000  Uiso   1.00
C11    C     0.16529   0.25096   0.02649   0.00000  Uiso   1.00
C12    C     0.16551   0.25115   0.47320   0.00000  Uiso   1.00
C13    C     0.06704   0.24985   0.23758   0.00000  Uiso   1.00
C14    C     0.26630   0.24995   0.26243   0.00000  Uiso   1.00
C15    C     0.01206   0.24946   0.23088   0.00000  Uiso   1.00
C16    C     0.32130   0.24996   0.26916   0.00000  Uiso   1.00
C17    C     0.13746   0.04744   0.28311   0.00000  Uiso   1.00
C18    C     0.14108   0.45254   0.20735   0.00000  Uiso   1.00
C19    C     0.14019   0.09347   0.28388   0.00000  Uiso   1.00
C20    C     0.14380   0.40651   0.20757   0.00000  Uiso   1.00
C21    C     0.16468   0.11602   0.24991   0.00000  Uiso   1.00
C22    C     0.16468   0.38405   0.24941   0.00000  Uiso   1.00
C23    C     0.18647   0.09270   0.21511   0.00000  Uiso   1.00
C24    C     0.18293   0.40753   0.29104   0.00000  Uiso   1.00
C25    C     0.18443   0.04668   0.21470   0.00000  Uiso   1.00
C26    C     0.18089   0.45354   0.29069   0.00000  Uiso   1.00
C27    C     0.15990   0.02409   0.24861   0.00000  Uiso   1.00
C28    C     0.15991   0.47600   0.24893   0.00000  Uiso   1.00
H29    H     0.32491   0.24873   0.19455   0.00000  Uiso   1.00
H30    H     0.00850   0.25052   0.30551   0.00000  Uiso   1.00
H31    H     0.20569   0.11000   0.18884   0.00000  Uiso   1.00
H32    H     0.19942   0.39040   0.32350   0.00000  Uiso   1.00
H33    H     0.20254   0.02865   0.18845   0.00000  Uiso   1.00
H34    H     0.19625   0.47167   0.32268   0.00000  Uiso   1.00
H35    H     0.09299   0.21756   0.11236   0.00000  Uiso   1.00
H36    H     0.20069   0.31438   0.38222   0.00000  Uiso   1.00
N37    N     0.16667   0.24999   0.12624   0.00000  Uiso   1.00
N38    N     0.16667   0.25001   0.37377   0.00000  Uiso   1.00
O39    O     0.16667   0.18453   0.28974   0.00000  Uiso   1.00
O40    O     0.16666   0.31546   0.21026   0.00000  Uiso   1.00
O41    O     0.16667   0.18453   0.21026   0.00000  Uiso   1.00
O42    O     0.16666   0.31547   0.28974   0.00000  Uiso   1.00
O43    O     0.09058   0.25000   0.28045   0.00000  Uiso   1.00
O44    O     0.24275   0.25000   0.21956   0.00000  Uiso   1.00
O45    O     0.09058   0.24999   0.20097   0.00000  Uiso   1.00
O46    O     0.24275   0.25000   0.29904   0.00000  Uiso   1.00
Zn47   Zn    0.16667   0.25000   0.30307   0.00000  Uiso   1.00
Zn48   Zn    0.16667   0.24999   0.19693   0.00000  Uiso   1.00
F49    F     0.11256   0.02573   0.31547   0.00000  Uiso   1.00
F50    F     0.11967   0.47413   0.16698   0.00000  Uiso   1.00
H51    H     0.12241   0.11145   0.31033   0.00000  Uiso   1.00
H52    H     0.12893   0.38846   0.17540   0.00000  Uiso   1.00
F53    F     0.08011   0.21610   0.01963   0.00000  Uiso   1.00
F54    F     0.20168   0.32542   0.47322   0.00000  Uiso   1.00
F55    F     0.24730   0.28850   0.13591   0.00000  Uiso   1.00
F56    F     0.12635   0.17924   0.36982   0.00000  Uiso   1.00
H57    H     0.24116   0.28309   0.04412   0.00000  Uiso   1.00
H58    H     0.13215   0.18491   0.46150   0.00000  Uiso   1.00
C59    C     0.49977   0.16391   0.25006   0.00000  Uiso   1.00
C60    C     0.49979   0.33612   0.24986   0.00000  Uiso   1.00
C61    C     0.45676   0.23244   0.04719   0.00000  Uiso   1.00
C62    C     0.51823   0.28772   0.44936   0.00000  Uiso   1.00
C63    C     0.45859   0.23195   0.09703   0.00000  Uiso   1.00
C64    C     0.51887   0.28618   0.39986   0.00000  Uiso   1.00
C65    C     0.54045   0.26897   0.10716   0.00000  Uiso   1.00
C66    C     0.48011   0.21458   0.39574   0.00000  Uiso   1.00
C67    C     0.54087   0.26910   0.05770   0.00000  Uiso   1.00
C68    C     0.47997   0.21425   0.44524   0.00000  Uiso   1.00
C69    C     0.49863   0.25096   0.02649   0.00000  Uiso   1.00
C70    C     0.49884   0.25115   0.47320   0.00000  Uiso   1.00
C71    C     0.40038   0.24985   0.23758   0.00000  Uiso   1.00
C72    C     0.59963   0.24995   0.26243   0.00000  Uiso   1.00
C73    C     0.34539   0.24946   0.23088   0.00000  Uiso   1.00
C74    C     0.65464   0.24996   0.26916   0.00000  Uiso   1.00
C75    C     0.47080   0.04744   0.28311   0.00000  Uiso   1.00
C76    C     0.47441   0.45254   0.20735   0.00000  Uiso   1.00
C77    C     0.47352   0.09347   0.28388   0.00000  Uiso   1.00
C78    C     0.47713   0.40651   0.20757   0.00000  Uiso   1.00
C79    C     0.49802   0.11602   0.24991   0.00000  Uiso   1.00
C80    C     0.49801   0.38405   0.24941   0.00000  Uiso   1.00
C81    C     0.51980   0.09270   0.21511   0.00000  Uiso   1.00
C82    C     0.51627   0.40753   0.29104   0.00000  Uiso   1.00
C83    C     0.51777   0.04668   0.21470   0.00000  Uiso   1.00
C84    C     0.51422   0.45354   0.29069   0.00000  Uiso   1.00
C85    C     0.49324   0.02409   0.24861   0.00000  Uiso   1.00
C86    C     0.49324   0.47600   0.24893   0.00000  Uiso   1.00
H87    H     0.65824   0.24873   0.19455   0.00000  Uiso   1.00
H88    H     0.34184   0.25052   0.30551   0.00000  Uiso   1.00
H89    H     0.53902   0.11000   0.18884   0.00000  Uiso   1.00
H90    H     0.53275   0.39040   0.32350   0.00000  Uiso   1.00
H91    H     0.53587   0.02865   0.18845   0.00000  Uiso   1.00
H92    H     0.52959   0.47167   0.32268   0.00000  Uiso   1.00
H93    H     0.42633   0.21756   0.11236   0.00000  Uiso   1.00
H94    H     0.53402   0.31438   0.38222   0.00000  Uiso   1.00
N95    N     0.50000   0.24999   0.12624   0.00000  Uiso   1.00
N96    N     0.50000   0.25001   0.37377   0.00000  Uiso   1.00
O97    O     0.50000   0.18453   0.28974   0.00000  Uiso   1.00
O98    O     0.50000   0.31546   0.21026   0.00000  Uiso   1.00
O99    O     0.50000   0.18453   0.21026   0.00000  Uiso   1.00
O100   O     0.50000   0.31547   0.28974   0.00000  Uiso   1.00
O101   O     0.42392   0.25000   0.28045   0.00000  Uiso   1.00
O102   O     0.57608   0.25000   0.21956   0.00000  Uiso   1.00
O103   O     0.42392   0.24999   0.20097   0.00000  Uiso   1.00
O104   O     0.57608   0.25000   0.29904   0.00000  Uiso   1.00
Zn105  Zn    0.50000   0.25000   0.30307   0.00000  Uiso   1.00
Zn106  Zn    0.50000   0.24999   0.19693   0.00000  Uiso   1.00
F107   F     0.44590   0.02573   0.31547   0.00000  Uiso   1.00
F108   F     0.45300   0.47413   0.16698   0.00000  Uiso   1.00
H109   H     0.45575   0.11145   0.31033   0.00000  Uiso   1.00
H110   H     0.46227   0.38846   0.17540   0.00000  Uiso   1.00
F111   F     0.41344   0.21610   0.01963   0.00000  Uiso   1.00
F112   F     0.53501   0.32542   0.47322   0.00000  Uiso   1.00
F113   F     0.58064   0.28850   0.13591   0.00000  Uiso   1.00
F114   F     0.45968   0.17924   0.36982   0.00000  Uiso   1.00
H115   H     0.57449   0.28309   0.04412   0.00000  Uiso   1.00
H116   H     0.46548   0.18491   0.46150   0.00000  Uiso   1.00
C117   C     0.83310   0.16391   0.25006   0.00000  Uiso   1.00
C118   C     0.83312   0.33612   0.24986   0.00000  Uiso   1.00
C119   C     0.79009   0.23244   0.04719   0.00000  Uiso   1.00
C120   C     0.85156   0.28772   0.44936   0.00000  Uiso   1.00
C121   C     0.79192   0.23195   0.09703   0.00000  Uiso   1.00
C122   C     0.85220   0.28618   0.39986   0.00000  Uiso   1.00
C123   C     0.87379   0.26897   0.10716   0.00000  Uiso   1.00
C124   C     0.81344   0.21458   0.39574   0.00000  Uiso   1.00
C125   C     0.87420   0.26910   0.05770   0.00000  Uiso   1.00
C126   C     0.81330   0.21425   0.44524   0.00000  Uiso   1.00
C127   C     0.83196   0.25096   0.02649   0.00000  Uiso   1.00
C128   C     0.83217   0.25115   0.47320   0.00000  Uiso   1.00
C129   C     0.73371   0.24985   0.23758   0.00000  Uiso   1.00
C130   C     0.93297   0.24995   0.26243   0.00000  Uiso   1.00
C131   C     0.67873   0.24946   0.23088   0.00000  Uiso   1.00
C132   C     0.98797   0.24996   0.26916   0.00000  Uiso   1.00
C133   C     0.80413   0.04744   0.28311   0.00000  Uiso   1.00
C134   C     0.80774   0.45254   0.20735   0.00000  Uiso   1.00
C135   C     0.80686   0.09347   0.28388   0.00000  Uiso   1.00
C136   C     0.81047   0.40651   0.20757   0.00000  Uiso   1.00
C137   C     0.83135   0.11602   0.24991   0.00000  Uiso   1.00
C138   C     0.83134   0.38405   0.24941   0.00000  Uiso   1.00
C139   C     0.85314   0.09270   0.21511   0.00000  Uiso   1.00
C140   C     0.84960   0.40753   0.29104   0.00000  Uiso   1.00
C141   C     0.85110   0.04668   0.21470   0.00000  Uiso   1.00
C142   C     0.84755   0.45354   0.29069   0.00000  Uiso   1.00
C143   C     0.82657   0.02409   0.24861   0.00000  Uiso   1.00
C144   C     0.82658   0.47600   0.24893   0.00000  Uiso   1.00
H145   H     0.99157   0.24873   0.19455   0.00000  Uiso   1.00
H146   H     0.67517   0.25052   0.30551   0.00000  Uiso   1.00
H147   H     0.87236   0.11000   0.18884   0.00000  Uiso   1.00
H148   H     0.86608   0.39040   0.32350   0.00000  Uiso   1.00
H149   H     0.86920   0.02865   0.18845   0.00000  Uiso   1.00
H150   H     0.86292   0.47167   0.32268   0.00000  Uiso   1.00
H151   H     0.75966   0.21756   0.11236   0.00000  Uiso   1.00
H152   H     0.86735   0.31438   0.38222   0.00000  Uiso   1.00
N153   N     0.83333   0.24999   0.12624   0.00000  Uiso   1.00
N154   N     0.83333   0.25001   0.37377   0.00000  Uiso   1.00
O155   O     0.83334   0.18453   0.28974   0.00000  Uiso   1.00
O156   O     0.83333   0.31546   0.21026   0.00000  Uiso   1.00
O157   O     0.83334   0.18453   0.21026   0.00000  Uiso   1.00
O158   O     0.83333   0.31547   0.28974   0.00000  Uiso   1.00
O159   O     0.75725   0.25000   0.28045   0.00000  Uiso   1.00
O160   O     0.90942   0.25000   0.21956   0.00000  Uiso   1.00
O161   O     0.75725   0.24999   0.20097   0.00000  Uiso   1.00
O162   O     0.90942   0.25000   0.29904   0.00000  Uiso   1.00
Zn163  Zn    0.83333   0.25000   0.30307   0.00000  Uiso   1.00
Zn164  Zn    0.83333   0.24999   0.19693   0.00000  Uiso   1.00
F165   F     0.77923   0.02573   0.31547   0.00000  Uiso   1.00
F166   F     0.78634   0.47413   0.16698   0.00000  Uiso   1.00
H167   H     0.78908   0.11145   0.31033   0.00000  Uiso   1.00
H168   H     0.79560   0.38846   0.17540   0.00000  Uiso   1.00
F169   F     0.74677   0.21610   0.01963   0.00000  Uiso   1.00
F170   F     0.86834   0.32542   0.47322   0.00000  Uiso   1.00
F171   F     0.91397   0.28850   0.13591   0.00000  Uiso   1.00
F172   F     0.79301   0.17924   0.36982   0.00000  Uiso   1.00
H173   H     0.90782   0.28309   0.04412   0.00000  Uiso   1.00
H174   H     0.79881   0.18491   0.46150   0.00000  Uiso   1.00
C175   C     0.16644   0.66391   0.25006   0.00000  Uiso   1.00
C176   C     0.16646   0.83612   0.24986   0.00000  Uiso   1.00
C177   C     0.12342   0.73244   0.04719   0.00000  Uiso   1.00
C178   C     0.18489   0.78772   0.44936   0.00000  Uiso   1.00
C179   C     0.12525   0.73195   0.09703   0.00000  Uiso   1.00
C180   C     0.18554   0.78618   0.39986   0.00000  Uiso   1.00
C181   C     0.20712   0.76897   0.10716   0.00000  Uiso   1.00
C182   C     0.14678   0.71458   0.39574   0.00000  Uiso   1.00
C183   C     0.20754   0.76910   0.05770   0.00000  Uiso   1.00
C184   C     0.14663   0.71425   0.44524   0.00000  Uiso   1.00
C185   C     0.16529   0.75096   0.02649   0.00000  Uiso   1.00
C186   C     0.16551   0.75115   0.47320   0.00000  Uiso   1.00
C187   C     0.06704   0.74985   0.23758   0.00000  Uiso   1.00
C188   C     0.26630   0.74995   0.26243   0.00000  Uiso   1.00
C189   C     0.01206   0.74946   0.23088   0.00000  Uiso   1.00
C190   C     0.32130   0.74996   0.26916   0.00000  Uiso   1.00
C191   C     0.13746   0.54744   0.28311   0.00000  Uiso   1.00
C192   C     0.14108   0.95254   0.20735   0.00000  Uiso   1.00
C193   C     0.14019   0.59347   0.28388   0.00000  Uiso   1.00
C194   C     0.14380   0.90651   0.20757   0.00000  Uiso   1.00
C195   C     0.16468   0.61602   0.24991   0.00000  Uiso   1.00
C196   C     0.16468   0.88405   0.24941   0.00000  Uiso   1.00
C197   C     0.18647   0.59270   0.21511   0.00000  Uiso   1.00
C198   C     0.18293   0.90753   0.29104   0.00000  Uiso   1.00
C199   C     0.18443   0.54668   0.21470   0.00000  Uiso   1.00
C200   C     0.18089   0.95354   0.29069   0.00000  Uiso   1.00
C201   C     0.15990   0.52409   0.24861   0.00000  Uiso   1.00
C202   C     0.15991   0.97600   0.24893   0.00000  Uiso   1.00
H203   H     0.32491   0.74873   0.19455   0.00000  Uiso   1.00
H204   H     0.00850   0.75052   0.30551   0.00000  Uiso   1.00
H205   H     0.20569   0.61000   0.18884   0.00000  Uiso   1.00
H206   H     0.19942   0.89040   0.32350   0.00000  Uiso   1.00
H207   H     0.20254   0.52865   0.18845   0.00000  Uiso   1.00
H208   H     0.19625   0.97167   0.32268   0.00000  Uiso   1.00
H209   H     0.09299   0.71756   0.11236   0.00000  Uiso   1.00
H210   H     0.20069   0.81438   0.38222   0.00000  Uiso   1.00
N211   N     0.16667   0.74999   0.12624   0.00000  Uiso   1.00
N212   N     0.16667   0.75001   0.37377   0.00000  Uiso   1.00
O213   O     0.16667   0.68453   0.28974   0.00000  Uiso   1.00
O214   O     0.16666   0.81546   0.21026   0.00000  Uiso   1.00
O215   O     0.16667   0.68453   0.21026   0.00000  Uiso   1.00
O216   O     0.16666   0.81547   0.28974   0.00000  Uiso   1.00
O217   O     0.09058   0.75000   0.28045   0.00000  Uiso   1.00
O218   O     0.24275   0.75000   0.21956   0.00000  Uiso   1.00
O219   O     0.09058   0.74999   0.20097   0.00000  Uiso   1.00
O220   O     0.24275   0.75000   0.29904   0.00000  Uiso   1.00
Zn221  Zn    0.16667   0.75000   0.30307   0.00000  Uiso   1.00
Zn222  Zn    0.16667   0.74999   0.19693   0.00000  Uiso   1.00
F223   F     0.11256   0.52573   0.31547   0.00000  Uiso   1.00
F224   F     0.11967   0.97413   0.16698   0.00000  Uiso   1.00
H225   H     0.12241   0.61145   0.31033   0.00000  Uiso   1.00
H226   H     0.12893   0.88846   0.17540   0.00000  Uiso   1.00
F227   F     0.08011   0.71610   0.01963   0.00000  Uiso   1.00
F228   F     0.20168   0.82542   0.47322   0.00000  Uiso   1.00
F229   F     0.24730   0.78850   0.13591   0.00000  Uiso   1.00
F230   F     0.12635   0.67924   0.36982   0.00000  Uiso   1.00
H231   H     0.24116   0.78309   0.04412   0.00000  Uiso   1.00
H232   H     0.13215   0.68491   0.46150   0.00000  Uiso   1.00
C233   C     0.49977   0.66391   0.25006   0.00000  Uiso   1.00
C234   C     0.49979   0.83612   0.24986   0.00000  Uiso   1.00
C235   C     0.45676   0.73244   0.04719   0.00000  Uiso   1.00
C236   C     0.51823   0.78772   0.44936   0.00000  Uiso   1.00
C237   C     0.45859   0.73195   0.09703   0.00000  Uiso   1.00
C238   C     0.51887   0.78618   0.39986   0.00000  Uiso   1.00
C239   C     0.54045   0.76897   0.10716   0.00000  Uiso   1.00
C240   C     0.48011   0.71458   0.39574   0.00000  Uiso   1.00
C241   C     0.54087   0.76910   0.05770   0.00000  Uiso   1.00
C242   C     0.47997   0.71425   0.44524   0.00000  Uiso   1.00
C243   C     0.49863   0.75096   0.02649   0.00000  Uiso   1.00
C244   C     0.49884   0.75115   0.47320   0.00000  Uiso   1.00
C245   C     0.40038   0.74985   0.23758   0.00000  Uiso   1.00
C246   C     0.59963   0.74995   0.26243   0.00000  Uiso   1.00
C247   C     0.34539   0.74946   0.23088   0.00000  Uiso   1.00
C248   C     0.65464   0.74996   0.26916   0.00000  Uiso   1.00
C249   C     0.47080   0.54744   0.28311   0.00000  Uiso   1.00
C250   C     0.47441   0.95254   0.20735   0.00000  Uiso   1.00
C251   C     0.47352   0.59347   0.28388   0.00000  Uiso   1.00
C252   C     0.47713   0.90651   0.20757   0.00000  Uiso   1.00
C253   C     0.49802   0.61602   0.24991   0.00000  Uiso   1.00
C254   C     0.49801   0.88405   0.24941   0.00000  Uiso   1.00
C255   C     0.51980   0.59270   0.21511   0.00000  Uiso   1.00
C256   C     0.51627   0.90753   0.29104   0.00000  Uiso   1.00
C257   C     0.51777   0.54668   0.21470   0.00000  Uiso   1.00
C258   C     0.51422   0.95354   0.29069   0.00000  Uiso   1.00
C259   C     0.49324   0.52409   0.24861   0.00000  Uiso   1.00
C260   C     0.49324   0.97600   0.24893   0.00000  Uiso   1.00
H261   H     0.65824   0.74873   0.19455   0.00000  Uiso   1.00
H262   H     0.34184   0.75052   0.30551   0.00000  Uiso   1.00
H263   H     0.53902   0.61000   0.18884   0.00000  Uiso   1.00
H264   H     0.53275   0.89040   0.32350   0.00000  Uiso   1.00
H265   H     0.53587   0.52865   0.18845   0.00000  Uiso   1.00
H266   H     0.52959   0.97167   0.32268   0.00000  Uiso   1.00
H267   H     0.42633   0.71756   0.11236   0.00000  Uiso   1.00
H268   H     0.53402   0.81438   0.38222   0.00000  Uiso   1.00
N269   N     0.50000   0.74999   0.12624   0.00000  Uiso   1.00
N270   N     0.50000   0.75001   0.37377   0.00000  Uiso   1.00
O271   O     0.50000   0.68453   0.28974   0.00000  Uiso   1.00
O272   O     0.50000   0.81546   0.21026   0.00000  Uiso   1.00
O273   O     0.50000   0.68453   0.21026   0.00000  Uiso   1.00
O274   O     0.50000   0.81547   0.28974   0.00000  Uiso   1.00
O275   O     0.42392   0.75000   0.28045   0.00000  Uiso   1.00
O276   O     0.57608   0.75000   0.21956   0.00000  Uiso   1.00
O277   O     0.42392   0.74999   0.20097   0.00000  Uiso   1.00
O278   O     0.57608   0.75000   0.29904   0.00000  Uiso   1.00
Zn279  Zn    0.50000   0.75000   0.30307   0.00000  Uiso   1.00
Zn280  Zn    0.50000   0.74999   0.19693   0.00000  Uiso   1.00
F281   F     0.44590   0.52573   0.31547   0.00000  Uiso   1.00
F282   F     0.45300   0.97413   0.16698   0.00000  Uiso   1.00
H283   H     0.45575   0.61145   0.31033   0.00000  Uiso   1.00
H284   H     0.46227   0.88846   0.17540   0.00000  Uiso   1.00
F285   F     0.41344   0.71610   0.01963   0.00000  Uiso   1.00
F286   F     0.53501   0.82542   0.47322   0.00000  Uiso   1.00
F287   F     0.58064   0.78850   0.13591   0.00000  Uiso   1.00
F288   F     0.45968   0.67924   0.36982   0.00000  Uiso   1.00
H289   H     0.57449   0.78309   0.04412   0.00000  Uiso   1.00
H290   H     0.46548   0.68491   0.46150   0.00000  Uiso   1.00
C291   C     0.83310   0.66391   0.25006   0.00000  Uiso   1.00
C292   C     0.83312   0.83612   0.24986   0.00000  Uiso   1.00
C293   C     0.79009   0.73244   0.04719   0.00000  Uiso   1.00
C294   C     0.85156   0.78772   0.44936   0.00000  Uiso   1.00
C295   C     0.79192   0.73195   0.09703   0.00000  Uiso   1.00
C296   C     0.85220   0.78618   0.39986   0.00000  Uiso   1.00
C297   C     0.87379   0.76897   0.10716   0.00000  Uiso   1.00
C298   C     0.81344   0.71458   0.39574   0.00000  Uiso   1.00
C299   C     0.87420   0.76910   0.05770   0.00000  Uiso   1.00
C300   C     0.81330   0.71425   0.44524   0.00000  Uiso   1.00
C301   C     0.83196   0.75096   0.02649   0.00000  Uiso   1.00
C302   C     0.83217   0.75115   0.47320   0.00000  Uiso   1.00
C303   C     0.73371   0.74985   0.23758   0.00000  Uiso   1.00
C304   C     0.93297   0.74995   0.26243   0.00000  Uiso   1.00
C305   C     0.67873   0.74946   0.23088   0.00000  Uiso   1.00
C306   C     0.98797   0.74996   0.26916   0.00000  Uiso   1.00
C307   C     0.80413   0.54744   0.28311   0.00000  Uiso   1.00
C308   C     0.80774   0.95254   0.20735   0.00000  Uiso   1.00
C309   C     0.80686   0.59347   0.28388   0.00000  Uiso   1.00
C310   C     0.81047   0.90651   0.20757   0.00000  Uiso   1.00
C311   C     0.83135   0.61602   0.24991   0.00000  Uiso   1.00
C312   C     0.83134   0.88405   0.24941   0.00000  Uiso   1.00
C313   C     0.85314   0.59270   0.21511   0.00000  Uiso   1.00
C314   C     0.84960   0.90753   0.29104   0.00000  Uiso   1.00
C315   C     0.85110   0.54668   0.21470   0.00000  Uiso   1.00
C316   C     0.84755   0.95354   0.29069   0.00000  Uiso   1.00
C317   C     0.82657   0.52409   0.24861   0.00000  Uiso   1.00
C318   C     0.82658   0.97600   0.24893   0.00000  Uiso   1.00
H319   H     0.99157   0.74873   0.19455   0.00000  Uiso   1.00
H320   H     0.67517   0.75052   0.30551   0.00000  Uiso   1.00
H321   H     0.87236   0.61000   0.18884   0.00000  Uiso   1.00
H322   H     0.86608   0.89040   0.32350   0.00000  Uiso   1.00
H323   H     0.86920   0.52865   0.18845   0.00000  Uiso   1.00
H324   H     0.86292   0.97167   0.32268   0.00000  Uiso   1.00
H325   H     0.75966   0.71756   0.11236   0.00000  Uiso   1.00
H326   H     0.86735   0.81438   0.38222   0.00000  Uiso   1.00
N327   N     0.83333   0.74999   0.12624   0.00000  Uiso   1.00
N328   N     0.83333   0.75001   0.37377   0.00000  Uiso   1.00
O329   O     0.83334   0.68453   0.28974   0.00000  Uiso   1.00
O330   O     0.83333   0.81546   0.21026   0.00000  Uiso   1.00
O331   O     0.83334   0.68453   0.21026   0.00000  Uiso   1.00
O332   O     0.83333   0.81547   0.28974   0.00000  Uiso   1.00
O333   O     0.75725   0.75000   0.28045   0.00000  Uiso   1.00
O334   O     0.90942   0.75000   0.21956   0.00000  Uiso   1.00
O335   O     0.75725   0.74999   0.20097   0.00000  Uiso   1.00
O336   O     0.90942   0.75000   0.29904   0.00000  Uiso   1.00
Zn337  Zn    0.83333   0.75000   0.30307   0.00000  Uiso   1.00
Zn338  Zn    0.83333   0.74999   0.19693   0.00000  Uiso   1.00
F339   F     0.77923   0.52573   0.31547   0.00000  Uiso   1.00
F340   F     0.78634   0.97413   0.16698   0.00000  Uiso   1.00
H341   H     0.78908   0.61145   0.31033   0.00000  Uiso   1.00
H342   H     0.79560   0.88846   0.17540   0.00000  Uiso   1.00
F343   F     0.74677   0.71610   0.01963   0.00000  Uiso   1.00
F344   F     0.86834   0.82542   0.47322   0.00000  Uiso   1.00
F345   F     0.91397   0.78850   0.13591   0.00000  Uiso   1.00
F346   F     0.79301   0.67924   0.36982   0.00000  Uiso   1.00
H347   H     0.90782   0.78309   0.04412   0.00000  Uiso   1.00
H348   H     0.79881   0.68491   0.46150   0.00000  Uiso   1.00
C349   C     0.16644   0.16391   0.75006   0.00000  Uiso   1.00
C350   C     0.16646   0.33612   0.74986   0.00000  Uiso   1.00
C351   C     0.12342   0.23244   0.54719   0.00000  Uiso   1.00
C352   C     0.18489   0.28772   0.94936   0.00000  Uiso   1.00
C353   C     0.12525   0.23195   0.59703   0.00000  Uiso   1.00
C354   C     0.18554   0.28618   0.89986   0.00000  Uiso   1.00
C355   C     0.20712   0.26897   0.60716   0.00000  Uiso   1.00
C356   C     0.14678   0.21458   0.89574   0.00000  Uiso   1.00
C357   C     0.20754   0.26910   0.55770   0.00000  Uiso   1.00
C358   C     0.14663   0.21425   0.94524   0.00000  Uiso   1.00
C359   C     0.16529   0.25096   0.52649   0.00000  Uiso   1.00
C360   C     0.16551   0.25115   0.97320   0.00000  Uiso   1.00
C361   C     0.06704   0.24985   0.73758   0.00000  Uiso   1.00
C362   C     0.26630   0.24995   0.76243   0.00000  Uiso   1.00
C363   C     0.01206   0.24946   0.73088   0.00000  Uiso   1.00
C364   C     0.32130   0.24996   0.76916   0.00000  Uiso   1.00
C365   C     0.13746   0.04744   0.78311   0.00000  Uiso   1.00
C366   C     0.14108   0.45254   0.70735   0.00000  Uiso   1.00
C367   C     0.14019   0.09347   0.78388   0.00000  Uiso   1.00
C368   C     0.14380   0.40651   0.70757   0.00000  Uiso   1.00
C369   C     0.16468   0.11602   0.74991   0.00000  Uiso   1.00
C370   C     0.16468   0.38405   0.74941   0.00000  Uiso   1.00
C371   C     0.18647   0.09270   0.71511   0.00000  Uiso   1.00
C372   C     0.18293   0.40753   0.79104   0.00000  Uiso   1.00
C373   C     0.18443   0.04668   0.71470   0.00000  Uiso   1.00
C374   C     0.18089   0.45354   0.79069   0.00000  Uiso   1.00
C375   C     0.15990   0.02409   0.74861   0.00000  Uiso   1.00
C376   C     0.15991   0.47600   0.74893   0.00000  Uiso   1.00
H377   H     0.32491   0.24873   0.69455   0.00000  Uiso   1.00
H378   H     0.00850   0.25052   0.80551   0.00000  Uiso   1.00
H379   H     0.20569   0.11000   0.68884   0.00000  Uiso   1.00
H380   H     0.19942   0.39040   0.82350   0.00000  Uiso   1.00
H381   H     0.20254   0.02865   0.68845   0.00000  Uiso   1.00
H382   H     0.19625   0.47167   0.82268   0.00000  Uiso   1.00
H383   H     0.09299   0.21756   0.61236   0.00000  Uiso   1.00
H384   H     0.20069   0.31438   0.88222   0.00000  Uiso   1.00
N385   N     0.16667   0.24999   0.62624   0.00000  Uiso   1.00
N386   N     0.16667   0.25001   0.87377   0.00000  Uiso   1.00
O387   O     0.16667   0.18453   0.78974   0.00000  Uiso   1.00
O388   O     0.16666   0.31546   0.71026   0.00000  Uiso   1.00
O389   O     0.16667   0.18453   0.71026   0.00000  Uiso   1.00
O390   O     0.16666   0.31547   0.78974   0.00000  Uiso   1.00
O391   O     0.09058   0.25000   0.78045   0.00000  Uiso   1.00
O392   O     0.24275   0.25000   0.71956   0.00000  Uiso   1.00
O393   O     0.09058   0.24999   0.70097   0.00000  Uiso   1.00
O394   O     0.24275   0.25000   0.79904   0.00000  Uiso   1.00
Zn395  Zn    0.16667   0.25000   0.80307   0.00000  Uiso   1.00
Zn396  Zn    0.16667   0.24999   0.69693   0.00000  Uiso   1.00
F397   F     0.11256   0.02573   0.81547   0.00000  Uiso   1.00
F398   F     0.11967   0.47413   0.66698   0.00000  Uiso   1.00
H399   H     0.12241   0.11145   0.81033   0.00000  Uiso   1.00
H400   H     0.12893   0.38846   0.67540   0.00000  Uiso   1.00
F401   F     0.08011   0.21610   0.51963   0.00000  Uiso   1.00
F402   F     0.20168   0.32542   0.97322   0.00000  Uiso   1.00
F403   F     0.24730   0.28850   0.63591   0.00000  Uiso   1.00
F404   F     0.12635   0.17924   0.86982   0.00000  Uiso   1.00
H405   H     0.24116   0.28309   0.54412   0.00000  Uiso   1.00
H406   H     0.13215   0.18491   0.96150   0.00000  Uiso   1.00
C407   C     0.49977   0.16391   0.75006   0.00000  Uiso   1.00
C408   C     0.49979   0.33612   0.74986   0.00000  Uiso   1.00
C409   C     0.45676   0.23244   0.54719   0.00000  Uiso   1.00
C410   C     0.51823   0.28772   0.94936   0.00000  Uiso   1.00
C411   C     0.45859   0.23195   0.59703   0.00000  Uiso   1.00
C412   C     0.51887   0.28618   0.89986   0.00000  Uiso   1.00
C413   C     0.54045   0.26897   0.60716   0.00000  Uiso   1.00
C414   C     0.48011   0.21458   0.89574   0.00000  Uiso   1.00
C415   C     0.54087   0.26910   0.55770   0.00000  Uiso   1.00
C416   C     0.47997   0.21425   0.94524   0.00000  Uiso   1.00
C417   C     0.49863   0.25096   0.52649   0.00000  Uiso   1.00
C418   C     0.49884   0.25115   0.97320   0.00000  Uiso   1.00
C419   C     0.40038   0.24985   0.73758   0.00000  Uiso   1.00
C420   C     0.59963   0.24995   0.76243   0.00000  Uiso   1.00
C421   C     0.34539   0.24946   0.73088   0.00000  Uiso   1.00
C422   C     0.65464   0.24996   0.76916   0.00000  Uiso   1.00
C423   C     0.47080   0.04744   0.78311   0.00000  Uiso   1.00
C424   C     0.47441   0.45254   0.70735   0.00000  Uiso   1.00
C425   C     0.47352   0.09347   0.78388   0.00000  Uiso   1.00
C426   C     0.47713   0.40651   0.70757   0.00000  Uiso   1.00
C427   C     0.49802   0.11602   0.74991   0.00000  Uiso   1.00
C428   C     0.49801   0.38405   0.74941   0.00000  Uiso   1.00
C429   C     0.51980   0.09270   0.71511   0.00000  Uiso   1.00
C430   C     0.51627   0.40753   0.79104   0.00000  Uiso   1.00
C431   C     0.51777   0.04668   0.71470   0.00000  Uiso   1.00
C432   C     0.51422   0.45354   0.79069   0.00000  Uiso   1.00
C433   C     0.49324   0.02409   0.74861   0.00000  Uiso   1.00
C434   C     0.49324   0.47600   0.74893   0.00000  Uiso   1.00
H435   H     0.65824   0.24873   0.69455   0.00000  Uiso   1.00
H436   H     0.34184   0.25052   0.80551   0.00000  Uiso   1.00
H437   H     0.53902   0.11000   0.68884   0.00000  Uiso   1.00
H438   H     0.53275   0.39040   0.82350   0.00000  Uiso   1.00
H439   H     0.53587   0.02865   0.68845   0.00000  Uiso   1.00
H440   H     0.52959   0.47167   0.82268   0.00000  Uiso   1.00
H441   H     0.42633   0.21756   0.61236   0.00000  Uiso   1.00
H442   H     0.53402   0.31438   0.88222   0.00000  Uiso   1.00
N443   N     0.50000   0.24999   0.62624   0.00000  Uiso   1.00
N444   N     0.50000   0.25001   0.87377   0.00000  Uiso   1.00
O445   O     0.50000   0.18453   0.78974   0.00000  Uiso   1.00
O446   O     0.50000   0.31546   0.71026   0.00000  Uiso   1.00
O447   O     0.50000   0.18453   0.71026   0.00000  Uiso   1.00
O448   O     0.50000   0.31547   0.78974   0.00000  Uiso   1.00
O449   O     0.42392   0.25000   0.78045   0.00000  Uiso   1.00
O450   O     0.57608   0.25000   0.71956   0.00000  Uiso   1.00
O451   O     0.42392   0.24999   0.70097   0.00000  Uiso   1.00
O452   O     0.57608   0.25000   0.79904   0.00000  Uiso   1.00
Zn453  Zn    0.50000   0.25000   0.80307   0.00000  Uiso   1.00
Zn454  Zn    0.50000   0.24999   0.69693   0.00000  Uiso   1.00
F455   F     0.44590   0.02573   0.81547   0.00000  Uiso   1.00
F456   F     0.45300   0.47413   0.66698   0.00000  Uiso   1.00
H457   H     0.45575   0.11145   0.81033   0.00000  Uiso   1.00
H458   H     0.46227   0.38846   0.67540   0.00000  Uiso   1.00
F459   F     0.41344   0.21610   0.51963   0.00000  Uiso   1.00
F460   F     0.53501   0.32542   0.97322   0.00000  Uiso   1.00
F461   F     0.58064   0.28850   0.63591   0.00000  Uiso   1.00
F462   F     0.45968   0.17924   0.86982   0.00000  Uiso   1.00
H463   H     0.57449   0.28309   0.54412   0.00000  Uiso   1.00
H464   H     0.46548   0.18491   0.96150   0.00000  Uiso   1.00
C465   C     0.83310   0.16391   0.75006   0.00000  Uiso   1.00
C466   C     0.83312   0.33612   0.74986   0.00000  Uiso   1.00
C467   C     0.79009   0.23244   0.54719   0.00000  Uiso   1.00
C468   C     0.85156   0.28772   0.94936   0.00000  Uiso   1.00
C469   C     0.79192   0.23195   0.59703   0.00000  Uiso   1.00
C470   C     0.85220   0.28618   0.89986   0.00000  Uiso   1.00
C471   C     0.87379   0.26897   0.60716   0.00000  Uiso   1.00
C472   C     0.81344   0.21458   0.89574   0.00000  Uiso   1.00
C473   C     0.87420   0.26910   0.55770   0.00000  Uiso   1.00
C474   C     0.81330   0.21425   0.94524   0.00000  Uiso   1.00
C475   C     0.83196   0.25096   0.52649   0.00000  Uiso   1.00
C476   C     0.83217   0.25115   0.97320   0.00000  Uiso   1.00
C477   C     0.73371   0.24985   0.73758   0.00000  Uiso   1.00
C478   C     0.93297   0.24995   0.76243   0.00000  Uiso   1.00
C479   C     0.67873   0.24946   0.73088   0.00000  Uiso   1.00
C480   C     0.98797   0.24996   0.76916   0.00000  Uiso   1.00
C481   C     0.80413   0.04744   0.78311   0.00000  Uiso   1.00
C482   C     0.80774   0.45254   0.70735   0.00000  Uiso   1.00
C483   C     0.80686   0.09347   0.78388   0.00000  Uiso   1.00
C484   C     0.81047   0.40651   0.70757   0.00000  Uiso   1.00
C485   C     0.83135   0.11602   0.74991   0.00000  Uiso   1.00
C486   C     0.83134   0.38405   0.74941   0.00000  Uiso   1.00
C487   C     0.85314   0.09270   0.71511   0.00000  Uiso   1.00
C488   C     0.84960   0.40753   0.79104   0.00000  Uiso   1.00
C489   C     0.85110   0.04668   0.71470   0.00000  Uiso   1.00
C490   C     0.84755   0.45354   0.79069   0.00000  Uiso   1.00
C491   C     0.82657   0.02409   0.74861   0.00000  Uiso   1.00
C492   C     0.82658   0.47600   0.74893   0.00000  Uiso   1.00
H493   H     0.99157   0.24873   0.69455   0.00000  Uiso   1.00
H494   H     0.67517   0.25052   0.80551   0.00000  Uiso   1.00
H495   H     0.87236   0.11000   0.68884   0.00000  Uiso   1.00
H496   H     0.86608   0.39040   0.82350   0.00000  Uiso   1.00
H497   H     0.86920   0.02865   0.68845   0.00000  Uiso   1.00
H498   H     0.86292   0.47167   0.82268   0.00000  Uiso   1.00
H499   H     0.75966   0.21756   0.61236   0.00000  Uiso   1.00
H500   H     0.86735   0.31438   0.88222   0.00000  Uiso   1.00
N501   N     0.83333   0.24999   0.62624   0.00000  Uiso   1.00
N502   N     0.83333   0.25001   0.87377   0.00000  Uiso   1.00
O503   O     0.83334   0.18453   0.78974   0.00000  Uiso   1.00
O504   O     0.83333   0.31546   0.71026   0.00000  Uiso   1.00
O505   O     0.83334   0.18453   0.71026   0.00000  Uiso   1.00
O506   O     0.83333   0.31547   0.78974   0.00000  Uiso   1.00
O507   O     0.75725   0.25000   0.78045   0.00000  Uiso   1.00
O508   O     0.90942   0.25000   0.71956   0.00000  Uiso   1.00
O509   O     0.75725   0.24999   0.70097   0.00000  Uiso   1.00
O510   O     0.90942   0.25000   0.79904   0.00000  Uiso   1.00
Zn511  Zn    0.83333   0.25000   0.80307   0.00000  Uiso   1.00
Zn512  Zn    0.83333   0.24999   0.69693   0.00000  Uiso   1.00
F513   F     0.77923   0.02573   0.81547   0.00000  Uiso   1.00
F514   F     0.78634   0.47413   0.66698   0.00000  Uiso   1.00
H515   H     0.78908   0.11145   0.81033   0.00000  Uiso   1.00
H516   H     0.79560   0.38846   0.67540   0.00000  Uiso   1.00
F517   F     0.74677   0.21610   0.51963   0.00000  Uiso   1.00
F518   F     0.86834   0.32542   0.97322   0.00000  Uiso   1.00
F519   F     0.91397   0.28850   0.63591   0.00000  Uiso   1.00
F520   F     0.79301   0.17924   0.86982   0.00000  Uiso   1.00
H521   H     0.90782   0.28309   0.54412   0.00000  Uiso   1.00
H522   H     0.79881   0.18491   0.96150   0.00000  Uiso   1.00
C523   C     0.16644   0.66391   0.75006   0.00000  Uiso   1.00
C524   C     0.16646   0.83612   0.74986   0.00000  Uiso   1.00
C525   C     0.12342   0.73244   0.54719   0.00000  Uiso   1.00
C526   C     0.18489   0.78772   0.94936   0.00000  Uiso   1.00
C527   C     0.12525   0.73195   0.59703   0.00000  Uiso   1.00
C528   C     0.18554   0.78618   0.89986   0.00000  Uiso   1.00
C529   C     0.20712   0.76897   0.60716   0.00000  Uiso   1.00
C530   C     0.14678   0.71458   0.89574   0.00000  Uiso   1.00
C531   C     0.20754   0.76910   0.55770   0.00000  Uiso   1.00
C532   C     0.14663   0.71425   0.94524   0.00000  Uiso   1.00
C533   C     0.16529   0.75096   0.52649   0.00000  Uiso   1.00
C534   C     0.16551   0.75115   0.97320   0.00000  Uiso   1.00
C535   C     0.06704   0.74985   0.73758   0.00000  Uiso   1.00
C536   C     0.26630   0.74995   0.76243   0.00000  Uiso   1.00
C537   C     0.01206   0.74946   0.73088   0.00000  Uiso   1.00
C538   C     0.32130   0.74996   0.76916   0.00000  Uiso   1.00
C539   C     0.13746   0.54744   0.78311   0.00000  Uiso   1.00
C540   C     0.14108   0.95254   0.70735   0.00000  Uiso   1.00
C541   C     0.14019   0.59347   0.78388   0.00000  Uiso   1.00
C542   C     0.14380   0.90651   0.70757   0.00000  Uiso   1.00
C543   C     0.16468   0.61602   0.74991   0.00000  Uiso   1.00
C544   C     0.16468   0.88405   0.74941   0.00000  Uiso   1.00
C545   C     0.18647   0.59270   0.71511   0.00000  Uiso   1.00
C546   C     0.18293   0.90753   0.79104   0.00000  Uiso   1.00
C547   C     0.18443   0.54668   0.71470   0.00000  Uiso   1.00
C548   C     0.18089   0.95354   0.79069   0.00000  Uiso   1.00
C549   C     0.15990   0.52409   0.74861   0.00000  Uiso   1.00
C550   C     0.15991   0.97600   0.74893   0.00000  Uiso   1.00
H551   H     0.32491   0.74873   0.69455   0.00000  Uiso   1.00
H552   H     0.00850   0.75052   0.80551   0.00000  Uiso   1.00
H553   H     0.20569   0.61000   0.68884   0.00000  Uiso   1.00
H554   H     0.19942   0.89040   0.82350   0.00000  Uiso   1.00
H555   H     0.20254   0.52865   0.68845   0.00000  Uiso   1.00
H556   H     0.19625   0.97167   0.82268   0.00000  Uiso   1.00
H557   H     0.09299   0.71756   0.61236   0.00000  Uiso   1.00
H558   H     0.20069   0.81438   0.88222   0.00000  Uiso   1.00
N559   N     0.16667   0.74999   0.62624   0.00000  Uiso   1.00
N560   N     0.16667   0.75001   0.87377   0.00000  Uiso   1.00
O561   O     0.16667   0.68453   0.78974   0.00000  Uiso   1.00
O562   O     0.16666   0.81546   0.71026   0.00000  Uiso   1.00
O563   O     0.16667   0.68453   0.71026   0.00000  Uiso   1.00
O564   O     0.16666   0.81547   0.78974   0.00000  Uiso   1.00
O565   O     0.09058   0.75000   0.78045   0.00000  Uiso   1.00
O566   O     0.24275   0.75000   0.71956   0.00000  Uiso   1.00
O567   O     0.09058   0.74999   0.70097   0.00000  Uiso   1.00
O568   O     0.24275   0.75000   0.79904   0.00000  Uiso   1.00
Zn569  Zn    0.16667   0.75000   0.80307   0.00000  Uiso   1.00
Zn570  Zn    0.16667   0.74999   0.69693   0.00000  Uiso   1.00
F571   F     0.11256   0.52573   0.81547   0.00000  Uiso   1.00
F572   F     0.11967   0.97413   0.66698   0.00000  Uiso   1.00
H573   H     0.12241   0.61145   0.81033   0.00000  Uiso   1.00
H574   H     0.12893   0.88846   0.67540   0.00000  Uiso   1.00
F575   F     0.08011   0.71610   0.51963   0.00000  Uiso   1.00
F576   F     0.20168   0.82542   0.97322   0.00000  Uiso   1.00
F577   F     0.24730   0.78850   0.63591   0.00000  Uiso   1.00
F578   F     0.12635   0.67924   0.86982   0.00000  Uiso   1.00
H579   H     0.24116   0.78309   0.54412   0.00000  Uiso   1.00
H580   H     0.13215   0.68491   0.96150   0.00000  Uiso   1.00
C581   C     0.49977   0.66391   0.75006   0.00000  Uiso   1.00
C582   C     0.49979   0.83612   0.74986   0.00000  Uiso   1.00
C583   C     0.45676   0.73244   0.54719   0.00000  Uiso   1.00
C584   C     0.51823   0.78772   0.94936   0.00000  Uiso   1.00
C585   C     0.45859   0.73195   0.59703   0.00000  Uiso   1.00
C586   C     0.51887   0.78618   0.89986   0.00000  Uiso   1.00
C587   C     0.54045   0.76897   0.60716   0.00000  Uiso   1.00
C588   C     0.48011   0.71458   0.89574   0.00000  Uiso   1.00
C589   C     0.54087   0.76910   0.55770   0.00000  Uiso   1.00
C590   C     0.47997   0.71425   0.94524   0.00000  Uiso   1.00
C591   C     0.49863   0.75096   0.52649   0.00000  Uiso   1.00
C592   C     0.49884   0.75115   0.97320   0.00000  Uiso   1.00
C593   C     0.40038   0.74985   0.73758   0.00000  Uiso   1.00
C594   C     0.59963   0.74995   0.76243   0.00000  Uiso   1.00
C595   C     0.34539   0.74946   0.73088   0.00000  Uiso   1.00
C596   C     0.65464   0.74996   0.76916   0.00000  Uiso   1.00
C597   C     0.47080   0.54744   0.78311   0.00000  Uiso   1.00
C598   C     0.47441   0.95254   0.70735   0.00000  Uiso   1.00
C599   C     0.47352   0.59347   0.78388   0.00000  Uiso   1.00
C600   C     0.47713   0.90651   0.70757   0.00000  Uiso   1.00
C601   C     0.49802   0.61602   0.74991   0.00000  Uiso   1.00
C602   C     0.49801   0.88405   0.74941   0.00000  Uiso   1.00
C603   C     0.51980   0.59270   0.71511   0.00000  Uiso   1.00
C604   C     0.51627   0.90753   0.79104   0.00000  Uiso   1.00
C605   C     0.51777   0.54668   0.71470   0.00000  Uiso   1.00
C606   C     0.51422   0.95354   0.79069   0.00000  Uiso   1.00
C607   C     0.49324   0.52409   0.74861   0.00000  Uiso   1.00
C608   C     0.49324   0.97600   0.74893   0.00000  Uiso   1.00
H609   H     0.65824   0.74873   0.69455   0.00000  Uiso   1.00
H610   H     0.34184   0.75052   0.80551   0.00000  Uiso   1.00
H611   H     0.53902   0.61000   0.68884   0.00000  Uiso   1.00
H612   H     0.53275   0.89040   0.82350   0.00000  Uiso   1.00
H613   H     0.53587   0.52865   0.68845   0.00000  Uiso   1.00
H614   H     0.52959   0.97167   0.82268   0.00000  Uiso   1.00
H615   H     0.42633   0.71756   0.61236   0.00000  Uiso   1.00
H616   H     0.53402   0.81438   0.88222   0.00000  Uiso   1.00
N617   N     0.50000   0.74999   0.62624   0.00000  Uiso   1.00
N618   N     0.50000   0.75001   0.87377   0.00000  Uiso   1.00
O619   O     0.50000   0.68453   0.78974   0.00000  Uiso   1.00
O620   O     0.50000   0.81546   0.71026   0.00000  Uiso   1.00
O621   O     0.50000   0.68453   0.71026   0.00000  Uiso   1.00
O622   O     0.50000   0.81547   0.78974   0.00000  Uiso   1.00
O623   O     0.42392   0.75000   0.78045   0.00000  Uiso   1.00
O624   O     0.57608   0.75000   0.71956   0.00000  Uiso   1.00
O625   O     0.42392   0.74999   0.70097   0.00000  Uiso   1.00
O626   O     0.57608   0.75000   0.79904   0.00000  Uiso   1.00
Zn627  Zn    0.50000   0.75000   0.80307   0.00000  Uiso   1.00
Zn628  Zn    0.50000   0.74999   0.69693   0.00000  Uiso   1.00
F629   F     0.44590   0.52573   0.81547   0.00000  Uiso   1.00
F630   F     0.45300   0.97413   0.66698   0.00000  Uiso   1.00
H631   H     0.45575   0.61145   0.81033   0.00000  Uiso   1.00
H632   H     0.46227   0.88846   0.67540   0.00000  Uiso   1.00
F633   F     0.41344   0.71610   0.51963   0.00000  Uiso   1.00
F634   F     0.53501   0.82542   0.97322   0.00000  Uiso   1.00
F635   F     0.58064   0.78850   0.63591   0.00000  Uiso   1.00
F636   F     0.45968   0.67924   0.86982   0.00000  Uiso   1.00
H637   H     0.57449   0.78309   0.54412   0.00000  Uiso   1.00
H638   H     0.46548   0.68491   0.96150   0.00000  Uiso   1.00
C639   C     0.83310   0.66391   0.75006   0.00000  Uiso   1.00
C640   C     0.83312   0.83612   0.74986   0.00000  Uiso   1.00
C641   C     0.79009   0.73244   0.54719   0.00000  Uiso   1.00
C642   C     0.85156   0.78772   0.94936   0.00000  Uiso   1.00
C643   C     0.79192   0.73195   0.59703   0.00000  Uiso   1.00
C644   C     0.85220   0.78618   0.89986   0.00000  Uiso   1.00
C645   C     0.87379   0.76897   0.60716   0.00000  Uiso   1.00
C646   C     0.81344   0.71458   0.89574   0.00000  Uiso   1.00
C647   C     0.87420   0.76910   0.55770   0.00000  Uiso   1.00
C648   C     0.81330   0.71425   0.94524   0.00000  Uiso   1.00
C649   C     0.83196   0.75096   0.52649   0.00000  Uiso   1.00
C650   C     0.83217   0.75115   0.97320   0.00000  Uiso   1.00
C651   C     0.73371   0.74985   0.73758   0.00000  Uiso   1.00
C652   C     0.93297   0.74995   0.76243   0.00000  Uiso   1.00
C653   C     0.67873   0.74946   0.73088   0.00000  Uiso   1.00
C654   C     0.98797   0.74996   0.76916   0.00000  Uiso   1.00
C655   C     0.80413   0.54744   0.78311   0.00000  Uiso   1.00
C656   C     0.80774   0.95254   0.70735   0.00000  Uiso   1.00
C657   C     0.80686   0.59347   0.78388   0.00000  Uiso   1.00
C658   C     0.81047   0.90651   0.70757   0.00000  Uiso   1.00
C659   C     0.83135   0.61602   0.74991   0.00000  Uiso   1.00
C660   C     0.83134   0.88405   0.74941   0.00000  Uiso   1.00
C661   C     0.85314   0.59270   0.71511   0.00000  Uiso   1.00
C662   C     0.84960   0.90753   0.79104   0.00000  Uiso   1.00
C663   C     0.85110   0.54668   0.71470   0.00000  Uiso   1.00
C664   C     0.84755   0.95354   0.79069   0.00000  Uiso   1.00
C665   C     0.82657   0.52409   0.74861   0.00000  Uiso   1.00
C666   C     0.82658   0.97600   0.74893   0.00000  Uiso   1.00
H667   H     0.99157   0.74873   0.69455   0.00000  Uiso   1.00
H668   H     0.67517   0.75052   0.80551   0.00000  Uiso   1.00
H669   H     0.87236   0.61000   0.68884   0.00000  Uiso   1.00
H670   H     0.86608   0.89040   0.82350   0.00000  Uiso   1.00
H671   H     0.86920   0.52865   0.68845   0.00000  Uiso   1.00
H672   H     0.86292   0.97167   0.82268   0.00000  Uiso   1.00
H673   H     0.75966   0.71756   0.61236   0.00000  Uiso   1.00
H674   H     0.86735   0.81438   0.88222   0.00000  Uiso   1.00
N675   N     0.83333   0.74999   0.62624   0.00000  Uiso   1.00
N676   N     0.83333   0.75001   0.87377   0.00000  Uiso   1.00
O677   O     0.83334   0.68453   0.78974   0.00000  Uiso   1.00
O678   O     0.83333   0.81546   0.71026   0.00000  Uiso   1.00
O679   O     0.83334   0.68453   0.71026   0.00000  Uiso   1.00
O680   O     0.83333   0.81547   0.78974   0.00000  Uiso   1.00
O681   O     0.75725   0.75000   0.78045   0.00000  Uiso   1.00
O682   O     0.90942   0.75000   0.71956   0.00000  Uiso   1.00
O683   O     0.75725   0.74999   0.70097   0.00000  Uiso   1.00
O684   O     0.90942   0.75000   0.79904   0.00000  Uiso   1.00
Zn685  Zn    0.83333   0.75000   0.80307   0.00000  Uiso   1.00
Zn686  Zn    0.83333   0.74999   0.69693   0.00000  Uiso   1.00
F687   F     0.77923   0.52573   0.81547   0.00000  Uiso   1.00
F688   F     0.78634   0.97413   0.66698   0.00000  Uiso   1.00
H689   H     0.78908   0.61145   0.81033   0.00000  Uiso   1.00
H690   H     0.79560   0.88846   0.67540   0.00000  Uiso   1.00
F691   F     0.74677   0.71610   0.51963   0.00000  Uiso   1.00
F692   F     0.86834   0.82542   0.97322   0.00000  Uiso   1.00
F693   F     0.91397   0.78850   0.63591   0.00000  Uiso   1.00
F694   F     0.79301   0.67924   0.86982   0.00000  Uiso   1.00
H695   H     0.90782   0.78309   0.54412   0.00000  Uiso   1.00
H696   H     0.79881   0.68491   0.96150   0.00000  Uiso   1.00
loop_
_geom_bond_atom_site_label_1
_geom_bond_atom_site_label_2
_geom_bond_distance
_geom_bond_site_symmetry_2
_ccdc_geom_bond_type
C1     C21     1.436   .     S
C1     O39     1.287   .     A
C1     O41     1.286   .     A
C2     C22     1.438   .     S
C2     O42     1.287   .     A
C2     O40     1.287   .     A
C3     C5      1.409   .     A
C3     F53     1.357   .     S
C3     C11     1.414   .     A
C4     C6      1.409   .     A
C4     C12     1.414   .     A
C4     F54     1.357   .     S
C5     N37     1.363   .     A
C5     H35     1.082   .     S
C6     N38     1.364   .     A
C6     H36     1.081   .     S
C7     F55     1.354   .     S
C7     N37     1.365   .     A
C7     C9      1.406   .     A
C8     F56     1.353   .     S
C8     N38     1.365   .     A
C8     C10     1.406   .     A
C9     C11     1.408   .     A
C9     H57     1.082   .     S
C10    C12     1.408   .     A
C10    H58     1.082   .     S
C11    C360    1.514   1_554 S
C12    C359    1.514   .     S
C13    C15     1.402   .     S
C13    O45     1.279   .     A
C13    O43     1.277   .     A
C14    C16     1.402   .     S
C14    O44     1.277   .     A
C14    O46     1.279   .     A
C15    C132    1.329   1_455 S
C15    H145    1.087   1_455 S
C16    C73     1.329   .     S
C16    H88     1.088   .     S
C17    C27     1.401   .     A
C17    F49     1.358   .     S
C17    C19     1.382   .     A
C18    C28     1.400   .     A
C18    C20     1.382   .     A
C18    F50     1.358   .     S
C19    C21     1.399   .     A
C19    H51     1.083   .     S
C20    H52     1.084   .     S
C20    C22     1.399   .     A
C21    C23     1.398   .     A
C22    C24     1.398   .     A
C23    C25     1.380   .     A
C23    H31     1.084   .     S
C24    H32     1.084   .     S
C24    C26     1.380   .     A
C25    C27     1.398   .     A
C25    H33     1.084   .     S
C26    C28     1.398   .     A
C26    H34     1.084   .     S
C27    C202    1.441   1_545 S
C28    C201    1.441   .     S
H29    C73     1.087   .     S
H30    C132    1.088   1_455 S
N37    Zn48    2.007   .     S
N38    Zn47    2.007   .     S
O39    Zn47    2.001   .     S
O40    Zn48    2.001   .     S
O41    Zn48    1.997   .     S
O42    Zn47    1.997   .     S
O43    Zn47    1.972   .     S
O44    Zn48    1.972   .     S
O45    Zn48    1.982   .     S
O46    Zn47    1.982   .     S
C59    C79     1.436   .     S
C59    O97     1.287   .     A
C59    O99     1.286   .     A
C60    C80     1.438   .     S
C60    O100    1.287   .     A
C60    O98     1.287   .     A
C61    C63     1.409   .     A
C61    F111    1.357   .     S
C61    C69     1.414   .     A
C62    C64     1.409   .     A
C62    C70     1.414   .     A
C62    F112    1.357   .     S
C63    N95     1.363   .     A
C63    H93     1.082   .     S
C64    N96     1.364   .     A
C64    H94     1.081   .     S
C65    F113    1.354   .     S
C65    N95     1.365   .     A
C65    C67     1.406   .     A
C66    F114    1.353   .     S
C66    N96     1.365   .     A
C66    C68     1.406   .     A
C67    C69     1.408   .     A
C67    H115    1.082   .     S
C68    C70     1.408   .     A
C68    H116    1.082   .     S
C69    C418    1.514   1_554 S
C70    C417    1.514   .     S
C71    C73     1.402   .     S
C71    O103    1.279   .     A
C71    O101    1.277   .     A
C72    C74     1.402   .     S
C72    O102    1.277   .     A
C72    O104    1.279   .     A
C74    C131    1.329   .     S
C74    H146    1.088   .     S
C75    C85     1.401   .     A
C75    F107    1.358   .     S
C75    C77     1.382   .     A
C76    C86     1.400   .     A
C76    C78     1.382   .     A
C76    F108    1.358   .     S
C77    C79     1.399   .     A
C77    H109    1.083   .     S
C78    H110    1.084   .     S
C78    C80     1.399   .     A
C79    C81     1.398   .     A
C80    C82     1.398   .     A
C81    C83     1.380   .     A
C81    H89     1.084   .     S
C82    H90     1.084   .     S
C82    C84     1.380   .     A
C83    C85     1.398   .     A
C83    H91     1.084   .     S
C84    C86     1.398   .     A
C84    H92     1.084   .     S
C85    C260    1.441   1_545 S
C86    C259    1.441   .     S
H87    C131    1.087   .     S
N95    Zn106   2.007   .     S
N96    Zn105   2.007   .     S
O97    Zn105   2.001   .     S
O98    Zn106   2.001   .     S
O99    Zn106   1.997   .     S
O100   Zn105   1.997   .     S
O101   Zn105   1.972   .     S
O102   Zn106   1.972   .     S
O103   Zn106   1.982   .     S
O104   Zn105   1.982   .     S
C117   C137    1.436   .     S
C117   O155    1.287   .     A
C117   O157    1.286   .     A
C118   C138    1.438   .     S
C118   O158    1.287   .     A
C118   O156    1.287   .     A
C119   C121    1.409   .     A
C119   F169    1.357   .     S
C119   C127    1.414   .     A
C120   C122    1.409   .     A
C120   C128    1.414   .     A
C120   F170    1.357   .     S
C121   N153    1.363   .     A
C121   H151    1.082   .     S
C122   N154    1.364   .     A
C122   H152    1.081   .     S
C123   F171    1.354   .     S
C123   N153    1.365   .     A
C123   C125    1.406   .     A
C124   F172    1.353   .     S
C124   N154    1.365   .     A
C124   C126    1.406   .     A
C125   C127    1.408   .     A
C125   H173    1.082   .     S
C126   C128    1.408   .     A
C126   H174    1.082   .     S
C127   C476    1.514   1_554 S
C128   C475    1.514   .     S
C129   C131    1.402   .     S
C129   O161    1.279   .     A
C129   O159    1.277   .     A
C130   C132    1.402   .     S
C130   O160    1.277   .     A
C130   O162    1.279   .     A
C132   C15     1.329   1_655 S
C132   H30     1.088   1_655 S
C133   C143    1.401   .     A
C133   F165    1.358   .     S
C133   C135    1.382   .     A
C134   C144    1.400   .     A
C134   C136    1.382   .     A
C134   F166    1.358   .     S
C135   C137    1.399   .     A
C135   H167    1.083   .     S
C136   H168    1.084   .     S
C136   C138    1.399   .     A
C137   C139    1.398   .     A
C138   C140    1.398   .     A
C139   C141    1.380   .     A
C139   H147    1.084   .     S
C140   H148    1.084   .     S
C140   C142    1.380   .     A
C141   C143    1.398   .     A
C141   H149    1.084   .     S
C142   C144    1.398   .     A
C142   H150    1.084   .     S
C143   C318    1.441   1_545 S
C144   C317    1.441   .     S
H145   C15     1.087   1_655 S
N153   Zn164   2.007   .     S
N154   Zn163   2.007   .     S
O155   Zn163   2.001   .     S
O156   Zn164   2.001   .     S
O157   Zn164   1.997   .     S
O158   Zn163   1.997   .     S
O159   Zn163   1.972   .     S
O160   Zn164   1.972   .     S
O161   Zn164   1.982   .     S
O162   Zn163   1.982   .     S
C175   C195    1.436   .     S
C175   O213    1.287   .     A
C175   O215    1.286   .     A
C176   C196    1.438   .     S
C176   O216    1.287   .     A
C176   O214    1.287   .     A
C177   C179    1.409   .     A
C177   F227    1.357   .     S
C177   C185    1.414   .     A
C178   C180    1.409   .     A
C178   C186    1.414   .     A
C178   F228    1.357   .     S
C179   N211    1.363   .     A
C179   H209    1.082   .     S
C180   N212    1.364   .     A
C180   H210    1.081   .     S
C181   F229    1.354   .     S
C181   N211    1.365   .     A
C181   C183    1.406   .     A
C182   F230    1.353   .     S
C182   N212    1.365   .     A
C182   C184    1.406   .     A
C183   C185    1.408   .     A
C183   H231    1.082   .     S
C184   C186    1.408   .     A
C184   H232    1.082   .     S
C185   C534    1.514   1_554 S
C186   C533    1.514   .     S
C187   C189    1.402   .     S
C187   O219    1.279   .     A
C187   O217    1.277   .     A
C188   C190    1.402   .     S
C188   O218    1.277   .     A
C188   O220    1.279   .     A
C189   C306    1.329   1_455 S
C189   H319    1.087   1_455 S
C190   C247    1.329   .     S
C190   H262    1.088   .     S
C191   C201    1.401   .     A
C191   F223    1.358   .     S
C191   C193    1.382   .     A
C192   C202    1.400   .     A
C192   C194    1.382   .     A
C192   F224    1.358   .     S
C193   C195    1.399   .     A
C193   H225    1.083   .     S
C194   H226    1.084   .     S
C194   C196    1.399   .     A
C195   C197    1.398   .     A
C196   C198    1.398   .     A
C197   C199    1.380   .     A
C197   H205    1.084   .     S
C198   H206    1.084   .     S
C198   C200    1.380   .     A
C199   C201    1.398   .     A
C199   H207    1.084   .     S
C200   C202    1.398   .     A
C200   H208    1.084   .     S
C202   C27     1.441   1_565 S
H203   C247    1.087   .     S
H204   C306    1.088   1_455 S
N211   Zn222   2.007   .     S
N212   Zn221   2.007   .     S
O213   Zn221   2.001   .     S
O214   Zn222   2.001   .     S
O215   Zn222   1.997   .     S
O216   Zn221   1.997   .     S
O217   Zn221   1.972   .     S
O218   Zn222   1.972   .     S
O219   Zn222   1.982   .     S
O220   Zn221   1.982   .     S
C233   C253    1.436   .     S
C233   O271    1.287   .     A
C233   O273    1.286   .     A
C234   C254    1.438   .     S
C234   O274    1.287   .     A
C234   O272    1.287   .     A
C235   C237    1.409   .     A
C235   F285    1.357   .     S
C235   C243    1.414   .     A
C236   C238    1.409   .     A
C236   C244    1.414   .     A
C236   F286    1.357   .     S
C237   N269    1.363   .     A
C237   H267    1.082   .     S
C238   N270    1.364   .     A
C238   H268    1.081   .     S
C239   F287    1.354   .     S
C239   N269    1.365   .     A
C239   C241    1.406   .     A
C240   F288    1.353   .     S
C240   N270    1.365   .     A
C240   C242    1.406   .     A
C241   C243    1.408   .     A
C241   H289    1.082   .     S
C242   C244    1.408   .     A
C242   H290    1.082   .     S
C243   C592    1.514   1_554 S
C244   C591    1.514   .     S
C245   C247    1.402   .     S
C245   O277    1.279   .     A
C245   O275    1.277   .     A
C246   C248    1.402   .     S
C246   O276    1.277   .     A
C246   O278    1.279   .     A
C248   C305    1.329   .     S
C248   H320    1.088   .     S
C249   C259    1.401   .     A
C249   F281    1.358   .     S
C249   C251    1.382   .     A
C250   C260    1.400   .     A
C250   C252    1.382   .     A
C250   F282    1.358   .     S
C251   C253    1.399   .     A
C251   H283    1.083   .     S
C252   H284    1.084   .     S
C252   C254    1.399   .     A
C253   C255    1.398   .     A
C254   C256    1.398   .     A
C255   C257    1.380   .     A
C255   H263    1.084   .     S
C256   H264    1.084   .     S
C256   C258    1.380   .     A
C257   C259    1.398   .     A
C257   H265    1.084   .     S
C258   C260    1.398   .     A
C258   H266    1.084   .     S
C260   C85     1.441   1_565 S
H261   C305    1.087   .     S
N269   Zn280   2.007   .     S
N270   Zn279   2.007   .     S
O271   Zn279   2.001   .     S
O272   Zn280   2.001   .     S
O273   Zn280   1.997   .     S
O274   Zn279   1.997   .     S
O275   Zn279   1.972   .     S
O276   Zn280   1.972   .     S
O277   Zn280   1.982   .     S
O278   Zn279   1.982   .     S
C291   C311    1.436   .     S
C291   O329    1.287   .     A
C291   O331    1.286   .     A
C292   C312    1.438   .     S
C292   O332    1.287   .     A
C292   O330    1.287   .     A
C293   C295    1.409   .     A
C293   F343    1.357   .     S
C293   C301    1.414   .     A
C294   C296    1.409   .     A
C294   C302    1.414   .     A
C294   F344    1.357   .     S
C295   N327    1.363   .     A
C295   H325    1.082   .     S
C296   N328    1.364   .     A
C296   H326    1.081   .     S
C297   F345    1.354   .     S
C297   N327    1.365   .     A
C297   C299    1.406   .     A
C298   F346    1.353   .     S
C298   N328    1.365   .     A
C298   C300    1.406   .     A
C299   C301    1.408   .     A
C299   H347    1.082   .     S
C300   C302    1.408   .     A
C300   H348    1.082   .     S
C301   C650    1.514   1_554 S
C302   C649    1.514   .     S
C303   C305    1.402   .     S
C303   O335    1.279   .     A
C303   O333    1.277   .     A
C304   C306    1.402   .     S
C304   O334    1.277   .     A
C304   O336    1.279   .     A
C306   C189    1.329   1_655 S
C306   H204    1.088   1_655 S
C307   C317    1.401   .     A
C307   F339    1.358   .     S
C307   C309    1.382   .     A
C308   C318    1.400   .     A
C308   C310    1.382   .     A
C308   F340    1.358   .     S
C309   C311    1.399   .     A
C309   H341    1.083   .     S
C310   H342    1.084   .     S
C310   C312    1.399   .     A
C311   C313    1.398   .     A
C312   C314    1.398   .     A
C313   C315    1.380   .     A
C313   H321    1.084   .     S
C314   H322    1.084   .     S
C314   C316    1.380   .     A
C315   C317    1.398   .     A
C315   H323    1.084   .     S
C316   C318    1.398   .     A
C316   H324    1.084   .     S
C318   C143    1.441   1_565 S
H319   C189    1.087   1_655 S
N327   Zn338   2.007   .     S
N328   Zn337   2.007   .     S
O329   Zn337   2.001   .     S
O330   Zn338   2.001   .     S
O331   Zn338   1.997   .     S
O332   Zn337   1.997   .     S
O333   Zn337   1.972   .     S
O334   Zn338   1.972   .     S
O335   Zn338   1.982   .     S
O336   Zn337   1.982   .     S
C349   C369    1.436   .     S
C349   O387    1.287   .     A
C349   O389    1.286   .     A
C350   C370    1.438   .     S
C350   O390    1.287   .     A
C350   O388    1.287   .     A
C351   C353    1.409   .     A
C351   F401    1.357   .     S
C351   C359    1.414   .     A
C352   C354    1.409   .     A
C352   C360    1.414   .     A
C352   F402    1.357   .     S
C353   N385    1.363   .     A
C353   H383    1.082   .     S
C354   N386    1.364   .     A
C354   H384    1.081   .     S
C355   F403    1.354   .     S
C355   N385    1.365   .     A
C355   C357    1.406   .     A
C356   F404    1.353   .     S
C356   N386    1.365   .     A
C356   C358    1.406   .     A
C357   C359    1.408   .     A
C357   H405    1.082   .     S
C358   C360    1.408   .     A
C358   H406    1.082   .     S
C360   C11     1.514   1_556 S
C361   C363    1.402   .     S
C361   O393    1.279   .     A
C361   O391    1.277   .     A
C362   C364    1.402   .     S
C362   O392    1.277   .     A
C362   O394    1.279   .     A
C363   C480    1.329   1_455 S
C363   H493    1.087   1_455 S
C364   C421    1.329   .     S
C364   H436    1.088   .     S
C365   C375    1.401   .     A
C365   F397    1.358   .     S
C365   C367    1.382   .     A
C366   C376    1.400   .     A
C366   C368    1.382   .     A
C366   F398    1.358   .     S
C367   C369    1.399   .     A
C367   H399    1.083   .     S
C368   H400    1.084   .     S
C368   C370    1.399   .     A
C369   C371    1.398   .     A
C370   C372    1.398   .     A
C371   C373    1.380   .     A
C371   H379    1.084   .     S
C372   H380    1.084   .     S
C372   C374    1.380   .     A
C373   C375    1.398   .     A
C373   H381    1.084   .     S
C374   C376    1.398   .     A
C374   H382    1.084   .     S
C375   C550    1.441   1_545 S
C376   C549    1.441   .     S
H377   C421    1.087   .     S
H378   C480    1.088   1_455 S
N385   Zn396   2.007   .     S
N386   Zn395   2.007   .     S
O387   Zn395   2.001   .     S
O388   Zn396   2.001   .     S
O389   Zn396   1.997   .     S
O390   Zn395   1.997   .     S
O391   Zn395   1.972   .     S
O392   Zn396   1.972   .     S
O393   Zn396   1.982   .     S
O394   Zn395   1.982   .     S
C407   C427    1.436   .     S
C407   O445    1.287   .     A
C407   O447    1.286   .     A
C408   C428    1.438   .     S
C408   O448    1.287   .     A
C408   O446    1.287   .     A
C409   C411    1.409   .     A
C409   F459    1.357   .     S
C409   C417    1.414   .     A
C410   C412    1.409   .     A
C410   C418    1.414   .     A
C410   F460    1.357   .     S
C411   N443    1.363   .     A
C411   H441    1.082   .     S
C412   N444    1.364   .     A
C412   H442    1.081   .     S
C413   F461    1.354   .     S
C413   N443    1.365   .     A
C413   C415    1.406   .     A
C414   F462    1.353   .     S
C414   N444    1.365   .     A
C414   C416    1.406   .     A
C415   C417    1.408   .     A
C415   H463    1.082   .     S
C416   C418    1.408   .     A
C416   H464    1.082   .     S
C418   C69     1.514   1_556 S
C419   C421    1.402   .     S
C419   O451    1.279   .     A
C419   O449    1.277   .     A
C420   C422    1.402   .     S
C420   O450    1.277   .     A
C420   O452    1.279   .     A
C422   C479    1.329   .     S
C422   H494    1.088   .     S
C423   C433    1.401   .     A
C423   F455    1.358   .     S
C423   C425    1.382   .     A
C424   C434    1.400   .     A
C424   C426    1.382   .     A
C424   F456    1.358   .     S
C425   C427    1.399   .     A
C425   H457    1.083   .     S
C426   H458    1.084   .     S
C426   C428    1.399   .     A
C427   C429    1.398   .     A
C428   C430    1.398   .     A
C429   C431    1.380   .     A
C429   H437    1.084   .     S
C430   H438    1.084   .     S
C430   C432    1.380   .     A
C431   C433    1.398   .     A
C431   H439    1.084   .     S
C432   C434    1.398   .     A
C432   H440    1.084   .     S
C433   C608    1.441   1_545 S
C434   C607    1.441   .     S
H435   C479    1.087   .     S
N443   Zn454   2.007   .     S
N444   Zn453   2.007   .     S
O445   Zn453   2.001   .     S
O446   Zn454   2.001   .     S
O447   Zn454   1.997   .     S
O448   Zn453   1.997   .     S
O449   Zn453   1.972   .     S
O450   Zn454   1.972   .     S
O451   Zn454   1.982   .     S
O452   Zn453   1.982   .     S
C465   C485    1.436   .     S
C465   O503    1.287   .     A
C465   O505    1.286   .     A
C466   C486    1.438   .     S
C466   O506    1.287   .     A
C466   O504    1.287   .     A
C467   C469    1.409   .     A
C467   F517    1.357   .     S
C467   C475    1.414   .     A
C468   C470    1.409   .     A
C468   C476    1.414   .     A
C468   F518    1.357   .     S
C469   N501    1.363   .     A
C469   H499    1.082   .     S
C470   N502    1.364   .     A
C470   H500    1.081   .     S
C471   F519    1.354   .     S
C471   N501    1.365   .     A
C471   C473    1.406   .     A
C472   F520    1.353   .     S
C472   N502    1.365   .     A
C472   C474    1.406   .     A
C473   C475    1.408   .     A
C473   H521    1.082   .     S
C474   C476    1.408   .     A
C474   H522    1.082   .     S
C476   C127    1.514   1_556 S
C477   C479    1.402   .     S
C477   O509    1.279   .     A
C477   O507    1.277   .     A
C478   C480    1.402   .     S
C478   O508    1.277   .     A
C478   O510    1.279   .     A
C480   C363    1.329   1_655 S
C480   H378    1.088   1_655 S
C481   C491    1.401   .     A
C481   F513    1.358   .     S
C481   C483    1.382   .     A
C482   C492    1.400   .     A
C482   C484    1.382   .     A
C482   F514    1.358   .     S
C483   C485    1.399   .     A
C483   H515    1.083   .     S
C484   H516    1.084   .     S
C484   C486    1.399   .     A
C485   C487    1.398   .     A
C486   C488    1.398   .     A
C487   C489    1.380   .     A
C487   H495    1.084   .     S
C488   H496    1.084   .     S
C488   C490    1.380   .     A
C489   C491    1.398   .     A
C489   H497    1.084   .     S
C490   C492    1.398   .     A
C490   H498    1.084   .     S
C491   C666    1.441   1_545 S
C492   C665    1.441   .     S
H493   C363    1.087   1_655 S
N501   Zn512   2.007   .     S
N502   Zn511   2.007   .     S
O503   Zn511   2.001   .     S
O504   Zn512   2.001   .     S
O505   Zn512   1.997   .     S
O506   Zn511   1.997   .     S
O507   Zn511   1.972   .     S
O508   Zn512   1.972   .     S
O509   Zn512   1.982   .     S
O510   Zn511   1.982   .     S
C523   C543    1.436   .     S
C523   O561    1.287   .     A
C523   O563    1.286   .     A
C524   C544    1.438   .     S
C524   O564    1.287   .     A
C524   O562    1.287   .     A
C525   C527    1.409   .     A
C525   F575    1.357   .     S
C525   C533    1.414   .     A
C526   C528    1.409   .     A
C526   C534    1.414   .     A
C526   F576    1.357   .     S
C527   N559    1.363   .     A
C527   H557    1.082   .     S
C528   N560    1.364   .     A
C528   H558    1.081   .     S
C529   F577    1.354   .     S
C529   N559    1.365   .     A
C529   C531    1.406   .     A
C530   F578    1.353   .     S
C530   N560    1.365   .     A
C530   C532    1.406   .     A
C531   C533    1.408   .     A
C531   H579    1.082   .     S
C532   C534    1.408   .     A
C532   H580    1.082   .     S
C534   C185    1.514   1_556 S
C535   C537    1.402   .     S
C535   O567    1.279   .     A
C535   O565    1.277   .     A
C536   C538    1.402   .     S
C536   O566    1.277   .     A
C536   O568    1.279   .     A
C537   C654    1.329   1_455 S
C537   H667    1.087   1_455 S
C538   C595    1.329   .     S
C538   H610    1.088   .     S
C539   C549    1.401   .     A
C539   F571    1.358   .     S
C539   C541    1.382   .     A
C540   C550    1.400   .     A
C540   C542    1.382   .     A
C540   F572    1.358   .     S
C541   C543    1.399   .     A
C541   H573    1.083   .     S
C542   H574    1.084   .     S
C542   C544    1.399   .     A
C543   C545    1.398   .     A
C544   C546    1.398   .     A
C545   C547    1.380   .     A
C545   H553    1.084   .     S
C546   H554    1.084   .     S
C546   C548    1.380   .     A
C547   C549    1.398   .     A
C547   H555    1.084   .     S
C548   C550    1.398   .     A
C548   H556    1.084   .     S
C550   C375    1.441   1_565 S
H551   C595    1.087   .     S
H552   C654    1.088   1_455 S
N559   Zn570   2.007   .     S
N560   Zn569   2.007   .     S
O561   Zn569   2.001   .     S
O562   Zn570   2.001   .     S
O563   Zn570   1.997   .     S
O564   Zn569   1.997   .     S
O565   Zn569   1.972   .     S
O566   Zn570   1.972   .     S
O567   Zn570   1.982   .     S
O568   Zn569   1.982   .     S
C581   C601    1.436   .     S
C581   O619    1.287   .     A
C581   O621    1.286   .     A
C582   C602    1.438   .     S
C582   O622    1.287   .     A
C582   O620    1.287   .     A
C583   C585    1.409   .     A
C583   F633    1.357   .     S
C583   C591    1.414   .     A
C584   C586    1.409   .     A
C584   C592    1.414   .     A
C584   F634    1.357   .     S
C585   N617    1.363   .     A
C585   H615    1.082   .     S
C586   N618    1.364   .     A
C586   H616    1.081   .     S
C587   F635    1.354   .     S
C587   N617    1.365   .     A
C587   C589    1.406   .     A
C588   F636    1.353   .     S
C588   N618    1.365   .     A
C588   C590    1.406   .     A
C589   C591    1.408   .     A
C589   H637    1.082   .     S
C590   C592    1.408   .     A
C590   H638    1.082   .     S
C592   C243    1.514   1_556 S
C593   C595    1.402   .     S
C593   O625    1.279   .     A
C593   O623    1.277   .     A
C594   C596    1.402   .     S
C594   O624    1.277   .     A
C594   O626    1.279   .     A
C596   C653    1.329   .     S
C596   H668    1.088   .     S
C597   C607    1.401   .     A
C597   F629    1.358   .     S
C597   C599    1.382   .     A
C598   C608    1.400   .     A
C598   C600    1.382   .     A
C598   F630    1.358   .     S
C599   C601    1.399   .     A
C599   H631    1.083   .     S
C600   H632    1.084   .     S
C600   C602    1.399   .     A
C601   C603    1.398   .     A
C602   C604    1.398   .     A
C603   C605    1.380   .     A
C603   H611    1.084   .     S
C604   H612    1.084   .     S
C604   C606    1.380   .     A
C605   C607    1.398   .     A
C605   H613    1.084   .     S
C606   C608    1.398   .     A
C606   H614    1.084   .     S
C608   C433    1.441   1_565 S
H609   C653    1.087   .     S
N617   Zn628   2.007   .     S
N618   Zn627   2.007   .     S
O619   Zn627   2.001   .     S
O620   Zn628   2.001   .     S
O621   Zn628   1.997   .     S
O622   Zn627   1.997   .     S
O623   Zn627   1.972   .     S
O624   Zn628   1.972   .     S
O625   Zn628   1.982   .     S
O626   Zn627   1.982   .     S
C639   C659    1.436   .     S
C639   O677    1.287   .     A
C639   O679    1.286   .     A
C640   C660    1.438   .     S
C640   O680    1.287   .     A
C640   O678    1.287   .     A
C641   C643    1.409   .     A
C641   F691    1.357   .     S
C641   C649    1.414   .     A
C642   C644    1.409   .     A
C642   C650    1.414   .     A
C642   F692    1.357   .     S
C643   N675    1.363   .     A
C643   H673    1.082   .     S
C644   N676    1.364   .     A
C644   H674    1.081   .     S
C645   F693    1.354   .     S
C645   N675    1.365   .     A
C645   C647    1.406   .     A
C646   F694    1.353   .     S
C646   N676    1.365   .     A
C646   C648    1.406   .     A
C647   C649    1.408   .     A
C647   H695    1.082   .     S
C648   C650    1.408   .     A
C648   H696    1.082   .     S
C650   C301    1.514   1_556 S
C651   C653    1.402   .     S
C651   O683    1.279   .     A
C651   O681    1.277   .     A
C652   C654    1.402   .     S
C652   O682    1.277   .     A
C652   O684    1.279   .     A
C654   C537    1.329   1_655 S
C654   H552    1.088   1_655 S
C655   C665    1.401   .     A
C655   F687    1.358   .     S
C655   C657    1.382   .     A
C656   C666    1.400   .     A
C656   C658    1.382   .     A
C656   F688    1.358   .     S
C657   C659    1.399   .     A
C657   H689    1.083   .     S
C658   H690    1.084   .     S
C658   C660    1.399   .     A
C659   C661    1.398   .     A
C660   C662    1.398   .     A
C661   C663    1.380   .     A
C661   H669    1.084   .     S
C662   H670    1.084   .     S
C662   C664    1.380   .     A
C663   C665    1.398   .     A
C663   H671    1.084   .     S
C664   C666    1.398   .     A
C664   H672    1.084   .     S
C666   C491    1.441   1_565 S
H667   C537    1.087   1_655 S
N675   Zn686   2.007   .     S
N676   Zn685   2.007   .     S
O677   Zn685   2.001   .     S
O678   Zn686   2.001   .     S
O679   Zn686   1.997   .     S
O680   Zn685   1.997   .     S
O681   Zn685   1.972   .     S
O682   Zn686   1.972   .     S
O683   Zn686   1.982   .     S
O684   Zn685   1.982   .     S
