data_str_m3_o2_o10_pcu_sym.65
_audit_creation_date              2020-01-03
_audit_creation_method            'Materials Studio'
_symmetry_space_group_name_H-M    'P1'
_symmetry_Int_Tables_number       1
_symmetry_cell_setting            triclinic
loop_
_symmetry_equiv_pos_as_xyz
  x,y,z
_cell_length_a                    25.7604
_cell_length_b                    29.9217
_cell_length_c                    28.5327
_cell_angle_alpha                 90.4914
_cell_angle_beta                  98.9493
_cell_angle_gamma                 90.7921
loop_
_atom_site_label
_atom_site_type_symbol
_atom_site_fract_x
_atom_site_fract_y
_atom_site_fract_z
_atom_site_U_iso_or_equiv
_atom_site_adp_type
_atom_site_occupancy
C1     C     0.16866   0.16392   0.25018   0.00000  Uiso   1.00
C2     C     0.14359   0.21384   0.44339   0.00000  Uiso   1.00
C3     C     0.16972   0.24738   0.02704   0.00000  Uiso   1.00
C4     C     0.16946   0.24738   0.47375   0.00000  Uiso   1.00
C5     C     0.06706   0.25025   0.23751   0.00000  Uiso   1.00
C6     C     0.26628   0.25057   0.26248   0.00000  Uiso   1.00
C7     C     0.01192   0.25042   0.23085   0.00000  Uiso   1.00
C8     C     0.32142   0.25201   0.26906   0.00000  Uiso   1.00
C9     C     0.20168   0.04658   0.28811   0.00000  Uiso   1.00
C10    C     0.12814   0.45362   0.22911   0.00000  Uiso   1.00
C11    C     0.20023   0.09296   0.29009   0.00000  Uiso   1.00
C12    C     0.16667   0.33576   0.25019   0.00000  Uiso   1.00
C13    C     0.12402   0.40737   0.23005   0.00000  Uiso   1.00
C14    C     0.17371   0.11585   0.25031   0.00000  Uiso   1.00
C15    C     0.16804   0.38334   0.25061   0.00000  Uiso   1.00
C16    C     0.15273   0.09243   0.20882   0.00000  Uiso   1.00
C17    C     0.21513   0.40470   0.26975   0.00000  Uiso   1.00
C18    C     0.15561   0.04653   0.20711   0.00000  Uiso   1.00
C19    C     0.21925   0.45065   0.26761   0.00000  Uiso   1.00
C20    C     0.17872   0.02349   0.24715   0.00000  Uiso   1.00
C21    C     0.17573   0.47516   0.24737   0.00000  Uiso   1.00
C22    C     0.22806   0.11659   0.33409   0.00000  Uiso   1.00
C23    C     0.12917   0.22646   0.04642   0.00000  Uiso   1.00
C24    C     0.07287   0.38435   0.21009   0.00000  Uiso   1.00
C25    C     0.08306   0.20385   0.11298   0.00000  Uiso   1.00
C26    C     0.22150   0.32085   0.38336   0.00000  Uiso   1.00
C27    C     0.25552   0.33835   0.12176   0.00000  Uiso   1.00
C28    C     0.26780   0.37187   0.16239   0.00000  Uiso   1.00
C29    C     0.06286   0.17643   0.36996   0.00000  Uiso   1.00
C30    C     0.05463   0.12862   0.38543   0.00000  Uiso   1.00
C31    C     0.19376   0.28208   0.45227   0.00000  Uiso   1.00
C32    C     0.12839   0.22714   0.09568   0.00000  Uiso   1.00
C33    C     0.19322   0.28270   0.40283   0.00000  Uiso   1.00
C34    C     0.20550   0.27284   0.10842   0.00000  Uiso   1.00
C35    C     0.14065   0.21646   0.39331   0.00000  Uiso   1.00
C36    C     0.20889   0.26983   0.05909   0.00000  Uiso   1.00
H37    H     0.32445   0.24855   0.19465   0.00000  Uiso   1.00
H38    H     0.21259   0.30949   0.47370   0.00000  Uiso   1.00
H39    H     0.24219   0.28500   0.04619   0.00000  Uiso   1.00
H40    H     0.12603   0.18531   0.45817   0.00000  Uiso   1.00
H41    H     0.25509   0.14291   0.32423   0.00000  Uiso   1.00
H42    H     0.19900   0.13156   0.35420   0.00000  Uiso   1.00
H43    H     0.25202   0.09320   0.35826   0.00000  Uiso   1.00
H44    H     0.05854   0.36415   0.23809   0.00000  Uiso   1.00
H45    H     0.04223   0.40888   0.19688   0.00000  Uiso   1.00
H46    H     0.07853   0.36211   0.18001   0.00000  Uiso   1.00
H47    H     0.09649   0.18345   0.14441   0.00000  Uiso   1.00
H48    H     0.00891   0.25431   0.30522   0.00000  Uiso   1.00
H49    H     0.05406   0.22886   0.12061   0.00000  Uiso   1.00
H50    H     0.06215   0.18055   0.08564   0.00000  Uiso   1.00
H51    H     0.24520   0.30907   0.35678   0.00000  Uiso   1.00
H52    H     0.19277   0.34615   0.36827   0.00000  Uiso   1.00
H53    H     0.24942   0.33799   0.41166   0.00000  Uiso   1.00
H54    H     0.22314   0.35249   0.09578   0.00000  Uiso   1.00
H55    H     0.29110   0.33454   0.10456   0.00000  Uiso   1.00
H56    H     0.29600   0.35753   0.19158   0.00000  Uiso   1.00
H57    H     0.28485   0.40294   0.14968   0.00000  Uiso   1.00
H58    H     0.23111   0.38036   0.17600   0.00000  Uiso   1.00
H59    H     0.21946   0.02831   0.31900   0.00000  Uiso   1.00
H60    H     0.03776   0.18105   0.33511   0.00000  Uiso   1.00
H61    H     0.04851   0.20025   0.39523   0.00000  Uiso   1.00
H62    H     0.07952   0.12214   0.41998   0.00000  Uiso   1.00
H63    H     0.01280   0.12312   0.38925   0.00000  Uiso   1.00
H64    H     0.06505   0.10478   0.35845   0.00000  Uiso   1.00
H65    H     0.09418   0.47294   0.21470   0.00000  Uiso   1.00
H66    H     0.13322   0.10956   0.17783   0.00000  Uiso   1.00
H67    H     0.24898   0.38566   0.28509   0.00000  Uiso   1.00
H68    H     0.13873   0.02890   0.17487   0.00000  Uiso   1.00
H69    H     0.25631   0.46700   0.28147   0.00000  Uiso   1.00
H70    H     0.09705   0.21025   0.02323   0.00000  Uiso   1.00
N71    N     0.16667   0.24999   0.12624   0.00000  Uiso   1.00
N72    N     0.16667   0.25001   0.37377   0.00000  Uiso   1.00
O73    O     0.16667   0.18454   0.28974   0.00000  Uiso   1.00
O74    O     0.11591   0.18303   0.36374   0.00000  Uiso   1.00
O75    O     0.16666   0.31547   0.21026   0.00000  Uiso   1.00
O76    O     0.16667   0.18453   0.21026   0.00000  Uiso   1.00
O77    O     0.16666   0.31547   0.28974   0.00000  Uiso   1.00
O78    O     0.09058   0.25000   0.28045   0.00000  Uiso   1.00
O79    O     0.24275   0.25000   0.21956   0.00000  Uiso   1.00
O80    O     0.09058   0.25000   0.20097   0.00000  Uiso   1.00
O81    O     0.24275   0.25001   0.29904   0.00000  Uiso   1.00
O82    O     0.24224   0.29667   0.14009   0.00000  Uiso   1.00
Zn83   Zn    0.16667   0.25001   0.30307   0.00000  Uiso   1.00
Zn84   Zn    0.16667   0.25000   0.19693   0.00000  Uiso   1.00
C85    C     0.50199   0.16392   0.25018   0.00000  Uiso   1.00
C86    C     0.47692   0.21384   0.44339   0.00000  Uiso   1.00
C87    C     0.50306   0.24738   0.02704   0.00000  Uiso   1.00
C88    C     0.50280   0.24738   0.47375   0.00000  Uiso   1.00
C89    C     0.40039   0.25025   0.23751   0.00000  Uiso   1.00
C90    C     0.59962   0.25057   0.26248   0.00000  Uiso   1.00
C91    C     0.34525   0.25042   0.23085   0.00000  Uiso   1.00
C92    C     0.65476   0.25201   0.26906   0.00000  Uiso   1.00
C93    C     0.53501   0.04658   0.28811   0.00000  Uiso   1.00
C94    C     0.46148   0.45362   0.22911   0.00000  Uiso   1.00
C95    C     0.53357   0.09296   0.29009   0.00000  Uiso   1.00
C96    C     0.50000   0.33576   0.25019   0.00000  Uiso   1.00
C97    C     0.45735   0.40737   0.23005   0.00000  Uiso   1.00
C98    C     0.50704   0.11585   0.25031   0.00000  Uiso   1.00
C99    C     0.50137   0.38334   0.25061   0.00000  Uiso   1.00
C100   C     0.48607   0.09243   0.20882   0.00000  Uiso   1.00
C101   C     0.54846   0.40470   0.26975   0.00000  Uiso   1.00
C102   C     0.48894   0.04653   0.20711   0.00000  Uiso   1.00
C103   C     0.55259   0.45065   0.26761   0.00000  Uiso   1.00
C104   C     0.51206   0.02349   0.24715   0.00000  Uiso   1.00
C105   C     0.50906   0.47516   0.24737   0.00000  Uiso   1.00
C106   C     0.56140   0.11659   0.33409   0.00000  Uiso   1.00
C107   C     0.46251   0.22646   0.04642   0.00000  Uiso   1.00
C108   C     0.40620   0.38435   0.21009   0.00000  Uiso   1.00
C109   C     0.41639   0.20385   0.11298   0.00000  Uiso   1.00
C110   C     0.55484   0.32085   0.38336   0.00000  Uiso   1.00
C111   C     0.58885   0.33835   0.12176   0.00000  Uiso   1.00
C112   C     0.60113   0.37187   0.16239   0.00000  Uiso   1.00
C113   C     0.39620   0.17643   0.36996   0.00000  Uiso   1.00
C114   C     0.38796   0.12862   0.38543   0.00000  Uiso   1.00
C115   C     0.52709   0.28208   0.45227   0.00000  Uiso   1.00
C116   C     0.46172   0.22714   0.09568   0.00000  Uiso   1.00
C117   C     0.52655   0.28270   0.40283   0.00000  Uiso   1.00
C118   C     0.53884   0.27284   0.10842   0.00000  Uiso   1.00
C119   C     0.47398   0.21646   0.39331   0.00000  Uiso   1.00
C120   C     0.54222   0.26983   0.05909   0.00000  Uiso   1.00
H121   H     0.65778   0.24855   0.19465   0.00000  Uiso   1.00
H122   H     0.54593   0.30949   0.47370   0.00000  Uiso   1.00
H123   H     0.57552   0.28500   0.04619   0.00000  Uiso   1.00
H124   H     0.45936   0.18531   0.45817   0.00000  Uiso   1.00
H125   H     0.58842   0.14291   0.32423   0.00000  Uiso   1.00
H126   H     0.53234   0.13156   0.35420   0.00000  Uiso   1.00
H127   H     0.58536   0.09320   0.35826   0.00000  Uiso   1.00
H128   H     0.39187   0.36415   0.23809   0.00000  Uiso   1.00
H129   H     0.37557   0.40888   0.19688   0.00000  Uiso   1.00
H130   H     0.41187   0.36211   0.18001   0.00000  Uiso   1.00
H131   H     0.42983   0.18345   0.14441   0.00000  Uiso   1.00
H132   H     0.34224   0.25431   0.30522   0.00000  Uiso   1.00
H133   H     0.38739   0.22886   0.12061   0.00000  Uiso   1.00
H134   H     0.39548   0.18055   0.08564   0.00000  Uiso   1.00
H135   H     0.57853   0.30907   0.35678   0.00000  Uiso   1.00
H136   H     0.52610   0.34615   0.36827   0.00000  Uiso   1.00
H137   H     0.58275   0.33799   0.41166   0.00000  Uiso   1.00
H138   H     0.55647   0.35249   0.09578   0.00000  Uiso   1.00
H139   H     0.62443   0.33454   0.10456   0.00000  Uiso   1.00
H140   H     0.62933   0.35753   0.19158   0.00000  Uiso   1.00
H141   H     0.61818   0.40294   0.14968   0.00000  Uiso   1.00
H142   H     0.56444   0.38036   0.17600   0.00000  Uiso   1.00
H143   H     0.55279   0.02831   0.31900   0.00000  Uiso   1.00
H144   H     0.37109   0.18105   0.33511   0.00000  Uiso   1.00
H145   H     0.38184   0.20025   0.39523   0.00000  Uiso   1.00
H146   H     0.41286   0.12214   0.41998   0.00000  Uiso   1.00
H147   H     0.34613   0.12312   0.38925   0.00000  Uiso   1.00
H148   H     0.39838   0.10478   0.35845   0.00000  Uiso   1.00
H149   H     0.42751   0.47294   0.21470   0.00000  Uiso   1.00
H150   H     0.46655   0.10956   0.17783   0.00000  Uiso   1.00
H151   H     0.58231   0.38566   0.28509   0.00000  Uiso   1.00
H152   H     0.47207   0.02890   0.17487   0.00000  Uiso   1.00
H153   H     0.58964   0.46700   0.28147   0.00000  Uiso   1.00
H154   H     0.43039   0.21025   0.02323   0.00000  Uiso   1.00
N155   N     0.50000   0.24999   0.12624   0.00000  Uiso   1.00
N156   N     0.50000   0.25001   0.37377   0.00000  Uiso   1.00
O157   O     0.50000   0.18454   0.28974   0.00000  Uiso   1.00
O158   O     0.44925   0.18303   0.36374   0.00000  Uiso   1.00
O159   O     0.50000   0.31547   0.21026   0.00000  Uiso   1.00
O160   O     0.50000   0.18453   0.21026   0.00000  Uiso   1.00
O161   O     0.50000   0.31547   0.28974   0.00000  Uiso   1.00
O162   O     0.42392   0.25000   0.28045   0.00000  Uiso   1.00
O163   O     0.57608   0.25000   0.21956   0.00000  Uiso   1.00
O164   O     0.42392   0.25000   0.20097   0.00000  Uiso   1.00
O165   O     0.57608   0.25001   0.29904   0.00000  Uiso   1.00
O166   O     0.57557   0.29667   0.14009   0.00000  Uiso   1.00
Zn167  Zn    0.50000   0.25001   0.30307   0.00000  Uiso   1.00
Zn168  Zn    0.50000   0.25000   0.19693   0.00000  Uiso   1.00
C169   C     0.83533   0.16392   0.25018   0.00000  Uiso   1.00
C170   C     0.81025   0.21384   0.44339   0.00000  Uiso   1.00
C171   C     0.83639   0.24738   0.02704   0.00000  Uiso   1.00
C172   C     0.83613   0.24738   0.47375   0.00000  Uiso   1.00
C173   C     0.73372   0.25025   0.23751   0.00000  Uiso   1.00
C174   C     0.93295   0.25057   0.26248   0.00000  Uiso   1.00
C175   C     0.67859   0.25042   0.23085   0.00000  Uiso   1.00
C176   C     0.98809   0.25201   0.26906   0.00000  Uiso   1.00
C177   C     0.86834   0.04658   0.28811   0.00000  Uiso   1.00
C178   C     0.79481   0.45362   0.22911   0.00000  Uiso   1.00
C179   C     0.86690   0.09296   0.29009   0.00000  Uiso   1.00
C180   C     0.83333   0.33576   0.25019   0.00000  Uiso   1.00
C181   C     0.79068   0.40737   0.23005   0.00000  Uiso   1.00
C182   C     0.84037   0.11585   0.25031   0.00000  Uiso   1.00
C183   C     0.83470   0.38334   0.25061   0.00000  Uiso   1.00
C184   C     0.81940   0.09243   0.20882   0.00000  Uiso   1.00
C185   C     0.88180   0.40470   0.26975   0.00000  Uiso   1.00
C186   C     0.82228   0.04653   0.20711   0.00000  Uiso   1.00
C187   C     0.88592   0.45065   0.26761   0.00000  Uiso   1.00
C188   C     0.84539   0.02349   0.24715   0.00000  Uiso   1.00
C189   C     0.84240   0.47516   0.24737   0.00000  Uiso   1.00
C190   C     0.89473   0.11659   0.33409   0.00000  Uiso   1.00
C191   C     0.79584   0.22646   0.04642   0.00000  Uiso   1.00
C192   C     0.73954   0.38435   0.21009   0.00000  Uiso   1.00
C193   C     0.74972   0.20385   0.11298   0.00000  Uiso   1.00
C194   C     0.88817   0.32085   0.38336   0.00000  Uiso   1.00
C195   C     0.92218   0.33835   0.12176   0.00000  Uiso   1.00
C196   C     0.93447   0.37187   0.16239   0.00000  Uiso   1.00
C197   C     0.72953   0.17643   0.36996   0.00000  Uiso   1.00
C198   C     0.72129   0.12862   0.38543   0.00000  Uiso   1.00
C199   C     0.86043   0.28208   0.45227   0.00000  Uiso   1.00
C200   C     0.79505   0.22714   0.09568   0.00000  Uiso   1.00
C201   C     0.85989   0.28270   0.40283   0.00000  Uiso   1.00
C202   C     0.87217   0.27284   0.10842   0.00000  Uiso   1.00
C203   C     0.80732   0.21646   0.39331   0.00000  Uiso   1.00
C204   C     0.87556   0.26983   0.05909   0.00000  Uiso   1.00
H205   H     0.99112   0.24855   0.19465   0.00000  Uiso   1.00
H206   H     0.87926   0.30949   0.47370   0.00000  Uiso   1.00
H207   H     0.90885   0.28500   0.04619   0.00000  Uiso   1.00
H208   H     0.79270   0.18531   0.45817   0.00000  Uiso   1.00
H209   H     0.92175   0.14291   0.32423   0.00000  Uiso   1.00
H210   H     0.86567   0.13156   0.35420   0.00000  Uiso   1.00
H211   H     0.91869   0.09320   0.35826   0.00000  Uiso   1.00
H212   H     0.72520   0.36415   0.23809   0.00000  Uiso   1.00
H213   H     0.70890   0.40888   0.19688   0.00000  Uiso   1.00
H214   H     0.74520   0.36211   0.18001   0.00000  Uiso   1.00
H215   H     0.76316   0.18345   0.14441   0.00000  Uiso   1.00
H216   H     0.67558   0.25431   0.30522   0.00000  Uiso   1.00
H217   H     0.72073   0.22886   0.12061   0.00000  Uiso   1.00
H218   H     0.72881   0.18055   0.08564   0.00000  Uiso   1.00
H219   H     0.91186   0.30907   0.35678   0.00000  Uiso   1.00
H220   H     0.85943   0.34615   0.36827   0.00000  Uiso   1.00
H221   H     0.91609   0.33799   0.41166   0.00000  Uiso   1.00
H222   H     0.88980   0.35249   0.09578   0.00000  Uiso   1.00
H223   H     0.95776   0.33454   0.10456   0.00000  Uiso   1.00
H224   H     0.96267   0.35753   0.19158   0.00000  Uiso   1.00
H225   H     0.95151   0.40294   0.14968   0.00000  Uiso   1.00
H226   H     0.89777   0.38036   0.17600   0.00000  Uiso   1.00
H227   H     0.88613   0.02831   0.31900   0.00000  Uiso   1.00
H228   H     0.70442   0.18105   0.33511   0.00000  Uiso   1.00
H229   H     0.71518   0.20025   0.39523   0.00000  Uiso   1.00
H230   H     0.74619   0.12214   0.41998   0.00000  Uiso   1.00
H231   H     0.67946   0.12312   0.38925   0.00000  Uiso   1.00
H232   H     0.73171   0.10478   0.35845   0.00000  Uiso   1.00
H233   H     0.76084   0.47294   0.21470   0.00000  Uiso   1.00
H234   H     0.79988   0.10956   0.17783   0.00000  Uiso   1.00
H235   H     0.91565   0.38566   0.28509   0.00000  Uiso   1.00
H236   H     0.80540   0.02890   0.17487   0.00000  Uiso   1.00
H237   H     0.92298   0.46700   0.28147   0.00000  Uiso   1.00
H238   H     0.76372   0.21025   0.02323   0.00000  Uiso   1.00
N239   N     0.83333   0.24999   0.12624   0.00000  Uiso   1.00
N240   N     0.83333   0.25001   0.37377   0.00000  Uiso   1.00
O241   O     0.83334   0.18454   0.28974   0.00000  Uiso   1.00
O242   O     0.78258   0.18303   0.36374   0.00000  Uiso   1.00
O243   O     0.83333   0.31547   0.21026   0.00000  Uiso   1.00
O244   O     0.83334   0.18453   0.21026   0.00000  Uiso   1.00
O245   O     0.83333   0.31547   0.28974   0.00000  Uiso   1.00
O246   O     0.75725   0.25000   0.28045   0.00000  Uiso   1.00
O247   O     0.90942   0.25000   0.21956   0.00000  Uiso   1.00
O248   O     0.75725   0.25000   0.20097   0.00000  Uiso   1.00
O249   O     0.90942   0.25001   0.29904   0.00000  Uiso   1.00
O250   O     0.90890   0.29667   0.14009   0.00000  Uiso   1.00
Zn251  Zn    0.83333   0.25001   0.30307   0.00000  Uiso   1.00
Zn252  Zn    0.83333   0.25000   0.19693   0.00000  Uiso   1.00
C253   C     0.16866   0.66392   0.25018   0.00000  Uiso   1.00
C254   C     0.14359   0.71384   0.44339   0.00000  Uiso   1.00
C255   C     0.16972   0.74738   0.02704   0.00000  Uiso   1.00
C256   C     0.16946   0.74738   0.47375   0.00000  Uiso   1.00
C257   C     0.06706   0.75025   0.23751   0.00000  Uiso   1.00
C258   C     0.26628   0.75057   0.26248   0.00000  Uiso   1.00
C259   C     0.01192   0.75042   0.23085   0.00000  Uiso   1.00
C260   C     0.32142   0.75201   0.26906   0.00000  Uiso   1.00
C261   C     0.20168   0.54658   0.28811   0.00000  Uiso   1.00
C262   C     0.12814   0.95362   0.22911   0.00000  Uiso   1.00
C263   C     0.20023   0.59296   0.29009   0.00000  Uiso   1.00
C264   C     0.16667   0.83576   0.25019   0.00000  Uiso   1.00
C265   C     0.12402   0.90737   0.23005   0.00000  Uiso   1.00
C266   C     0.17371   0.61585   0.25031   0.00000  Uiso   1.00
C267   C     0.16804   0.88334   0.25061   0.00000  Uiso   1.00
C268   C     0.15273   0.59243   0.20882   0.00000  Uiso   1.00
C269   C     0.21513   0.90470   0.26975   0.00000  Uiso   1.00
C270   C     0.15561   0.54653   0.20711   0.00000  Uiso   1.00
C271   C     0.21925   0.95065   0.26761   0.00000  Uiso   1.00
C272   C     0.17872   0.52349   0.24715   0.00000  Uiso   1.00
C273   C     0.17573   0.97516   0.24737   0.00000  Uiso   1.00
C274   C     0.22806   0.61659   0.33409   0.00000  Uiso   1.00
C275   C     0.12917   0.72646   0.04642   0.00000  Uiso   1.00
C276   C     0.07287   0.88435   0.21009   0.00000  Uiso   1.00
C277   C     0.08306   0.70385   0.11298   0.00000  Uiso   1.00
C278   C     0.22150   0.82085   0.38336   0.00000  Uiso   1.00
C279   C     0.25552   0.83835   0.12176   0.00000  Uiso   1.00
C280   C     0.26780   0.87187   0.16239   0.00000  Uiso   1.00
C281   C     0.06286   0.67643   0.36996   0.00000  Uiso   1.00
C282   C     0.05463   0.62862   0.38543   0.00000  Uiso   1.00
C283   C     0.19376   0.78208   0.45227   0.00000  Uiso   1.00
C284   C     0.12839   0.72714   0.09568   0.00000  Uiso   1.00
C285   C     0.19322   0.78270   0.40283   0.00000  Uiso   1.00
C286   C     0.20550   0.77284   0.10842   0.00000  Uiso   1.00
C287   C     0.14065   0.71646   0.39331   0.00000  Uiso   1.00
C288   C     0.20889   0.76983   0.05909   0.00000  Uiso   1.00
H289   H     0.32445   0.74855   0.19465   0.00000  Uiso   1.00
H290   H     0.21259   0.80949   0.47370   0.00000  Uiso   1.00
H291   H     0.24219   0.78500   0.04619   0.00000  Uiso   1.00
H292   H     0.12603   0.68531   0.45817   0.00000  Uiso   1.00
H293   H     0.25509   0.64291   0.32423   0.00000  Uiso   1.00
H294   H     0.19900   0.63156   0.35420   0.00000  Uiso   1.00
H295   H     0.25202   0.59320   0.35826   0.00000  Uiso   1.00
H296   H     0.05854   0.86415   0.23809   0.00000  Uiso   1.00
H297   H     0.04223   0.90888   0.19688   0.00000  Uiso   1.00
H298   H     0.07853   0.86211   0.18001   0.00000  Uiso   1.00
H299   H     0.09649   0.68345   0.14441   0.00000  Uiso   1.00
H300   H     0.00891   0.75431   0.30522   0.00000  Uiso   1.00
H301   H     0.05406   0.72886   0.12061   0.00000  Uiso   1.00
H302   H     0.06215   0.68055   0.08564   0.00000  Uiso   1.00
H303   H     0.24520   0.80907   0.35678   0.00000  Uiso   1.00
H304   H     0.19277   0.84615   0.36827   0.00000  Uiso   1.00
H305   H     0.24942   0.83799   0.41166   0.00000  Uiso   1.00
H306   H     0.22314   0.85249   0.09578   0.00000  Uiso   1.00
H307   H     0.29110   0.83454   0.10456   0.00000  Uiso   1.00
H308   H     0.29600   0.85753   0.19158   0.00000  Uiso   1.00
H309   H     0.28485   0.90294   0.14968   0.00000  Uiso   1.00
H310   H     0.23111   0.88036   0.17600   0.00000  Uiso   1.00
H311   H     0.21946   0.52831   0.31900   0.00000  Uiso   1.00
H312   H     0.03776   0.68105   0.33511   0.00000  Uiso   1.00
H313   H     0.04851   0.70025   0.39523   0.00000  Uiso   1.00
H314   H     0.07952   0.62214   0.41998   0.00000  Uiso   1.00
H315   H     0.01280   0.62312   0.38925   0.00000  Uiso   1.00
H316   H     0.06505   0.60478   0.35845   0.00000  Uiso   1.00
H317   H     0.09418   0.97294   0.21470   0.00000  Uiso   1.00
H318   H     0.13322   0.60956   0.17783   0.00000  Uiso   1.00
H319   H     0.24898   0.88566   0.28509   0.00000  Uiso   1.00
H320   H     0.13873   0.52890   0.17487   0.00000  Uiso   1.00
H321   H     0.25631   0.96700   0.28147   0.00000  Uiso   1.00
H322   H     0.09705   0.71025   0.02323   0.00000  Uiso   1.00
N323   N     0.16667   0.74999   0.12624   0.00000  Uiso   1.00
N324   N     0.16667   0.75001   0.37377   0.00000  Uiso   1.00
O325   O     0.16667   0.68454   0.28974   0.00000  Uiso   1.00
O326   O     0.11591   0.68303   0.36374   0.00000  Uiso   1.00
O327   O     0.16666   0.81547   0.21026   0.00000  Uiso   1.00
O328   O     0.16667   0.68453   0.21026   0.00000  Uiso   1.00
O329   O     0.16666   0.81547   0.28974   0.00000  Uiso   1.00
O330   O     0.09058   0.75000   0.28045   0.00000  Uiso   1.00
O331   O     0.24275   0.75000   0.21956   0.00000  Uiso   1.00
O332   O     0.09058   0.75000   0.20097   0.00000  Uiso   1.00
O333   O     0.24275   0.75001   0.29904   0.00000  Uiso   1.00
O334   O     0.24224   0.79667   0.14009   0.00000  Uiso   1.00
Zn335  Zn    0.16667   0.75001   0.30307   0.00000  Uiso   1.00
Zn336  Zn    0.16667   0.75000   0.19693   0.00000  Uiso   1.00
C337   C     0.50199   0.66392   0.25018   0.00000  Uiso   1.00
C338   C     0.47692   0.71384   0.44339   0.00000  Uiso   1.00
C339   C     0.50306   0.74738   0.02704   0.00000  Uiso   1.00
C340   C     0.50280   0.74738   0.47375   0.00000  Uiso   1.00
C341   C     0.40039   0.75025   0.23751   0.00000  Uiso   1.00
C342   C     0.59962   0.75057   0.26248   0.00000  Uiso   1.00
C343   C     0.34525   0.75042   0.23085   0.00000  Uiso   1.00
C344   C     0.65476   0.75201   0.26906   0.00000  Uiso   1.00
C345   C     0.53501   0.54658   0.28811   0.00000  Uiso   1.00
C346   C     0.46148   0.95362   0.22911   0.00000  Uiso   1.00
C347   C     0.53357   0.59296   0.29009   0.00000  Uiso   1.00
C348   C     0.50000   0.83576   0.25019   0.00000  Uiso   1.00
C349   C     0.45735   0.90737   0.23005   0.00000  Uiso   1.00
C350   C     0.50704   0.61585   0.25031   0.00000  Uiso   1.00
C351   C     0.50137   0.88334   0.25061   0.00000  Uiso   1.00
C352   C     0.48607   0.59243   0.20882   0.00000  Uiso   1.00
C353   C     0.54846   0.90470   0.26975   0.00000  Uiso   1.00
C354   C     0.48894   0.54653   0.20711   0.00000  Uiso   1.00
C355   C     0.55259   0.95065   0.26761   0.00000  Uiso   1.00
C356   C     0.51206   0.52349   0.24715   0.00000  Uiso   1.00
C357   C     0.50906   0.97516   0.24737   0.00000  Uiso   1.00
C358   C     0.56140   0.61659   0.33409   0.00000  Uiso   1.00
C359   C     0.46251   0.72646   0.04642   0.00000  Uiso   1.00
C360   C     0.40620   0.88435   0.21009   0.00000  Uiso   1.00
C361   C     0.41639   0.70385   0.11298   0.00000  Uiso   1.00
C362   C     0.55484   0.82085   0.38336   0.00000  Uiso   1.00
C363   C     0.58885   0.83835   0.12176   0.00000  Uiso   1.00
C364   C     0.60113   0.87187   0.16239   0.00000  Uiso   1.00
C365   C     0.39620   0.67643   0.36996   0.00000  Uiso   1.00
C366   C     0.38796   0.62862   0.38543   0.00000  Uiso   1.00
C367   C     0.52709   0.78208   0.45227   0.00000  Uiso   1.00
C368   C     0.46172   0.72714   0.09568   0.00000  Uiso   1.00
C369   C     0.52655   0.78270   0.40283   0.00000  Uiso   1.00
C370   C     0.53884   0.77284   0.10842   0.00000  Uiso   1.00
C371   C     0.47398   0.71646   0.39331   0.00000  Uiso   1.00
C372   C     0.54222   0.76983   0.05909   0.00000  Uiso   1.00
H373   H     0.65778   0.74855   0.19465   0.00000  Uiso   1.00
H374   H     0.54593   0.80949   0.47370   0.00000  Uiso   1.00
H375   H     0.57552   0.78500   0.04619   0.00000  Uiso   1.00
H376   H     0.45936   0.68531   0.45817   0.00000  Uiso   1.00
H377   H     0.58842   0.64291   0.32423   0.00000  Uiso   1.00
H378   H     0.53234   0.63156   0.35420   0.00000  Uiso   1.00
H379   H     0.58536   0.59320   0.35826   0.00000  Uiso   1.00
H380   H     0.39187   0.86415   0.23809   0.00000  Uiso   1.00
H381   H     0.37557   0.90888   0.19688   0.00000  Uiso   1.00
H382   H     0.41187   0.86211   0.18001   0.00000  Uiso   1.00
H383   H     0.42983   0.68345   0.14441   0.00000  Uiso   1.00
H384   H     0.34224   0.75431   0.30522   0.00000  Uiso   1.00
H385   H     0.38739   0.72886   0.12061   0.00000  Uiso   1.00
H386   H     0.39548   0.68055   0.08564   0.00000  Uiso   1.00
H387   H     0.57853   0.80907   0.35678   0.00000  Uiso   1.00
H388   H     0.52610   0.84615   0.36827   0.00000  Uiso   1.00
H389   H     0.58275   0.83799   0.41166   0.00000  Uiso   1.00
H390   H     0.55647   0.85249   0.09578   0.00000  Uiso   1.00
H391   H     0.62443   0.83454   0.10456   0.00000  Uiso   1.00
H392   H     0.62933   0.85753   0.19158   0.00000  Uiso   1.00
H393   H     0.61818   0.90294   0.14968   0.00000  Uiso   1.00
H394   H     0.56444   0.88036   0.17600   0.00000  Uiso   1.00
H395   H     0.55279   0.52831   0.31900   0.00000  Uiso   1.00
H396   H     0.37109   0.68105   0.33511   0.00000  Uiso   1.00
H397   H     0.38184   0.70025   0.39523   0.00000  Uiso   1.00
H398   H     0.41286   0.62214   0.41998   0.00000  Uiso   1.00
H399   H     0.34613   0.62312   0.38925   0.00000  Uiso   1.00
H400   H     0.39838   0.60478   0.35845   0.00000  Uiso   1.00
H401   H     0.42751   0.97294   0.21470   0.00000  Uiso   1.00
H402   H     0.46655   0.60956   0.17783   0.00000  Uiso   1.00
H403   H     0.58231   0.88566   0.28509   0.00000  Uiso   1.00
H404   H     0.47207   0.52890   0.17487   0.00000  Uiso   1.00
H405   H     0.58964   0.96700   0.28147   0.00000  Uiso   1.00
H406   H     0.43039   0.71025   0.02323   0.00000  Uiso   1.00
N407   N     0.50000   0.74999   0.12624   0.00000  Uiso   1.00
N408   N     0.50000   0.75001   0.37377   0.00000  Uiso   1.00
O409   O     0.50000   0.68454   0.28974   0.00000  Uiso   1.00
O410   O     0.44925   0.68303   0.36374   0.00000  Uiso   1.00
O411   O     0.50000   0.81547   0.21026   0.00000  Uiso   1.00
O412   O     0.50000   0.68453   0.21026   0.00000  Uiso   1.00
O413   O     0.50000   0.81547   0.28974   0.00000  Uiso   1.00
O414   O     0.42392   0.75000   0.28045   0.00000  Uiso   1.00
O415   O     0.57608   0.75000   0.21956   0.00000  Uiso   1.00
O416   O     0.42392   0.75000   0.20097   0.00000  Uiso   1.00
O417   O     0.57608   0.75001   0.29904   0.00000  Uiso   1.00
O418   O     0.57557   0.79667   0.14009   0.00000  Uiso   1.00
Zn419  Zn    0.50000   0.75001   0.30307   0.00000  Uiso   1.00
Zn420  Zn    0.50000   0.75000   0.19693   0.00000  Uiso   1.00
C421   C     0.83533   0.66392   0.25018   0.00000  Uiso   1.00
C422   C     0.81025   0.71384   0.44339   0.00000  Uiso   1.00
C423   C     0.83639   0.74738   0.02704   0.00000  Uiso   1.00
C424   C     0.83613   0.74738   0.47375   0.00000  Uiso   1.00
C425   C     0.73372   0.75025   0.23751   0.00000  Uiso   1.00
C426   C     0.93295   0.75057   0.26248   0.00000  Uiso   1.00
C427   C     0.67859   0.75042   0.23085   0.00000  Uiso   1.00
C428   C     0.98809   0.75201   0.26906   0.00000  Uiso   1.00
C429   C     0.86834   0.54658   0.28811   0.00000  Uiso   1.00
C430   C     0.79481   0.95362   0.22911   0.00000  Uiso   1.00
C431   C     0.86690   0.59296   0.29009   0.00000  Uiso   1.00
C432   C     0.83333   0.83576   0.25019   0.00000  Uiso   1.00
C433   C     0.79068   0.90737   0.23005   0.00000  Uiso   1.00
C434   C     0.84037   0.61585   0.25031   0.00000  Uiso   1.00
C435   C     0.83470   0.88334   0.25061   0.00000  Uiso   1.00
C436   C     0.81940   0.59243   0.20882   0.00000  Uiso   1.00
C437   C     0.88180   0.90470   0.26975   0.00000  Uiso   1.00
C438   C     0.82228   0.54653   0.20711   0.00000  Uiso   1.00
C439   C     0.88592   0.95065   0.26761   0.00000  Uiso   1.00
C440   C     0.84539   0.52349   0.24715   0.00000  Uiso   1.00
C441   C     0.84240   0.97516   0.24737   0.00000  Uiso   1.00
C442   C     0.89473   0.61659   0.33409   0.00000  Uiso   1.00
C443   C     0.79584   0.72646   0.04642   0.00000  Uiso   1.00
C444   C     0.73954   0.88435   0.21009   0.00000  Uiso   1.00
C445   C     0.74972   0.70385   0.11298   0.00000  Uiso   1.00
C446   C     0.88817   0.82085   0.38336   0.00000  Uiso   1.00
C447   C     0.92218   0.83835   0.12176   0.00000  Uiso   1.00
C448   C     0.93447   0.87187   0.16239   0.00000  Uiso   1.00
C449   C     0.72953   0.67643   0.36996   0.00000  Uiso   1.00
C450   C     0.72129   0.62862   0.38543   0.00000  Uiso   1.00
C451   C     0.86043   0.78208   0.45227   0.00000  Uiso   1.00
C452   C     0.79505   0.72714   0.09568   0.00000  Uiso   1.00
C453   C     0.85989   0.78270   0.40283   0.00000  Uiso   1.00
C454   C     0.87217   0.77284   0.10842   0.00000  Uiso   1.00
C455   C     0.80732   0.71646   0.39331   0.00000  Uiso   1.00
C456   C     0.87556   0.76983   0.05909   0.00000  Uiso   1.00
H457   H     0.99112   0.74855   0.19465   0.00000  Uiso   1.00
H458   H     0.87926   0.80949   0.47370   0.00000  Uiso   1.00
H459   H     0.90885   0.78500   0.04619   0.00000  Uiso   1.00
H460   H     0.79270   0.68531   0.45817   0.00000  Uiso   1.00
H461   H     0.92175   0.64291   0.32423   0.00000  Uiso   1.00
H462   H     0.86567   0.63156   0.35420   0.00000  Uiso   1.00
H463   H     0.91869   0.59320   0.35826   0.00000  Uiso   1.00
H464   H     0.72520   0.86415   0.23809   0.00000  Uiso   1.00
H465   H     0.70890   0.90888   0.19688   0.00000  Uiso   1.00
H466   H     0.74520   0.86211   0.18001   0.00000  Uiso   1.00
H467   H     0.76316   0.68345   0.14441   0.00000  Uiso   1.00
H468   H     0.67558   0.75431   0.30522   0.00000  Uiso   1.00
H469   H     0.72073   0.72886   0.12061   0.00000  Uiso   1.00
H470   H     0.72881   0.68055   0.08564   0.00000  Uiso   1.00
H471   H     0.91186   0.80907   0.35678   0.00000  Uiso   1.00
H472   H     0.85943   0.84615   0.36827   0.00000  Uiso   1.00
H473   H     0.91609   0.83799   0.41166   0.00000  Uiso   1.00
H474   H     0.88980   0.85249   0.09578   0.00000  Uiso   1.00
H475   H     0.95776   0.83454   0.10456   0.00000  Uiso   1.00
H476   H     0.96267   0.85753   0.19158   0.00000  Uiso   1.00
H477   H     0.95151   0.90294   0.14968   0.00000  Uiso   1.00
H478   H     0.89777   0.88036   0.17600   0.00000  Uiso   1.00
H479   H     0.88613   0.52831   0.31900   0.00000  Uiso   1.00
H480   H     0.70442   0.68105   0.33511   0.00000  Uiso   1.00
H481   H     0.71518   0.70025   0.39523   0.00000  Uiso   1.00
H482   H     0.74619   0.62214   0.41998   0.00000  Uiso   1.00
H483   H     0.67946   0.62312   0.38925   0.00000  Uiso   1.00
H484   H     0.73171   0.60478   0.35845   0.00000  Uiso   1.00
H485   H     0.76084   0.97294   0.21470   0.00000  Uiso   1.00
H486   H     0.79988   0.60956   0.17783   0.00000  Uiso   1.00
H487   H     0.91565   0.88566   0.28509   0.00000  Uiso   1.00
H488   H     0.80540   0.52890   0.17487   0.00000  Uiso   1.00
H489   H     0.92298   0.96700   0.28147   0.00000  Uiso   1.00
H490   H     0.76372   0.71025   0.02323   0.00000  Uiso   1.00
N491   N     0.83333   0.74999   0.12624   0.00000  Uiso   1.00
N492   N     0.83333   0.75001   0.37377   0.00000  Uiso   1.00
O493   O     0.83334   0.68454   0.28974   0.00000  Uiso   1.00
O494   O     0.78258   0.68303   0.36374   0.00000  Uiso   1.00
O495   O     0.83333   0.81547   0.21026   0.00000  Uiso   1.00
O496   O     0.83334   0.68453   0.21026   0.00000  Uiso   1.00
O497   O     0.83333   0.81547   0.28974   0.00000  Uiso   1.00
O498   O     0.75725   0.75000   0.28045   0.00000  Uiso   1.00
O499   O     0.90942   0.75000   0.21956   0.00000  Uiso   1.00
O500   O     0.75725   0.75000   0.20097   0.00000  Uiso   1.00
O501   O     0.90942   0.75001   0.29904   0.00000  Uiso   1.00
O502   O     0.90890   0.79667   0.14009   0.00000  Uiso   1.00
Zn503  Zn    0.83333   0.75001   0.30307   0.00000  Uiso   1.00
Zn504  Zn    0.83333   0.75000   0.19693   0.00000  Uiso   1.00
C505   C     0.16866   0.16392   0.75018   0.00000  Uiso   1.00
C506   C     0.14359   0.21384   0.94339   0.00000  Uiso   1.00
C507   C     0.16972   0.24738   0.52704   0.00000  Uiso   1.00
C508   C     0.16946   0.24738   0.97375   0.00000  Uiso   1.00
C509   C     0.06706   0.25025   0.73751   0.00000  Uiso   1.00
C510   C     0.26628   0.25057   0.76248   0.00000  Uiso   1.00
C511   C     0.01192   0.25042   0.73085   0.00000  Uiso   1.00
C512   C     0.32142   0.25201   0.76906   0.00000  Uiso   1.00
C513   C     0.20168   0.04658   0.78811   0.00000  Uiso   1.00
C514   C     0.12814   0.45362   0.72911   0.00000  Uiso   1.00
C515   C     0.20023   0.09296   0.79009   0.00000  Uiso   1.00
C516   C     0.16667   0.33576   0.75019   0.00000  Uiso   1.00
C517   C     0.12402   0.40737   0.73005   0.00000  Uiso   1.00
C518   C     0.17371   0.11585   0.75031   0.00000  Uiso   1.00
C519   C     0.16804   0.38334   0.75061   0.00000  Uiso   1.00
C520   C     0.15273   0.09243   0.70882   0.00000  Uiso   1.00
C521   C     0.21513   0.40470   0.76975   0.00000  Uiso   1.00
C522   C     0.15561   0.04653   0.70711   0.00000  Uiso   1.00
C523   C     0.21925   0.45065   0.76761   0.00000  Uiso   1.00
C524   C     0.17872   0.02349   0.74715   0.00000  Uiso   1.00
C525   C     0.17573   0.47516   0.74737   0.00000  Uiso   1.00
C526   C     0.22806   0.11659   0.83409   0.00000  Uiso   1.00
C527   C     0.12917   0.22646   0.54642   0.00000  Uiso   1.00
C528   C     0.07287   0.38435   0.71009   0.00000  Uiso   1.00
C529   C     0.08306   0.20385   0.61298   0.00000  Uiso   1.00
C530   C     0.22150   0.32085   0.88336   0.00000  Uiso   1.00
C531   C     0.25552   0.33835   0.62176   0.00000  Uiso   1.00
C532   C     0.26780   0.37187   0.66239   0.00000  Uiso   1.00
C533   C     0.06286   0.17643   0.86996   0.00000  Uiso   1.00
C534   C     0.05463   0.12862   0.88543   0.00000  Uiso   1.00
C535   C     0.19376   0.28208   0.95227   0.00000  Uiso   1.00
C536   C     0.12839   0.22714   0.59568   0.00000  Uiso   1.00
C537   C     0.19322   0.28270   0.90283   0.00000  Uiso   1.00
C538   C     0.20550   0.27284   0.60842   0.00000  Uiso   1.00
C539   C     0.14065   0.21646   0.89331   0.00000  Uiso   1.00
C540   C     0.20889   0.26983   0.55909   0.00000  Uiso   1.00
H541   H     0.32445   0.24855   0.69465   0.00000  Uiso   1.00
H542   H     0.21259   0.30949   0.97370   0.00000  Uiso   1.00
H543   H     0.24219   0.28500   0.54619   0.00000  Uiso   1.00
H544   H     0.12603   0.18531   0.95817   0.00000  Uiso   1.00
H545   H     0.25509   0.14291   0.82423   0.00000  Uiso   1.00
H546   H     0.19900   0.13156   0.85420   0.00000  Uiso   1.00
H547   H     0.25202   0.09320   0.85826   0.00000  Uiso   1.00
H548   H     0.05854   0.36415   0.73809   0.00000  Uiso   1.00
H549   H     0.04223   0.40888   0.69688   0.00000  Uiso   1.00
H550   H     0.07853   0.36211   0.68001   0.00000  Uiso   1.00
H551   H     0.09649   0.18345   0.64441   0.00000  Uiso   1.00
H552   H     0.00891   0.25431   0.80522   0.00000  Uiso   1.00
H553   H     0.05406   0.22886   0.62061   0.00000  Uiso   1.00
H554   H     0.06215   0.18055   0.58564   0.00000  Uiso   1.00
H555   H     0.24520   0.30907   0.85678   0.00000  Uiso   1.00
H556   H     0.19277   0.34615   0.86827   0.00000  Uiso   1.00
H557   H     0.24942   0.33799   0.91166   0.00000  Uiso   1.00
H558   H     0.22314   0.35249   0.59578   0.00000  Uiso   1.00
H559   H     0.29110   0.33454   0.60456   0.00000  Uiso   1.00
H560   H     0.29600   0.35753   0.69158   0.00000  Uiso   1.00
H561   H     0.28485   0.40294   0.64968   0.00000  Uiso   1.00
H562   H     0.23111   0.38036   0.67600   0.00000  Uiso   1.00
H563   H     0.21946   0.02831   0.81900   0.00000  Uiso   1.00
H564   H     0.03776   0.18105   0.83511   0.00000  Uiso   1.00
H565   H     0.04851   0.20025   0.89523   0.00000  Uiso   1.00
H566   H     0.07952   0.12214   0.91998   0.00000  Uiso   1.00
H567   H     0.01280   0.12312   0.88925   0.00000  Uiso   1.00
H568   H     0.06505   0.10478   0.85845   0.00000  Uiso   1.00
H569   H     0.09418   0.47294   0.71470   0.00000  Uiso   1.00
H570   H     0.13322   0.10956   0.67783   0.00000  Uiso   1.00
H571   H     0.24898   0.38566   0.78509   0.00000  Uiso   1.00
H572   H     0.13873   0.02890   0.67487   0.00000  Uiso   1.00
H573   H     0.25631   0.46700   0.78147   0.00000  Uiso   1.00
H574   H     0.09705   0.21025   0.52323   0.00000  Uiso   1.00
N575   N     0.16667   0.24999   0.62624   0.00000  Uiso   1.00
N576   N     0.16667   0.25001   0.87377   0.00000  Uiso   1.00
O577   O     0.16667   0.18454   0.78974   0.00000  Uiso   1.00
O578   O     0.11591   0.18303   0.86374   0.00000  Uiso   1.00
O579   O     0.16666   0.31547   0.71026   0.00000  Uiso   1.00
O580   O     0.16667   0.18453   0.71026   0.00000  Uiso   1.00
O581   O     0.16666   0.31547   0.78974   0.00000  Uiso   1.00
O582   O     0.09058   0.25000   0.78045   0.00000  Uiso   1.00
O583   O     0.24275   0.25000   0.71956   0.00000  Uiso   1.00
O584   O     0.09058   0.25000   0.70097   0.00000  Uiso   1.00
O585   O     0.24275   0.25001   0.79904   0.00000  Uiso   1.00
O586   O     0.24224   0.29667   0.64009   0.00000  Uiso   1.00
Zn587  Zn    0.16667   0.25001   0.80307   0.00000  Uiso   1.00
Zn588  Zn    0.16667   0.25000   0.69693   0.00000  Uiso   1.00
C589   C     0.50199   0.16392   0.75018   0.00000  Uiso   1.00
C590   C     0.47692   0.21384   0.94339   0.00000  Uiso   1.00
C591   C     0.50306   0.24738   0.52704   0.00000  Uiso   1.00
C592   C     0.50280   0.24738   0.97375   0.00000  Uiso   1.00
C593   C     0.40039   0.25025   0.73751   0.00000  Uiso   1.00
C594   C     0.59962   0.25057   0.76248   0.00000  Uiso   1.00
C595   C     0.34525   0.25042   0.73085   0.00000  Uiso   1.00
C596   C     0.65476   0.25201   0.76906   0.00000  Uiso   1.00
C597   C     0.53501   0.04658   0.78811   0.00000  Uiso   1.00
C598   C     0.46148   0.45362   0.72911   0.00000  Uiso   1.00
C599   C     0.53357   0.09296   0.79009   0.00000  Uiso   1.00
C600   C     0.50000   0.33576   0.75019   0.00000  Uiso   1.00
C601   C     0.45735   0.40737   0.73005   0.00000  Uiso   1.00
C602   C     0.50704   0.11585   0.75031   0.00000  Uiso   1.00
C603   C     0.50137   0.38334   0.75061   0.00000  Uiso   1.00
C604   C     0.48607   0.09243   0.70882   0.00000  Uiso   1.00
C605   C     0.54846   0.40470   0.76975   0.00000  Uiso   1.00
C606   C     0.48894   0.04653   0.70711   0.00000  Uiso   1.00
C607   C     0.55259   0.45065   0.76761   0.00000  Uiso   1.00
C608   C     0.51206   0.02349   0.74715   0.00000  Uiso   1.00
C609   C     0.50906   0.47516   0.74737   0.00000  Uiso   1.00
C610   C     0.56140   0.11659   0.83409   0.00000  Uiso   1.00
C611   C     0.46251   0.22646   0.54642   0.00000  Uiso   1.00
C612   C     0.40620   0.38435   0.71009   0.00000  Uiso   1.00
C613   C     0.41639   0.20385   0.61298   0.00000  Uiso   1.00
C614   C     0.55484   0.32085   0.88336   0.00000  Uiso   1.00
C615   C     0.58885   0.33835   0.62176   0.00000  Uiso   1.00
C616   C     0.60113   0.37187   0.66239   0.00000  Uiso   1.00
C617   C     0.39620   0.17643   0.86996   0.00000  Uiso   1.00
C618   C     0.38796   0.12862   0.88543   0.00000  Uiso   1.00
C619   C     0.52709   0.28208   0.95227   0.00000  Uiso   1.00
C620   C     0.46172   0.22714   0.59568   0.00000  Uiso   1.00
C621   C     0.52655   0.28270   0.90283   0.00000  Uiso   1.00
C622   C     0.53884   0.27284   0.60842   0.00000  Uiso   1.00
C623   C     0.47398   0.21646   0.89331   0.00000  Uiso   1.00
C624   C     0.54222   0.26983   0.55909   0.00000  Uiso   1.00
H625   H     0.65778   0.24855   0.69465   0.00000  Uiso   1.00
H626   H     0.54593   0.30949   0.97370   0.00000  Uiso   1.00
H627   H     0.57552   0.28500   0.54619   0.00000  Uiso   1.00
H628   H     0.45936   0.18531   0.95817   0.00000  Uiso   1.00
H629   H     0.58842   0.14291   0.82423   0.00000  Uiso   1.00
H630   H     0.53234   0.13156   0.85420   0.00000  Uiso   1.00
H631   H     0.58536   0.09320   0.85826   0.00000  Uiso   1.00
H632   H     0.39187   0.36415   0.73809   0.00000  Uiso   1.00
H633   H     0.37557   0.40888   0.69688   0.00000  Uiso   1.00
H634   H     0.41187   0.36211   0.68001   0.00000  Uiso   1.00
H635   H     0.42983   0.18345   0.64441   0.00000  Uiso   1.00
H636   H     0.34224   0.25431   0.80522   0.00000  Uiso   1.00
H637   H     0.38739   0.22886   0.62061   0.00000  Uiso   1.00
H638   H     0.39548   0.18055   0.58564   0.00000  Uiso   1.00
H639   H     0.57853   0.30907   0.85678   0.00000  Uiso   1.00
H640   H     0.52610   0.34615   0.86827   0.00000  Uiso   1.00
H641   H     0.58275   0.33799   0.91166   0.00000  Uiso   1.00
H642   H     0.55647   0.35249   0.59578   0.00000  Uiso   1.00
H643   H     0.62443   0.33454   0.60456   0.00000  Uiso   1.00
H644   H     0.62933   0.35753   0.69158   0.00000  Uiso   1.00
H645   H     0.61818   0.40294   0.64968   0.00000  Uiso   1.00
H646   H     0.56444   0.38036   0.67600   0.00000  Uiso   1.00
H647   H     0.55279   0.02831   0.81900   0.00000  Uiso   1.00
H648   H     0.37109   0.18105   0.83511   0.00000  Uiso   1.00
H649   H     0.38184   0.20025   0.89523   0.00000  Uiso   1.00
H650   H     0.41286   0.12214   0.91998   0.00000  Uiso   1.00
H651   H     0.34613   0.12312   0.88925   0.00000  Uiso   1.00
H652   H     0.39838   0.10478   0.85845   0.00000  Uiso   1.00
H653   H     0.42751   0.47294   0.71470   0.00000  Uiso   1.00
H654   H     0.46655   0.10956   0.67783   0.00000  Uiso   1.00
H655   H     0.58231   0.38566   0.78509   0.00000  Uiso   1.00
H656   H     0.47207   0.02890   0.67487   0.00000  Uiso   1.00
H657   H     0.58964   0.46700   0.78147   0.00000  Uiso   1.00
H658   H     0.43039   0.21025   0.52323   0.00000  Uiso   1.00
N659   N     0.50000   0.24999   0.62624   0.00000  Uiso   1.00
N660   N     0.50000   0.25001   0.87377   0.00000  Uiso   1.00
O661   O     0.50000   0.18454   0.78974   0.00000  Uiso   1.00
O662   O     0.44925   0.18303   0.86374   0.00000  Uiso   1.00
O663   O     0.50000   0.31547   0.71026   0.00000  Uiso   1.00
O664   O     0.50000   0.18453   0.71026   0.00000  Uiso   1.00
O665   O     0.50000   0.31547   0.78974   0.00000  Uiso   1.00
O666   O     0.42392   0.25000   0.78045   0.00000  Uiso   1.00
O667   O     0.57608   0.25000   0.71956   0.00000  Uiso   1.00
O668   O     0.42392   0.25000   0.70097   0.00000  Uiso   1.00
O669   O     0.57608   0.25001   0.79904   0.00000  Uiso   1.00
O670   O     0.57557   0.29667   0.64009   0.00000  Uiso   1.00
Zn671  Zn    0.50000   0.25001   0.80307   0.00000  Uiso   1.00
Zn672  Zn    0.50000   0.25000   0.69693   0.00000  Uiso   1.00
C673   C     0.83533   0.16392   0.75018   0.00000  Uiso   1.00
C674   C     0.81025   0.21384   0.94339   0.00000  Uiso   1.00
C675   C     0.83639   0.24738   0.52704   0.00000  Uiso   1.00
C676   C     0.83613   0.24738   0.97375   0.00000  Uiso   1.00
C677   C     0.73372   0.25025   0.73751   0.00000  Uiso   1.00
C678   C     0.93295   0.25057   0.76248   0.00000  Uiso   1.00
C679   C     0.67859   0.25042   0.73085   0.00000  Uiso   1.00
C680   C     0.98809   0.25201   0.76906   0.00000  Uiso   1.00
C681   C     0.86834   0.04658   0.78811   0.00000  Uiso   1.00
C682   C     0.79481   0.45362   0.72911   0.00000  Uiso   1.00
C683   C     0.86690   0.09296   0.79009   0.00000  Uiso   1.00
C684   C     0.83333   0.33576   0.75019   0.00000  Uiso   1.00
C685   C     0.79068   0.40737   0.73005   0.00000  Uiso   1.00
C686   C     0.84037   0.11585   0.75031   0.00000  Uiso   1.00
C687   C     0.83470   0.38334   0.75061   0.00000  Uiso   1.00
C688   C     0.81940   0.09243   0.70882   0.00000  Uiso   1.00
C689   C     0.88180   0.40470   0.76975   0.00000  Uiso   1.00
C690   C     0.82228   0.04653   0.70711   0.00000  Uiso   1.00
C691   C     0.88592   0.45065   0.76761   0.00000  Uiso   1.00
C692   C     0.84539   0.02349   0.74715   0.00000  Uiso   1.00
C693   C     0.84240   0.47516   0.74737   0.00000  Uiso   1.00
C694   C     0.89473   0.11659   0.83409   0.00000  Uiso   1.00
C695   C     0.79584   0.22646   0.54642   0.00000  Uiso   1.00
C696   C     0.73954   0.38435   0.71009   0.00000  Uiso   1.00
C697   C     0.74972   0.20385   0.61298   0.00000  Uiso   1.00
C698   C     0.88817   0.32085   0.88336   0.00000  Uiso   1.00
C699   C     0.92218   0.33835   0.62176   0.00000  Uiso   1.00
C700   C     0.93447   0.37187   0.66239   0.00000  Uiso   1.00
C701   C     0.72953   0.17643   0.86996   0.00000  Uiso   1.00
C702   C     0.72129   0.12862   0.88543   0.00000  Uiso   1.00
C703   C     0.86043   0.28208   0.95227   0.00000  Uiso   1.00
C704   C     0.79505   0.22714   0.59568   0.00000  Uiso   1.00
C705   C     0.85989   0.28270   0.90283   0.00000  Uiso   1.00
C706   C     0.87217   0.27284   0.60842   0.00000  Uiso   1.00
C707   C     0.80732   0.21646   0.89331   0.00000  Uiso   1.00
C708   C     0.87556   0.26983   0.55909   0.00000  Uiso   1.00
H709   H     0.99112   0.24855   0.69465   0.00000  Uiso   1.00
H710   H     0.87926   0.30949   0.97370   0.00000  Uiso   1.00
H711   H     0.90885   0.28500   0.54619   0.00000  Uiso   1.00
H712   H     0.79270   0.18531   0.95817   0.00000  Uiso   1.00
H713   H     0.92175   0.14291   0.82423   0.00000  Uiso   1.00
H714   H     0.86567   0.13156   0.85420   0.00000  Uiso   1.00
H715   H     0.91869   0.09320   0.85826   0.00000  Uiso   1.00
H716   H     0.72520   0.36415   0.73809   0.00000  Uiso   1.00
H717   H     0.70890   0.40888   0.69688   0.00000  Uiso   1.00
H718   H     0.74520   0.36211   0.68001   0.00000  Uiso   1.00
H719   H     0.76316   0.18345   0.64441   0.00000  Uiso   1.00
H720   H     0.67558   0.25431   0.80522   0.00000  Uiso   1.00
H721   H     0.72073   0.22886   0.62061   0.00000  Uiso   1.00
H722   H     0.72881   0.18055   0.58564   0.00000  Uiso   1.00
H723   H     0.91186   0.30907   0.85678   0.00000  Uiso   1.00
H724   H     0.85943   0.34615   0.86827   0.00000  Uiso   1.00
H725   H     0.91609   0.33799   0.91166   0.00000  Uiso   1.00
H726   H     0.88980   0.35249   0.59578   0.00000  Uiso   1.00
H727   H     0.95776   0.33454   0.60456   0.00000  Uiso   1.00
H728   H     0.96267   0.35753   0.69158   0.00000  Uiso   1.00
H729   H     0.95151   0.40294   0.64968   0.00000  Uiso   1.00
H730   H     0.89777   0.38036   0.67600   0.00000  Uiso   1.00
H731   H     0.88613   0.02831   0.81900   0.00000  Uiso   1.00
H732   H     0.70442   0.18105   0.83511   0.00000  Uiso   1.00
H733   H     0.71518   0.20025   0.89523   0.00000  Uiso   1.00
H734   H     0.74619   0.12214   0.91998   0.00000  Uiso   1.00
H735   H     0.67946   0.12312   0.88925   0.00000  Uiso   1.00
H736   H     0.73171   0.10478   0.85845   0.00000  Uiso   1.00
H737   H     0.76084   0.47294   0.71470   0.00000  Uiso   1.00
H738   H     0.79988   0.10956   0.67783   0.00000  Uiso   1.00
H739   H     0.91565   0.38566   0.78509   0.00000  Uiso   1.00
H740   H     0.80540   0.02890   0.67487   0.00000  Uiso   1.00
H741   H     0.92298   0.46700   0.78147   0.00000  Uiso   1.00
H742   H     0.76372   0.21025   0.52323   0.00000  Uiso   1.00
N743   N     0.83333   0.24999   0.62624   0.00000  Uiso   1.00
N744   N     0.83333   0.25001   0.87377   0.00000  Uiso   1.00
O745   O     0.83334   0.18454   0.78974   0.00000  Uiso   1.00
O746   O     0.78258   0.18303   0.86374   0.00000  Uiso   1.00
O747   O     0.83333   0.31547   0.71026   0.00000  Uiso   1.00
O748   O     0.83334   0.18453   0.71026   0.00000  Uiso   1.00
O749   O     0.83333   0.31547   0.78974   0.00000  Uiso   1.00
O750   O     0.75725   0.25000   0.78045   0.00000  Uiso   1.00
O751   O     0.90942   0.25000   0.71956   0.00000  Uiso   1.00
O752   O     0.75725   0.25000   0.70097   0.00000  Uiso   1.00
O753   O     0.90942   0.25001   0.79904   0.00000  Uiso   1.00
O754   O     0.90890   0.29667   0.64009   0.00000  Uiso   1.00
Zn755  Zn    0.83333   0.25001   0.80307   0.00000  Uiso   1.00
Zn756  Zn    0.83333   0.25000   0.69693   0.00000  Uiso   1.00
C757   C     0.16866   0.66392   0.75018   0.00000  Uiso   1.00
C758   C     0.14359   0.71384   0.94339   0.00000  Uiso   1.00
C759   C     0.16972   0.74738   0.52704   0.00000  Uiso   1.00
C760   C     0.16946   0.74738   0.97375   0.00000  Uiso   1.00
C761   C     0.06706   0.75025   0.73751   0.00000  Uiso   1.00
C762   C     0.26628   0.75057   0.76248   0.00000  Uiso   1.00
C763   C     0.01192   0.75042   0.73085   0.00000  Uiso   1.00
C764   C     0.32142   0.75201   0.76906   0.00000  Uiso   1.00
C765   C     0.20168   0.54658   0.78811   0.00000  Uiso   1.00
C766   C     0.12814   0.95362   0.72911   0.00000  Uiso   1.00
C767   C     0.20023   0.59296   0.79009   0.00000  Uiso   1.00
C768   C     0.16667   0.83576   0.75019   0.00000  Uiso   1.00
C769   C     0.12402   0.90737   0.73005   0.00000  Uiso   1.00
C770   C     0.17371   0.61585   0.75031   0.00000  Uiso   1.00
C771   C     0.16804   0.88334   0.75061   0.00000  Uiso   1.00
C772   C     0.15273   0.59243   0.70882   0.00000  Uiso   1.00
C773   C     0.21513   0.90470   0.76975   0.00000  Uiso   1.00
C774   C     0.15561   0.54653   0.70711   0.00000  Uiso   1.00
C775   C     0.21925   0.95065   0.76761   0.00000  Uiso   1.00
C776   C     0.17872   0.52349   0.74715   0.00000  Uiso   1.00
C777   C     0.17573   0.97516   0.74737   0.00000  Uiso   1.00
C778   C     0.22806   0.61659   0.83409   0.00000  Uiso   1.00
C779   C     0.12917   0.72646   0.54642   0.00000  Uiso   1.00
C780   C     0.07287   0.88435   0.71009   0.00000  Uiso   1.00
C781   C     0.08306   0.70385   0.61298   0.00000  Uiso   1.00
C782   C     0.22150   0.82085   0.88336   0.00000  Uiso   1.00
C783   C     0.25552   0.83835   0.62176   0.00000  Uiso   1.00
C784   C     0.26780   0.87187   0.66239   0.00000  Uiso   1.00
C785   C     0.06286   0.67643   0.86996   0.00000  Uiso   1.00
C786   C     0.05463   0.62862   0.88543   0.00000  Uiso   1.00
C787   C     0.19376   0.78208   0.95227   0.00000  Uiso   1.00
C788   C     0.12839   0.72714   0.59568   0.00000  Uiso   1.00
C789   C     0.19322   0.78270   0.90283   0.00000  Uiso   1.00
C790   C     0.20550   0.77284   0.60842   0.00000  Uiso   1.00
C791   C     0.14065   0.71646   0.89331   0.00000  Uiso   1.00
C792   C     0.20889   0.76983   0.55909   0.00000  Uiso   1.00
H793   H     0.32445   0.74855   0.69465   0.00000  Uiso   1.00
H794   H     0.21259   0.80949   0.97370   0.00000  Uiso   1.00
H795   H     0.24219   0.78500   0.54619   0.00000  Uiso   1.00
H796   H     0.12603   0.68531   0.95817   0.00000  Uiso   1.00
H797   H     0.25509   0.64291   0.82423   0.00000  Uiso   1.00
H798   H     0.19900   0.63156   0.85420   0.00000  Uiso   1.00
H799   H     0.25202   0.59320   0.85826   0.00000  Uiso   1.00
H800   H     0.05854   0.86415   0.73809   0.00000  Uiso   1.00
H801   H     0.04223   0.90888   0.69688   0.00000  Uiso   1.00
H802   H     0.07853   0.86211   0.68001   0.00000  Uiso   1.00
H803   H     0.09649   0.68345   0.64441   0.00000  Uiso   1.00
H804   H     0.00891   0.75431   0.80522   0.00000  Uiso   1.00
H805   H     0.05406   0.72886   0.62061   0.00000  Uiso   1.00
H806   H     0.06215   0.68055   0.58564   0.00000  Uiso   1.00
H807   H     0.24520   0.80907   0.85678   0.00000  Uiso   1.00
H808   H     0.19277   0.84615   0.86827   0.00000  Uiso   1.00
H809   H     0.24942   0.83799   0.91166   0.00000  Uiso   1.00
H810   H     0.22314   0.85249   0.59578   0.00000  Uiso   1.00
H811   H     0.29110   0.83454   0.60456   0.00000  Uiso   1.00
H812   H     0.29600   0.85753   0.69158   0.00000  Uiso   1.00
H813   H     0.28485   0.90294   0.64968   0.00000  Uiso   1.00
H814   H     0.23111   0.88036   0.67600   0.00000  Uiso   1.00
H815   H     0.21946   0.52831   0.81900   0.00000  Uiso   1.00
H816   H     0.03776   0.68105   0.83511   0.00000  Uiso   1.00
H817   H     0.04851   0.70025   0.89523   0.00000  Uiso   1.00
H818   H     0.07952   0.62214   0.91998   0.00000  Uiso   1.00
H819   H     0.01280   0.62312   0.88925   0.00000  Uiso   1.00
H820   H     0.06505   0.60478   0.85845   0.00000  Uiso   1.00
H821   H     0.09418   0.97294   0.71470   0.00000  Uiso   1.00
H822   H     0.13322   0.60956   0.67783   0.00000  Uiso   1.00
H823   H     0.24898   0.88566   0.78509   0.00000  Uiso   1.00
H824   H     0.13873   0.52890   0.67487   0.00000  Uiso   1.00
H825   H     0.25631   0.96700   0.78147   0.00000  Uiso   1.00
H826   H     0.09705   0.71025   0.52323   0.00000  Uiso   1.00
N827   N     0.16667   0.74999   0.62624   0.00000  Uiso   1.00
N828   N     0.16667   0.75001   0.87377   0.00000  Uiso   1.00
O829   O     0.16667   0.68454   0.78974   0.00000  Uiso   1.00
O830   O     0.11591   0.68303   0.86374   0.00000  Uiso   1.00
O831   O     0.16666   0.81547   0.71026   0.00000  Uiso   1.00
O832   O     0.16667   0.68453   0.71026   0.00000  Uiso   1.00
O833   O     0.16666   0.81547   0.78974   0.00000  Uiso   1.00
O834   O     0.09058   0.75000   0.78045   0.00000  Uiso   1.00
O835   O     0.24275   0.75000   0.71956   0.00000  Uiso   1.00
O836   O     0.09058   0.75000   0.70097   0.00000  Uiso   1.00
O837   O     0.24275   0.75001   0.79904   0.00000  Uiso   1.00
O838   O     0.24224   0.79667   0.64009   0.00000  Uiso   1.00
Zn839  Zn    0.16667   0.75001   0.80307   0.00000  Uiso   1.00
Zn840  Zn    0.16667   0.75000   0.69693   0.00000  Uiso   1.00
C841   C     0.50199   0.66392   0.75018   0.00000  Uiso   1.00
C842   C     0.47692   0.71384   0.94339   0.00000  Uiso   1.00
C843   C     0.50306   0.74738   0.52704   0.00000  Uiso   1.00
C844   C     0.50280   0.74738   0.97375   0.00000  Uiso   1.00
C845   C     0.40039   0.75025   0.73751   0.00000  Uiso   1.00
C846   C     0.59962   0.75057   0.76248   0.00000  Uiso   1.00
C847   C     0.34525   0.75042   0.73085   0.00000  Uiso   1.00
C848   C     0.65476   0.75201   0.76906   0.00000  Uiso   1.00
C849   C     0.53501   0.54658   0.78811   0.00000  Uiso   1.00
C850   C     0.46148   0.95362   0.72911   0.00000  Uiso   1.00
C851   C     0.53357   0.59296   0.79009   0.00000  Uiso   1.00
C852   C     0.50000   0.83576   0.75019   0.00000  Uiso   1.00
C853   C     0.45735   0.90737   0.73005   0.00000  Uiso   1.00
C854   C     0.50704   0.61585   0.75031   0.00000  Uiso   1.00
C855   C     0.50137   0.88334   0.75061   0.00000  Uiso   1.00
C856   C     0.48607   0.59243   0.70882   0.00000  Uiso   1.00
C857   C     0.54846   0.90470   0.76975   0.00000  Uiso   1.00
C858   C     0.48894   0.54653   0.70711   0.00000  Uiso   1.00
C859   C     0.55259   0.95065   0.76761   0.00000  Uiso   1.00
C860   C     0.51206   0.52349   0.74715   0.00000  Uiso   1.00
C861   C     0.50906   0.97516   0.74737   0.00000  Uiso   1.00
C862   C     0.56140   0.61659   0.83409   0.00000  Uiso   1.00
C863   C     0.46251   0.72646   0.54642   0.00000  Uiso   1.00
C864   C     0.40620   0.88435   0.71009   0.00000  Uiso   1.00
C865   C     0.41639   0.70385   0.61298   0.00000  Uiso   1.00
C866   C     0.55484   0.82085   0.88336   0.00000  Uiso   1.00
C867   C     0.58885   0.83835   0.62176   0.00000  Uiso   1.00
C868   C     0.60113   0.87187   0.66239   0.00000  Uiso   1.00
C869   C     0.39620   0.67643   0.86996   0.00000  Uiso   1.00
C870   C     0.38796   0.62862   0.88543   0.00000  Uiso   1.00
C871   C     0.52709   0.78208   0.95227   0.00000  Uiso   1.00
C872   C     0.46172   0.72714   0.59568   0.00000  Uiso   1.00
C873   C     0.52655   0.78270   0.90283   0.00000  Uiso   1.00
C874   C     0.53884   0.77284   0.60842   0.00000  Uiso   1.00
C875   C     0.47398   0.71646   0.89331   0.00000  Uiso   1.00
C876   C     0.54222   0.76983   0.55909   0.00000  Uiso   1.00
H877   H     0.65778   0.74855   0.69465   0.00000  Uiso   1.00
H878   H     0.54593   0.80949   0.97370   0.00000  Uiso   1.00
H879   H     0.57552   0.78500   0.54619   0.00000  Uiso   1.00
H880   H     0.45936   0.68531   0.95817   0.00000  Uiso   1.00
H881   H     0.58842   0.64291   0.82423   0.00000  Uiso   1.00
H882   H     0.53234   0.63156   0.85420   0.00000  Uiso   1.00
H883   H     0.58536   0.59320   0.85826   0.00000  Uiso   1.00
H884   H     0.39187   0.86415   0.73809   0.00000  Uiso   1.00
H885   H     0.37557   0.90888   0.69688   0.00000  Uiso   1.00
H886   H     0.41187   0.86211   0.68001   0.00000  Uiso   1.00
H887   H     0.42983   0.68345   0.64441   0.00000  Uiso   1.00
H888   H     0.34224   0.75431   0.80522   0.00000  Uiso   1.00
H889   H     0.38739   0.72886   0.62061   0.00000  Uiso   1.00
H890   H     0.39548   0.68055   0.58564   0.00000  Uiso   1.00
H891   H     0.57853   0.80907   0.85678   0.00000  Uiso   1.00
H892   H     0.52610   0.84615   0.86827   0.00000  Uiso   1.00
H893   H     0.58275   0.83799   0.91166   0.00000  Uiso   1.00
H894   H     0.55647   0.85249   0.59578   0.00000  Uiso   1.00
H895   H     0.62443   0.83454   0.60456   0.00000  Uiso   1.00
H896   H     0.62933   0.85753   0.69158   0.00000  Uiso   1.00
H897   H     0.61818   0.90294   0.64968   0.00000  Uiso   1.00
H898   H     0.56444   0.88036   0.67600   0.00000  Uiso   1.00
H899   H     0.55279   0.52831   0.81900   0.00000  Uiso   1.00
H900   H     0.37109   0.68105   0.83511   0.00000  Uiso   1.00
H901   H     0.38184   0.70025   0.89523   0.00000  Uiso   1.00
H902   H     0.41286   0.62214   0.91998   0.00000  Uiso   1.00
H903   H     0.34613   0.62312   0.88925   0.00000  Uiso   1.00
H904   H     0.39838   0.60478   0.85845   0.00000  Uiso   1.00
H905   H     0.42751   0.97294   0.71470   0.00000  Uiso   1.00
H906   H     0.46655   0.60956   0.67783   0.00000  Uiso   1.00
H907   H     0.58231   0.88566   0.78509   0.00000  Uiso   1.00
H908   H     0.47207   0.52890   0.67487   0.00000  Uiso   1.00
H909   H     0.58964   0.96700   0.78147   0.00000  Uiso   1.00
H910   H     0.43039   0.71025   0.52323   0.00000  Uiso   1.00
N911   N     0.50000   0.74999   0.62624   0.00000  Uiso   1.00
N912   N     0.50000   0.75001   0.87377   0.00000  Uiso   1.00
O913   O     0.50000   0.68454   0.78974   0.00000  Uiso   1.00
O914   O     0.44925   0.68303   0.86374   0.00000  Uiso   1.00
O915   O     0.50000   0.81547   0.71026   0.00000  Uiso   1.00
O916   O     0.50000   0.68453   0.71026   0.00000  Uiso   1.00
O917   O     0.50000   0.81547   0.78974   0.00000  Uiso   1.00
O918   O     0.42392   0.75000   0.78045   0.00000  Uiso   1.00
O919   O     0.57608   0.75000   0.71956   0.00000  Uiso   1.00
O920   O     0.42392   0.75000   0.70097   0.00000  Uiso   1.00
O921   O     0.57608   0.75001   0.79904   0.00000  Uiso   1.00
O922   O     0.57557   0.79667   0.64009   0.00000  Uiso   1.00
Zn923  Zn    0.50000   0.75001   0.80307   0.00000  Uiso   1.00
Zn924  Zn    0.50000   0.75000   0.69693   0.00000  Uiso   1.00
C925   C     0.83533   0.66392   0.75018   0.00000  Uiso   1.00
C926   C     0.81025   0.71384   0.94339   0.00000  Uiso   1.00
C927   C     0.83639   0.74738   0.52704   0.00000  Uiso   1.00
C928   C     0.83613   0.74738   0.97375   0.00000  Uiso   1.00
C929   C     0.73372   0.75025   0.73751   0.00000  Uiso   1.00
C930   C     0.93295   0.75057   0.76248   0.00000  Uiso   1.00
C931   C     0.67859   0.75042   0.73085   0.00000  Uiso   1.00
C932   C     0.98809   0.75201   0.76906   0.00000  Uiso   1.00
C933   C     0.86834   0.54658   0.78811   0.00000  Uiso   1.00
C934   C     0.79481   0.95362   0.72911   0.00000  Uiso   1.00
C935   C     0.86690   0.59296   0.79009   0.00000  Uiso   1.00
C936   C     0.83333   0.83576   0.75019   0.00000  Uiso   1.00
C937   C     0.79068   0.90737   0.73005   0.00000  Uiso   1.00
C938   C     0.84037   0.61585   0.75031   0.00000  Uiso   1.00
C939   C     0.83470   0.88334   0.75061   0.00000  Uiso   1.00
C940   C     0.81940   0.59243   0.70882   0.00000  Uiso   1.00
C941   C     0.88180   0.90470   0.76975   0.00000  Uiso   1.00
C942   C     0.82228   0.54653   0.70711   0.00000  Uiso   1.00
C943   C     0.88592   0.95065   0.76761   0.00000  Uiso   1.00
C944   C     0.84539   0.52349   0.74715   0.00000  Uiso   1.00
C945   C     0.84240   0.97516   0.74737   0.00000  Uiso   1.00
C946   C     0.89473   0.61659   0.83409   0.00000  Uiso   1.00
C947   C     0.79584   0.72646   0.54642   0.00000  Uiso   1.00
C948   C     0.73954   0.88435   0.71009   0.00000  Uiso   1.00
C949   C     0.74972   0.70385   0.61298   0.00000  Uiso   1.00
C950   C     0.88817   0.82085   0.88336   0.00000  Uiso   1.00
C951   C     0.92218   0.83835   0.62176   0.00000  Uiso   1.00
C952   C     0.93447   0.87187   0.66239   0.00000  Uiso   1.00
C953   C     0.72953   0.67643   0.86996   0.00000  Uiso   1.00
C954   C     0.72129   0.62862   0.88543   0.00000  Uiso   1.00
C955   C     0.86043   0.78208   0.95227   0.00000  Uiso   1.00
C956   C     0.79505   0.72714   0.59568   0.00000  Uiso   1.00
C957   C     0.85989   0.78270   0.90283   0.00000  Uiso   1.00
C958   C     0.87217   0.77284   0.60842   0.00000  Uiso   1.00
C959   C     0.80732   0.71646   0.89331   0.00000  Uiso   1.00
C960   C     0.87556   0.76983   0.55909   0.00000  Uiso   1.00
H961   H     0.99112   0.74855   0.69465   0.00000  Uiso   1.00
H962   H     0.87926   0.80949   0.97370   0.00000  Uiso   1.00
H963   H     0.90885   0.78500   0.54619   0.00000  Uiso   1.00
H964   H     0.79270   0.68531   0.95817   0.00000  Uiso   1.00
H965   H     0.92175   0.64291   0.82423   0.00000  Uiso   1.00
H966   H     0.86567   0.63156   0.85420   0.00000  Uiso   1.00
H967   H     0.91869   0.59320   0.85826   0.00000  Uiso   1.00
H968   H     0.72520   0.86415   0.73809   0.00000  Uiso   1.00
H969   H     0.70890   0.90888   0.69688   0.00000  Uiso   1.00
H970   H     0.74520   0.86211   0.68001   0.00000  Uiso   1.00
H971   H     0.76316   0.68345   0.64441   0.00000  Uiso   1.00
H972   H     0.67558   0.75431   0.80522   0.00000  Uiso   1.00
H973   H     0.72073   0.72886   0.62061   0.00000  Uiso   1.00
H974   H     0.72881   0.68055   0.58564   0.00000  Uiso   1.00
H975   H     0.91186   0.80907   0.85678   0.00000  Uiso   1.00
H976   H     0.85943   0.84615   0.86827   0.00000  Uiso   1.00
H977   H     0.91609   0.83799   0.91166   0.00000  Uiso   1.00
H978   H     0.88980   0.85249   0.59578   0.00000  Uiso   1.00
H979   H     0.95776   0.83454   0.60456   0.00000  Uiso   1.00
H980   H     0.96267   0.85753   0.69158   0.00000  Uiso   1.00
H981   H     0.95151   0.90294   0.64968   0.00000  Uiso   1.00
H982   H     0.89777   0.88036   0.67600   0.00000  Uiso   1.00
H983   H     0.88613   0.52831   0.81900   0.00000  Uiso   1.00
H984   H     0.70442   0.68105   0.83511   0.00000  Uiso   1.00
H985   H     0.71518   0.70025   0.89523   0.00000  Uiso   1.00
H986   H     0.74619   0.62214   0.91998   0.00000  Uiso   1.00
H987   H     0.67946   0.62312   0.88925   0.00000  Uiso   1.00
H988   H     0.73171   0.60478   0.85845   0.00000  Uiso   1.00
H989   H     0.76084   0.97294   0.71470   0.00000  Uiso   1.00
H990   H     0.79988   0.60956   0.67783   0.00000  Uiso   1.00
H991   H     0.91565   0.88566   0.78509   0.00000  Uiso   1.00
H992   H     0.80540   0.52890   0.67487   0.00000  Uiso   1.00
H993   H     0.92298   0.96700   0.78147   0.00000  Uiso   1.00
H994   H     0.76372   0.71025   0.52323   0.00000  Uiso   1.00
N995   N     0.83333   0.74999   0.62624   0.00000  Uiso   1.00
N996   N     0.83333   0.75001   0.87377   0.00000  Uiso   1.00
O997   O     0.83334   0.68454   0.78974   0.00000  Uiso   1.00
O998   O     0.78258   0.68303   0.86374   0.00000  Uiso   1.00
O999   O     0.83333   0.81547   0.71026   0.00000  Uiso   1.00
O1000  O     0.83334   0.68453   0.71026   0.00000  Uiso   1.00
O1001  O     0.83333   0.81547   0.78974   0.00000  Uiso   1.00
O1002  O     0.75725   0.75000   0.78045   0.00000  Uiso   1.00
O1003  O     0.90942   0.75000   0.71956   0.00000  Uiso   1.00
O1004  O     0.75725   0.75000   0.70097   0.00000  Uiso   1.00
O1005  O     0.90942   0.75001   0.79904   0.00000  Uiso   1.00
O1006  O     0.90890   0.79667   0.64009   0.00000  Uiso   1.00
Zn1007 Zn    0.83333   0.75001   0.80307   0.00000  Uiso   1.00
Zn1008 Zn    0.83333   0.75000   0.69693   0.00000  Uiso   1.00
loop_
_geom_bond_atom_site_label_1
_geom_bond_atom_site_label_2
_geom_bond_distance
_geom_bond_site_symmetry_2
_ccdc_geom_bond_type
C1     O76     1.294   .     A
C1     O73     1.290   .     A
C1     C14     1.446   .     S
C2     C35     1.422   .     A
C2     C4      1.410   .     A
C2     H40     1.080   .     S
C3     C23     1.399   .     A
C3     C36     1.410   .     A
C3     C508    1.519   1_554 S
C4     C31     1.399   .     A
C4     C507    1.519   .     S
C5     C7      1.403   .     S
C5     O80     1.285   .     A
C5     O78     1.280   .     A
C6     O81     1.286   .     A
C6     C8      1.403   .     S
C6     O79     1.279   .     A
C7     C176    1.333   1_455 S
C7     H205    1.088   1_455 S
C8     C91     1.333   .     S
C8     H132    1.087   .     S
C9     H59     1.084   .     S
C9     C20     1.397   .     A
C9     C11     1.390   .     A
C10    C21     1.401   .     A
C10    H65     1.084   .     S
C10    C13     1.387   .     A
C11    C14     1.417   .     A
C11    C22     1.510   .     S
C12    O77     1.286   .     A
C12    C15     1.423   .     S
C12    O75     1.286   .     A
C13    C24     1.506   .     S
C13    C15     1.404   .     A
C14    C16     1.400   .     A
C15    C17     1.395   .     A
C16    H66     1.083   .     S
C16    C18     1.377   .     A
C17    H67     1.084   .     S
C17    C19     1.380   .     A
C18    H68     1.084   .     S
C18    C20     1.396   .     A
C19    C21     1.399   .     A
C19    H69     1.083   .     S
C20    C273    1.447   1_545 S
C21    C272    1.447   .     S
C22    H41     1.111   .     S
C22    H43     1.111   .     S
C22    H42     1.109   .     S
C23    H70     1.082   .     S
C23    C32     1.409   .     A
C24    H45     1.110   .     S
C24    H44     1.111   .     S
C24    H46     1.110   .     S
C25    H50     1.111   .     S
C25    H47     1.102   .     S
C25    C32     1.502   .     S
C25    H49     1.108   .     S
C26    C33     1.502   .     S
C26    H52     1.108   .     S
C26    H53     1.111   .     S
C26    H51     1.103   .     S
C27    H54     1.117   .     S
C27    H55     1.112   .     S
C27    O82     1.415   .     S
C27    C28     1.519   .     S
C28    H56     1.110   .     S
C28    H57     1.110   .     S
C28    H58     1.108   .     S
C29    H61     1.116   .     S
C29    O74     1.417   .     S
C29    C30     1.522   .     S
C29    H60     1.110   .     S
C30    H64     1.111   .     S
C30    H63     1.110   .     S
C30    H62     1.109   .     S
C31    C33     1.409   .     A
C31    H38     1.082   .     S
C32    N71     1.380   .     A
C33    N72     1.380   .     A
C34    C36     1.426   .     A
C34    O82     1.387   .     S
C34    N71     1.368   .     A
C35    O74     1.385   .     S
C35    N72     1.369   .     A
C36    H39     1.080   .     S
H37    C91     1.088   .     S
H48    C176    1.087   1_455 S
N71    Zn84    2.017   .     S
N72    Zn83    2.017   .     S
O73    Zn83    1.992   .     S
O75    Zn84    1.992   .     S
O76    Zn84    1.999   .     S
O77    Zn83    1.999   .     S
O78    Zn83    1.966   .     S
O79    Zn84    1.966   .     S
O80    Zn84    1.981   .     S
O81    Zn83    1.981   .     S
C85    O160    1.294   .     A
C85    O157    1.290   .     A
C85    C98     1.446   .     S
C86    C119    1.422   .     A
C86    C88     1.410   .     A
C86    H124    1.080   .     S
C87    C107    1.399   .     A
C87    C120    1.410   .     A
C87    C592    1.519   1_554 S
C88    C115    1.399   .     A
C88    C591    1.519   .     S
C89    C91     1.403   .     S
C89    O164    1.285   .     A
C89    O162    1.280   .     A
C90    O165    1.286   .     A
C90    C92     1.403   .     S
C90    O163    1.279   .     A
C92    C175    1.333   .     S
C92    H216    1.087   .     S
C93    H143    1.084   .     S
C93    C104    1.397   .     A
C93    C95     1.390   .     A
C94    C105    1.401   .     A
C94    H149    1.084   .     S
C94    C97     1.387   .     A
C95    C98     1.417   .     A
C95    C106    1.510   .     S
C96    O161    1.286   .     A
C96    C99     1.423   .     S
C96    O159    1.286   .     A
C97    C108    1.506   .     S
C97    C99     1.404   .     A
C98    C100    1.400   .     A
C99    C101    1.395   .     A
C100   H150    1.083   .     S
C100   C102    1.377   .     A
C101   H151    1.084   .     S
C101   C103    1.380   .     A
C102   H152    1.084   .     S
C102   C104    1.396   .     A
C103   C105    1.399   .     A
C103   H153    1.083   .     S
C104   C357    1.447   1_545 S
C105   C356    1.447   .     S
C106   H125    1.111   .     S
C106   H127    1.111   .     S
C106   H126    1.109   .     S
C107   H154    1.082   .     S
C107   C116    1.409   .     A
C108   H129    1.110   .     S
C108   H128    1.111   .     S
C108   H130    1.110   .     S
C109   H134    1.111   .     S
C109   H131    1.102   .     S
C109   C116    1.502   .     S
C109   H133    1.108   .     S
C110   C117    1.502   .     S
C110   H136    1.108   .     S
C110   H137    1.111   .     S
C110   H135    1.103   .     S
C111   H138    1.117   .     S
C111   H139    1.112   .     S
C111   O166    1.415   .     S
C111   C112    1.519   .     S
C112   H140    1.110   .     S
C112   H141    1.110   .     S
C112   H142    1.108   .     S
C113   H145    1.116   .     S
C113   O158    1.417   .     S
C113   C114    1.522   .     S
C113   H144    1.110   .     S
C114   H148    1.111   .     S
C114   H147    1.110   .     S
C114   H146    1.109   .     S
C115   C117    1.409   .     A
C115   H122    1.082   .     S
C116   N155    1.380   .     A
C117   N156    1.380   .     A
C118   C120    1.426   .     A
C118   O166    1.387   .     S
C118   N155    1.368   .     A
C119   O158    1.385   .     S
C119   N156    1.369   .     A
C120   H123    1.080   .     S
H121   C175    1.088   .     S
N155   Zn168   2.017   .     S
N156   Zn167   2.017   .     S
O157   Zn167   1.992   .     S
O159   Zn168   1.992   .     S
O160   Zn168   1.999   .     S
O161   Zn167   1.999   .     S
O162   Zn167   1.966   .     S
O163   Zn168   1.966   .     S
O164   Zn168   1.981   .     S
O165   Zn167   1.981   .     S
C169   O244    1.294   .     A
C169   O241    1.290   .     A
C169   C182    1.446   .     S
C170   C203    1.422   .     A
C170   C172    1.410   .     A
C170   H208    1.080   .     S
C171   C191    1.399   .     A
C171   C204    1.410   .     A
C171   C676    1.519   1_554 S
C172   C199    1.399   .     A
C172   C675    1.519   .     S
C173   C175    1.403   .     S
C173   O248    1.285   .     A
C173   O246    1.280   .     A
C174   O249    1.286   .     A
C174   C176    1.403   .     S
C174   O247    1.279   .     A
C176   C7      1.333   1_655 S
C176   H48     1.087   1_655 S
C177   H227    1.084   .     S
C177   C188    1.397   .     A
C177   C179    1.390   .     A
C178   C189    1.401   .     A
C178   H233    1.084   .     S
C178   C181    1.387   .     A
C179   C182    1.417   .     A
C179   C190    1.510   .     S
C180   O245    1.286   .     A
C180   C183    1.423   .     S
C180   O243    1.286   .     A
C181   C192    1.506   .     S
C181   C183    1.404   .     A
C182   C184    1.400   .     A
C183   C185    1.395   .     A
C184   H234    1.083   .     S
C184   C186    1.377   .     A
C185   H235    1.084   .     S
C185   C187    1.380   .     A
C186   H236    1.084   .     S
C186   C188    1.396   .     A
C187   C189    1.399   .     A
C187   H237    1.083   .     S
C188   C441    1.447   1_545 S
C189   C440    1.447   .     S
C190   H209    1.111   .     S
C190   H211    1.111   .     S
C190   H210    1.109   .     S
C191   H238    1.082   .     S
C191   C200    1.409   .     A
C192   H213    1.110   .     S
C192   H212    1.111   .     S
C192   H214    1.110   .     S
C193   H218    1.111   .     S
C193   H215    1.102   .     S
C193   C200    1.502   .     S
C193   H217    1.108   .     S
C194   C201    1.502   .     S
C194   H220    1.108   .     S
C194   H221    1.111   .     S
C194   H219    1.103   .     S
C195   H222    1.117   .     S
C195   H223    1.112   .     S
C195   O250    1.415   .     S
C195   C196    1.519   .     S
C196   H224    1.110   .     S
C196   H225    1.110   .     S
C196   H226    1.108   .     S
C197   H229    1.116   .     S
C197   O242    1.417   .     S
C197   C198    1.522   .     S
C197   H228    1.110   .     S
C198   H232    1.111   .     S
C198   H231    1.110   .     S
C198   H230    1.109   .     S
C199   C201    1.409   .     A
C199   H206    1.082   .     S
C200   N239    1.380   .     A
C201   N240    1.380   .     A
C202   C204    1.426   .     A
C202   O250    1.387   .     S
C202   N239    1.368   .     A
C203   O242    1.385   .     S
C203   N240    1.369   .     A
C204   H207    1.080   .     S
H205   C7      1.088   1_655 S
N239   Zn252   2.017   .     S
N240   Zn251   2.017   .     S
O241   Zn251   1.992   .     S
O243   Zn252   1.992   .     S
O244   Zn252   1.999   .     S
O245   Zn251   1.999   .     S
O246   Zn251   1.966   .     S
O247   Zn252   1.966   .     S
O248   Zn252   1.981   .     S
O249   Zn251   1.981   .     S
C253   O328    1.294   .     A
C253   O325    1.290   .     A
C253   C266    1.446   .     S
C254   C287    1.422   .     A
C254   C256    1.410   .     A
C254   H292    1.080   .     S
C255   C275    1.399   .     A
C255   C288    1.410   .     A
C255   C760    1.519   1_554 S
C256   C283    1.399   .     A
C256   C759    1.519   .     S
C257   C259    1.403   .     S
C257   O332    1.285   .     A
C257   O330    1.280   .     A
C258   O333    1.286   .     A
C258   C260    1.403   .     S
C258   O331    1.279   .     A
C259   C428    1.333   1_455 S
C259   H457    1.088   1_455 S
C260   C343    1.333   .     S
C260   H384    1.087   .     S
C261   H311    1.084   .     S
C261   C272    1.397   .     A
C261   C263    1.390   .     A
C262   C273    1.401   .     A
C262   H317    1.084   .     S
C262   C265    1.387   .     A
C263   C266    1.417   .     A
C263   C274    1.510   .     S
C264   O329    1.286   .     A
C264   C267    1.423   .     S
C264   O327    1.286   .     A
C265   C276    1.506   .     S
C265   C267    1.404   .     A
C266   C268    1.400   .     A
C267   C269    1.395   .     A
C268   H318    1.083   .     S
C268   C270    1.377   .     A
C269   H319    1.084   .     S
C269   C271    1.380   .     A
C270   H320    1.084   .     S
C270   C272    1.396   .     A
C271   C273    1.399   .     A
C271   H321    1.083   .     S
C273   C20     1.447   1_565 S
C274   H293    1.111   .     S
C274   H295    1.111   .     S
C274   H294    1.109   .     S
C275   H322    1.082   .     S
C275   C284    1.409   .     A
C276   H297    1.110   .     S
C276   H296    1.111   .     S
C276   H298    1.110   .     S
C277   H302    1.111   .     S
C277   H299    1.102   .     S
C277   C284    1.502   .     S
C277   H301    1.108   .     S
C278   C285    1.502   .     S
C278   H304    1.108   .     S
C278   H305    1.111   .     S
C278   H303    1.103   .     S
C279   H306    1.117   .     S
C279   H307    1.112   .     S
C279   O334    1.415   .     S
C279   C280    1.519   .     S
C280   H308    1.110   .     S
C280   H309    1.110   .     S
C280   H310    1.108   .     S
C281   H313    1.116   .     S
C281   O326    1.417   .     S
C281   C282    1.522   .     S
C281   H312    1.110   .     S
C282   H316    1.111   .     S
C282   H315    1.110   .     S
C282   H314    1.109   .     S
C283   C285    1.409   .     A
C283   H290    1.082   .     S
C284   N323    1.380   .     A
C285   N324    1.380   .     A
C286   C288    1.426   .     A
C286   O334    1.387   .     S
C286   N323    1.368   .     A
C287   O326    1.385   .     S
C287   N324    1.369   .     A
C288   H291    1.080   .     S
H289   C343    1.088   .     S
H300   C428    1.087   1_455 S
N323   Zn336   2.017   .     S
N324   Zn335   2.017   .     S
O325   Zn335   1.992   .     S
O327   Zn336   1.992   .     S
O328   Zn336   1.999   .     S
O329   Zn335   1.999   .     S
O330   Zn335   1.966   .     S
O331   Zn336   1.966   .     S
O332   Zn336   1.981   .     S
O333   Zn335   1.981   .     S
C337   O412    1.294   .     A
C337   O409    1.290   .     A
C337   C350    1.446   .     S
C338   C371    1.422   .     A
C338   C340    1.410   .     A
C338   H376    1.080   .     S
C339   C359    1.399   .     A
C339   C372    1.410   .     A
C339   C844    1.519   1_554 S
C340   C367    1.399   .     A
C340   C843    1.519   .     S
C341   C343    1.403   .     S
C341   O416    1.285   .     A
C341   O414    1.280   .     A
C342   O417    1.286   .     A
C342   C344    1.403   .     S
C342   O415    1.279   .     A
C344   C427    1.333   .     S
C344   H468    1.087   .     S
C345   H395    1.084   .     S
C345   C356    1.397   .     A
C345   C347    1.390   .     A
C346   C357    1.401   .     A
C346   H401    1.084   .     S
C346   C349    1.387   .     A
C347   C350    1.417   .     A
C347   C358    1.510   .     S
C348   O413    1.286   .     A
C348   C351    1.423   .     S
C348   O411    1.286   .     A
C349   C360    1.506   .     S
C349   C351    1.404   .     A
C350   C352    1.400   .     A
C351   C353    1.395   .     A
C352   H402    1.083   .     S
C352   C354    1.377   .     A
C353   H403    1.084   .     S
C353   C355    1.380   .     A
C354   H404    1.084   .     S
C354   C356    1.396   .     A
C355   C357    1.399   .     A
C355   H405    1.083   .     S
C357   C104    1.447   1_565 S
C358   H377    1.111   .     S
C358   H379    1.111   .     S
C358   H378    1.109   .     S
C359   H406    1.082   .     S
C359   C368    1.409   .     A
C360   H381    1.110   .     S
C360   H380    1.111   .     S
C360   H382    1.110   .     S
C361   H386    1.111   .     S
C361   H383    1.102   .     S
C361   C368    1.502   .     S
C361   H385    1.108   .     S
C362   C369    1.502   .     S
C362   H388    1.108   .     S
C362   H389    1.111   .     S
C362   H387    1.103   .     S
C363   H390    1.117   .     S
C363   H391    1.112   .     S
C363   O418    1.415   .     S
C363   C364    1.519   .     S
C364   H392    1.110   .     S
C364   H393    1.110   .     S
C364   H394    1.108   .     S
C365   H397    1.116   .     S
C365   O410    1.417   .     S
C365   C366    1.522   .     S
C365   H396    1.110   .     S
C366   H400    1.111   .     S
C366   H399    1.110   .     S
C366   H398    1.109   .     S
C367   C369    1.409   .     A
C367   H374    1.082   .     S
C368   N407    1.380   .     A
C369   N408    1.380   .     A
C370   C372    1.426   .     A
C370   O418    1.387   .     S
C370   N407    1.368   .     A
C371   O410    1.385   .     S
C371   N408    1.369   .     A
C372   H375    1.080   .     S
H373   C427    1.088   .     S
N407   Zn420   2.017   .     S
N408   Zn419   2.017   .     S
O409   Zn419   1.992   .     S
O411   Zn420   1.992   .     S
O412   Zn420   1.999   .     S
O413   Zn419   1.999   .     S
O414   Zn419   1.966   .     S
O415   Zn420   1.966   .     S
O416   Zn420   1.981   .     S
O417   Zn419   1.981   .     S
C421   O496    1.294   .     A
C421   O493    1.290   .     A
C421   C434    1.446   .     S
C422   C455    1.422   .     A
C422   C424    1.410   .     A
C422   H460    1.080   .     S
C423   C443    1.399   .     A
C423   C456    1.410   .     A
C423   C928    1.519   1_554 S
C424   C451    1.399   .     A
C424   C927    1.519   .     S
C425   C427    1.403   .     S
C425   O500    1.285   .     A
C425   O498    1.280   .     A
C426   O501    1.286   .     A
C426   C428    1.403   .     S
C426   O499    1.279   .     A
C428   C259    1.333   1_655 S
C428   H300    1.087   1_655 S
C429   H479    1.084   .     S
C429   C440    1.397   .     A
C429   C431    1.390   .     A
C430   C441    1.401   .     A
C430   H485    1.084   .     S
C430   C433    1.387   .     A
C431   C434    1.417   .     A
C431   C442    1.510   .     S
C432   O497    1.286   .     A
C432   C435    1.423   .     S
C432   O495    1.286   .     A
C433   C444    1.506   .     S
C433   C435    1.404   .     A
C434   C436    1.400   .     A
C435   C437    1.395   .     A
C436   H486    1.083   .     S
C436   C438    1.377   .     A
C437   H487    1.084   .     S
C437   C439    1.380   .     A
C438   H488    1.084   .     S
C438   C440    1.396   .     A
C439   C441    1.399   .     A
C439   H489    1.083   .     S
C441   C188    1.447   1_565 S
C442   H461    1.111   .     S
C442   H463    1.111   .     S
C442   H462    1.109   .     S
C443   H490    1.082   .     S
C443   C452    1.409   .     A
C444   H465    1.110   .     S
C444   H464    1.111   .     S
C444   H466    1.110   .     S
C445   H470    1.111   .     S
C445   H467    1.102   .     S
C445   C452    1.502   .     S
C445   H469    1.108   .     S
C446   C453    1.502   .     S
C446   H472    1.108   .     S
C446   H473    1.111   .     S
C446   H471    1.103   .     S
C447   H474    1.117   .     S
C447   H475    1.112   .     S
C447   O502    1.415   .     S
C447   C448    1.519   .     S
C448   H476    1.110   .     S
C448   H477    1.110   .     S
C448   H478    1.108   .     S
C449   H481    1.116   .     S
C449   O494    1.417   .     S
C449   C450    1.522   .     S
C449   H480    1.110   .     S
C450   H484    1.111   .     S
C450   H483    1.110   .     S
C450   H482    1.109   .     S
C451   C453    1.409   .     A
C451   H458    1.082   .     S
C452   N491    1.380   .     A
C453   N492    1.380   .     A
C454   C456    1.426   .     A
C454   O502    1.387   .     S
C454   N491    1.368   .     A
C455   O494    1.385   .     S
C455   N492    1.369   .     A
C456   H459    1.080   .     S
H457   C259    1.088   1_655 S
N491   Zn504   2.017   .     S
N492   Zn503   2.017   .     S
O493   Zn503   1.992   .     S
O495   Zn504   1.992   .     S
O496   Zn504   1.999   .     S
O497   Zn503   1.999   .     S
O498   Zn503   1.966   .     S
O499   Zn504   1.966   .     S
O500   Zn504   1.981   .     S
O501   Zn503   1.981   .     S
C505   O580    1.294   .     A
C505   O577    1.290   .     A
C505   C518    1.446   .     S
C506   C539    1.422   .     A
C506   C508    1.410   .     A
C506   H544    1.080   .     S
C507   C527    1.399   .     A
C507   C540    1.410   .     A
C508   C535    1.399   .     A
C508   C3      1.519   1_556 S
C509   C511    1.403   .     S
C509   O584    1.285   .     A
C509   O582    1.280   .     A
C510   O585    1.286   .     A
C510   C512    1.403   .     S
C510   O583    1.279   .     A
C511   C680    1.333   1_455 S
C511   H709    1.088   1_455 S
C512   C595    1.333   .     S
C512   H636    1.087   .     S
C513   H563    1.084   .     S
C513   C524    1.397   .     A
C513   C515    1.390   .     A
C514   C525    1.401   .     A
C514   H569    1.084   .     S
C514   C517    1.387   .     A
C515   C518    1.417   .     A
C515   C526    1.510   .     S
C516   O581    1.286   .     A
C516   C519    1.423   .     S
C516   O579    1.286   .     A
C517   C528    1.506   .     S
C517   C519    1.404   .     A
C518   C520    1.400   .     A
C519   C521    1.395   .     A
C520   H570    1.083   .     S
C520   C522    1.377   .     A
C521   H571    1.084   .     S
C521   C523    1.380   .     A
C522   H572    1.084   .     S
C522   C524    1.396   .     A
C523   C525    1.399   .     A
C523   H573    1.083   .     S
C524   C777    1.447   1_545 S
C525   C776    1.447   .     S
C526   H545    1.111   .     S
C526   H547    1.111   .     S
C526   H546    1.109   .     S
C527   H574    1.082   .     S
C527   C536    1.409   .     A
C528   H549    1.110   .     S
C528   H548    1.111   .     S
C528   H550    1.110   .     S
C529   H554    1.111   .     S
C529   H551    1.102   .     S
C529   C536    1.502   .     S
C529   H553    1.108   .     S
C530   C537    1.502   .     S
C530   H556    1.108   .     S
C530   H557    1.111   .     S
C530   H555    1.103   .     S
C531   H558    1.117   .     S
C531   H559    1.112   .     S
C531   O586    1.415   .     S
C531   C532    1.519   .     S
C532   H560    1.110   .     S
C532   H561    1.110   .     S
C532   H562    1.108   .     S
C533   H565    1.116   .     S
C533   O578    1.417   .     S
C533   C534    1.522   .     S
C533   H564    1.110   .     S
C534   H568    1.111   .     S
C534   H567    1.110   .     S
C534   H566    1.109   .     S
C535   C537    1.409   .     A
C535   H542    1.082   .     S
C536   N575    1.380   .     A
C537   N576    1.380   .     A
C538   C540    1.426   .     A
C538   O586    1.387   .     S
C538   N575    1.368   .     A
C539   O578    1.385   .     S
C539   N576    1.369   .     A
C540   H543    1.080   .     S
H541   C595    1.088   .     S
H552   C680    1.087   1_455 S
N575   Zn588   2.017   .     S
N576   Zn587   2.017   .     S
O577   Zn587   1.992   .     S
O579   Zn588   1.992   .     S
O580   Zn588   1.999   .     S
O581   Zn587   1.999   .     S
O582   Zn587   1.966   .     S
O583   Zn588   1.966   .     S
O584   Zn588   1.981   .     S
O585   Zn587   1.981   .     S
C589   O664    1.294   .     A
C589   O661    1.290   .     A
C589   C602    1.446   .     S
C590   C623    1.422   .     A
C590   C592    1.410   .     A
C590   H628    1.080   .     S
C591   C611    1.399   .     A
C591   C624    1.410   .     A
C592   C619    1.399   .     A
C592   C87     1.519   1_556 S
C593   C595    1.403   .     S
C593   O668    1.285   .     A
C593   O666    1.280   .     A
C594   O669    1.286   .     A
C594   C596    1.403   .     S
C594   O667    1.279   .     A
C596   C679    1.333   .     S
C596   H720    1.087   .     S
C597   H647    1.084   .     S
C597   C608    1.397   .     A
C597   C599    1.390   .     A
C598   C609    1.401   .     A
C598   H653    1.084   .     S
C598   C601    1.387   .     A
C599   C602    1.417   .     A
C599   C610    1.510   .     S
C600   O665    1.286   .     A
C600   C603    1.423   .     S
C600   O663    1.286   .     A
C601   C612    1.506   .     S
C601   C603    1.404   .     A
C602   C604    1.400   .     A
C603   C605    1.395   .     A
C604   H654    1.083   .     S
C604   C606    1.377   .     A
C605   H655    1.084   .     S
C605   C607    1.380   .     A
C606   H656    1.084   .     S
C606   C608    1.396   .     A
C607   C609    1.399   .     A
C607   H657    1.083   .     S
C608   C861    1.447   1_545 S
C609   C860    1.447   .     S
C610   H629    1.111   .     S
C610   H631    1.111   .     S
C610   H630    1.109   .     S
C611   H658    1.082   .     S
C611   C620    1.409   .     A
C612   H633    1.110   .     S
C612   H632    1.111   .     S
C612   H634    1.110   .     S
C613   H638    1.111   .     S
C613   H635    1.102   .     S
C613   C620    1.502   .     S
C613   H637    1.108   .     S
C614   C621    1.502   .     S
C614   H640    1.108   .     S
C614   H641    1.111   .     S
C614   H639    1.103   .     S
C615   H642    1.117   .     S
C615   H643    1.112   .     S
C615   O670    1.415   .     S
C615   C616    1.519   .     S
C616   H644    1.110   .     S
C616   H645    1.110   .     S
C616   H646    1.108   .     S
C617   H649    1.116   .     S
C617   O662    1.417   .     S
C617   C618    1.522   .     S
C617   H648    1.110   .     S
C618   H652    1.111   .     S
C618   H651    1.110   .     S
C618   H650    1.109   .     S
C619   C621    1.409   .     A
C619   H626    1.082   .     S
C620   N659    1.380   .     A
C621   N660    1.380   .     A
C622   C624    1.426   .     A
C622   O670    1.387   .     S
C622   N659    1.368   .     A
C623   O662    1.385   .     S
C623   N660    1.369   .     A
C624   H627    1.080   .     S
H625   C679    1.088   .     S
N659   Zn672   2.017   .     S
N660   Zn671   2.017   .     S
O661   Zn671   1.992   .     S
O663   Zn672   1.992   .     S
O664   Zn672   1.999   .     S
O665   Zn671   1.999   .     S
O666   Zn671   1.966   .     S
O667   Zn672   1.966   .     S
O668   Zn672   1.981   .     S
O669   Zn671   1.981   .     S
C673   O748    1.294   .     A
C673   O745    1.290   .     A
C673   C686    1.446   .     S
C674   C707    1.422   .     A
C674   C676    1.410   .     A
C674   H712    1.080   .     S
C675   C695    1.399   .     A
C675   C708    1.410   .     A
C676   C703    1.399   .     A
C676   C171    1.519   1_556 S
C677   C679    1.403   .     S
C677   O752    1.285   .     A
C677   O750    1.280   .     A
C678   O753    1.286   .     A
C678   C680    1.403   .     S
C678   O751    1.279   .     A
C680   C511    1.333   1_655 S
C680   H552    1.087   1_655 S
C681   H731    1.084   .     S
C681   C692    1.397   .     A
C681   C683    1.390   .     A
C682   C693    1.401   .     A
C682   H737    1.084   .     S
C682   C685    1.387   .     A
C683   C686    1.417   .     A
C683   C694    1.510   .     S
C684   O749    1.286   .     A
C684   C687    1.423   .     S
C684   O747    1.286   .     A
C685   C696    1.506   .     S
C685   C687    1.404   .     A
C686   C688    1.400   .     A
C687   C689    1.395   .     A
C688   H738    1.083   .     S
C688   C690    1.377   .     A
C689   H739    1.084   .     S
C689   C691    1.380   .     A
C690   H740    1.084   .     S
C690   C692    1.396   .     A
C691   C693    1.399   .     A
C691   H741    1.083   .     S
C692   C945    1.447   1_545 S
C693   C944    1.447   .     S
C694   H713    1.111   .     S
C694   H715    1.111   .     S
C694   H714    1.109   .     S
C695   H742    1.082   .     S
C695   C704    1.409   .     A
C696   H717    1.110   .     S
C696   H716    1.111   .     S
C696   H718    1.110   .     S
C697   H722    1.111   .     S
C697   H719    1.102   .     S
C697   C704    1.502   .     S
C697   H721    1.108   .     S
C698   C705    1.502   .     S
C698   H724    1.108   .     S
C698   H725    1.111   .     S
C698   H723    1.103   .     S
C699   H726    1.117   .     S
C699   H727    1.112   .     S
C699   O754    1.415   .     S
C699   C700    1.519   .     S
C700   H728    1.110   .     S
C700   H729    1.110   .     S
C700   H730    1.108   .     S
C701   H733    1.116   .     S
C701   O746    1.417   .     S
C701   C702    1.522   .     S
C701   H732    1.110   .     S
C702   H736    1.111   .     S
C702   H735    1.110   .     S
C702   H734    1.109   .     S
C703   C705    1.409   .     A
C703   H710    1.082   .     S
C704   N743    1.380   .     A
C705   N744    1.380   .     A
C706   C708    1.426   .     A
C706   O754    1.387   .     S
C706   N743    1.368   .     A
C707   O746    1.385   .     S
C707   N744    1.369   .     A
C708   H711    1.080   .     S
H709   C511    1.088   1_655 S
N743   Zn756   2.017   .     S
N744   Zn755   2.017   .     S
O745   Zn755   1.992   .     S
O747   Zn756   1.992   .     S
O748   Zn756   1.999   .     S
O749   Zn755   1.999   .     S
O750   Zn755   1.966   .     S
O751   Zn756   1.966   .     S
O752   Zn756   1.981   .     S
O753   Zn755   1.981   .     S
C757   O832    1.294   .     A
C757   O829    1.290   .     A
C757   C770    1.446   .     S
C758   C791    1.422   .     A
C758   C760    1.410   .     A
C758   H796    1.080   .     S
C759   C779    1.399   .     A
C759   C792    1.410   .     A
C760   C787    1.399   .     A
C760   C255    1.519   1_556 S
C761   C763    1.403   .     S
C761   O836    1.285   .     A
C761   O834    1.280   .     A
C762   O837    1.286   .     A
C762   C764    1.403   .     S
C762   O835    1.279   .     A
C763   C932    1.333   1_455 S
C763   H961    1.088   1_455 S
C764   C847    1.333   .     S
C764   H888    1.087   .     S
C765   H815    1.084   .     S
C765   C776    1.397   .     A
C765   C767    1.390   .     A
C766   C777    1.401   .     A
C766   H821    1.084   .     S
C766   C769    1.387   .     A
C767   C770    1.417   .     A
C767   C778    1.510   .     S
C768   O833    1.286   .     A
C768   C771    1.423   .     S
C768   O831    1.286   .     A
C769   C780    1.506   .     S
C769   C771    1.404   .     A
C770   C772    1.400   .     A
C771   C773    1.395   .     A
C772   H822    1.083   .     S
C772   C774    1.377   .     A
C773   H823    1.084   .     S
C773   C775    1.380   .     A
C774   H824    1.084   .     S
C774   C776    1.396   .     A
C775   C777    1.399   .     A
C775   H825    1.083   .     S
C777   C524    1.447   1_565 S
C778   H797    1.111   .     S
C778   H799    1.111   .     S
C778   H798    1.109   .     S
C779   H826    1.082   .     S
C779   C788    1.409   .     A
C780   H801    1.110   .     S
C780   H800    1.111   .     S
C780   H802    1.110   .     S
C781   H806    1.111   .     S
C781   H803    1.102   .     S
C781   C788    1.502   .     S
C781   H805    1.108   .     S
C782   C789    1.502   .     S
C782   H808    1.108   .     S
C782   H809    1.111   .     S
C782   H807    1.103   .     S
C783   H810    1.117   .     S
C783   H811    1.112   .     S
C783   O838    1.415   .     S
C783   C784    1.519   .     S
C784   H812    1.110   .     S
C784   H813    1.110   .     S
C784   H814    1.108   .     S
C785   H817    1.116   .     S
C785   O830    1.417   .     S
C785   C786    1.522   .     S
C785   H816    1.110   .     S
C786   H820    1.111   .     S
C786   H819    1.110   .     S
C786   H818    1.109   .     S
C787   C789    1.409   .     A
C787   H794    1.082   .     S
C788   N827    1.380   .     A
C789   N828    1.380   .     A
C790   C792    1.426   .     A
C790   O838    1.387   .     S
C790   N827    1.368   .     A
C791   O830    1.385   .     S
C791   N828    1.369   .     A
C792   H795    1.080   .     S
H793   C847    1.088   .     S
H804   C932    1.087   1_455 S
N827   Zn840   2.017   .     S
N828   Zn839   2.017   .     S
O829   Zn839   1.992   .     S
O831   Zn840   1.992   .     S
O832   Zn840   1.999   .     S
O833   Zn839   1.999   .     S
O834   Zn839   1.966   .     S
O835   Zn840   1.966   .     S
O836   Zn840   1.981   .     S
O837   Zn839   1.981   .     S
C841   O916    1.294   .     A
C841   O913    1.290   .     A
C841   C854    1.446   .     S
C842   C875    1.422   .     A
C842   C844    1.410   .     A
C842   H880    1.080   .     S
C843   C863    1.399   .     A
C843   C876    1.410   .     A
C844   C871    1.399   .     A
C844   C339    1.519   1_556 S
C845   C847    1.403   .     S
C845   O920    1.285   .     A
C845   O918    1.280   .     A
C846   O921    1.286   .     A
C846   C848    1.403   .     S
C846   O919    1.279   .     A
C848   C931    1.333   .     S
C848   H972    1.087   .     S
C849   H899    1.084   .     S
C849   C860    1.397   .     A
C849   C851    1.390   .     A
C850   C861    1.401   .     A
C850   H905    1.084   .     S
C850   C853    1.387   .     A
C851   C854    1.417   .     A
C851   C862    1.510   .     S
C852   O917    1.286   .     A
C852   C855    1.423   .     S
C852   O915    1.286   .     A
C853   C864    1.506   .     S
C853   C855    1.404   .     A
C854   C856    1.400   .     A
C855   C857    1.395   .     A
C856   H906    1.083   .     S
C856   C858    1.377   .     A
C857   H907    1.084   .     S
C857   C859    1.380   .     A
C858   H908    1.084   .     S
C858   C860    1.396   .     A
C859   C861    1.399   .     A
C859   H909    1.083   .     S
C861   C608    1.447   1_565 S
C862   H881    1.111   .     S
C862   H883    1.111   .     S
C862   H882    1.109   .     S
C863   H910    1.082   .     S
C863   C872    1.409   .     A
C864   H885    1.110   .     S
C864   H884    1.111   .     S
C864   H886    1.110   .     S
C865   H890    1.111   .     S
C865   H887    1.102   .     S
C865   C872    1.502   .     S
C865   H889    1.108   .     S
C866   C873    1.502   .     S
C866   H892    1.108   .     S
C866   H893    1.111   .     S
C866   H891    1.103   .     S
C867   H894    1.117   .     S
C867   H895    1.112   .     S
C867   O922    1.415   .     S
C867   C868    1.519   .     S
C868   H896    1.110   .     S
C868   H897    1.110   .     S
C868   H898    1.108   .     S
C869   H901    1.116   .     S
C869   O914    1.417   .     S
C869   C870    1.522   .     S
C869   H900    1.110   .     S
C870   H904    1.111   .     S
C870   H903    1.110   .     S
C870   H902    1.109   .     S
C871   C873    1.409   .     A
C871   H878    1.082   .     S
C872   N911    1.380   .     A
C873   N912    1.380   .     A
C874   C876    1.426   .     A
C874   O922    1.387   .     S
C874   N911    1.368   .     A
C875   O914    1.385   .     S
C875   N912    1.369   .     A
C876   H879    1.080   .     S
H877   C931    1.088   .     S
N911   Zn924   2.017   .     S
N912   Zn923   2.017   .     S
O913   Zn923   1.992   .     S
O915   Zn924   1.992   .     S
O916   Zn924   1.999   .     S
O917   Zn923   1.999   .     S
O918   Zn923   1.966   .     S
O919   Zn924   1.966   .     S
O920   Zn924   1.981   .     S
O921   Zn923   1.981   .     S
C925   O1000   1.294   .     A
C925   O997    1.290   .     A
C925   C938    1.446   .     S
C926   C959    1.422   .     A
C926   C928    1.410   .     A
C926   H964    1.080   .     S
C927   C947    1.399   .     A
C927   C960    1.410   .     A
C928   C955    1.399   .     A
C928   C423    1.519   1_556 S
C929   C931    1.403   .     S
C929   O1004   1.285   .     A
C929   O1002   1.280   .     A
C930   O1005   1.286   .     A
C930   C932    1.403   .     S
C930   O1003   1.279   .     A
C932   C763    1.333   1_655 S
C932   H804    1.087   1_655 S
C933   H983    1.084   .     S
C933   C944    1.397   .     A
C933   C935    1.390   .     A
C934   C945    1.401   .     A
C934   H989    1.084   .     S
C934   C937    1.387   .     A
C935   C938    1.417   .     A
C935   C946    1.510   .     S
C936   O1001   1.286   .     A
C936   C939    1.423   .     S
C936   O999    1.286   .     A
C937   C948    1.506   .     S
C937   C939    1.404   .     A
C938   C940    1.400   .     A
C939   C941    1.395   .     A
C940   H990    1.083   .     S
C940   C942    1.377   .     A
C941   H991    1.084   .     S
C941   C943    1.380   .     A
C942   H992    1.084   .     S
C942   C944    1.396   .     A
C943   C945    1.399   .     A
C943   H993    1.083   .     S
C945   C692    1.447   1_565 S
C946   H965    1.111   .     S
C946   H967    1.111   .     S
C946   H966    1.109   .     S
C947   H994    1.082   .     S
C947   C956    1.409   .     A
C948   H969    1.110   .     S
C948   H968    1.111   .     S
C948   H970    1.110   .     S
C949   H974    1.111   .     S
C949   H971    1.102   .     S
C949   C956    1.502   .     S
C949   H973    1.108   .     S
C950   C957    1.502   .     S
C950   H976    1.108   .     S
C950   H977    1.111   .     S
C950   H975    1.103   .     S
C951   H978    1.117   .     S
C951   H979    1.112   .     S
C951   O1006   1.415   .     S
C951   C952    1.519   .     S
C952   H980    1.110   .     S
C952   H981    1.110   .     S
C952   H982    1.108   .     S
C953   H985    1.116   .     S
C953   O998    1.417   .     S
C953   C954    1.522   .     S
C953   H984    1.110   .     S
C954   H988    1.111   .     S
C954   H987    1.110   .     S
C954   H986    1.109   .     S
C955   C957    1.409   .     A
C955   H962    1.082   .     S
C956   N995    1.380   .     A
C957   N996    1.380   .     A
C958   C960    1.426   .     A
C958   O1006   1.387   .     S
C958   N995    1.368   .     A
C959   O998    1.385   .     S
C959   N996    1.369   .     A
C960   H963    1.080   .     S
H961   C763    1.088   1_655 S
N995   Zn1008  2.017   .     S
N996   Zn1007  2.017   .     S
O997   Zn1007  1.992   .     S
O999   Zn1008  1.992   .     S
O1000  Zn1008  1.999   .     S
O1001  Zn1007  1.999   .     S
O1002  Zn1007  1.966   .     S
O1003  Zn1008  1.966   .     S
O1004  Zn1008  1.981   .     S
O1005  Zn1007  1.981   .     S
