data_str_m3_o1_o16_pcu_sym.214
_audit_creation_date              2020-01-03
_audit_creation_method            'Materials Studio'
_symmetry_space_group_name_H-M    'P1'
_symmetry_Int_Tables_number       1
_symmetry_cell_setting            triclinic
loop_
_symmetry_equiv_pos_as_xyz
  x,y,z
_cell_length_a                    29.7581
_cell_length_b                    31.9457
_cell_length_c                    25.9973
_cell_angle_alpha                 91.0170
_cell_angle_beta                  69.8332
_cell_angle_gamma                 89.8814
loop_
_atom_site_label
_atom_site_type_symbol
_atom_site_fract_x
_atom_site_fract_y
_atom_site_fract_z
_atom_site_U_iso_or_equiv
_atom_site_adp_type
_atom_site_occupancy
C1     C     0.16662   0.24654   0.25014   0.00000  Uiso   1.00
C2     C     0.14172   0.15051   0.49380   0.00000  Uiso   1.00
C3     C     0.15144   0.14103   0.43806   0.00000  Uiso   1.00
C4     C     0.18002   0.14741   0.01407   0.00000  Uiso   1.00
C5     C     0.22182   0.12389   0.48454   0.00000  Uiso   1.00
C6     C     0.22407   0.10387   0.43502   0.00000  Uiso   1.00
C7     C     0.18949   0.11293   0.41097   0.00000  Uiso   1.00
C8     C     0.17886   0.16931   0.06140   0.00000  Uiso   1.00
C9     C     0.25148   0.13448   0.06072   0.00000  Uiso   1.00
C10    C     0.12193   0.15940   0.41190   0.00000  Uiso   1.00
C11    C     0.20543   0.31082   0.21159   0.00000  Uiso   1.00
C12    C     0.13988   0.16474   0.35236   0.00000  Uiso   1.00
C13    C     0.20573   0.02093   0.21076   0.00000  Uiso   1.00
C14    C     0.16715   0.04262   0.24877   0.00000  Uiso   1.00
C15    C     0.12867   0.02222   0.28652   0.00000  Uiso   1.00
C16    C     0.12852   0.31264   0.28691   0.00000  Uiso   1.00
C17    C     0.16682   0.29067   0.24956   0.00000  Uiso   1.00
C18    C     0.31815   0.13678   0.22131   0.00000  Uiso   1.00
C19    C     0.03257   0.13676   0.22137   0.00000  Uiso   1.00
C20    C     0.01511   0.19665   0.27878   0.00000  Uiso   1.00
C21    C     0.30120   0.19698   0.27835   0.00000  Uiso   1.00
C22    C     0.16687   0.08680   0.24940   0.00000  Uiso   1.00
C23    C     0.19348   0.16608   0.14745   0.00000  Uiso   1.00
C24    C     0.25921   0.11990   0.00667   0.00000  Uiso   1.00
C25    C     0.21025   0.15859   0.08813   0.00000  Uiso   1.00
C26    C     0.07725   0.17669   0.44377   0.00000  Uiso   1.00
C27    C     0.06269   0.17625   0.00058   0.00000  Uiso   1.00
C28    C     0.09398   0.16270   0.02633   0.00000  Uiso   1.00
H29    H     0.02690   0.18676   0.02489   0.00000  Uiso   1.00
N30    N     0.04760   0.16668   0.25001   0.00000  Uiso   1.00
N31    N     0.28573   0.16665   0.25000   0.00000  Uiso   1.00
O32    O     0.12846   0.22775   0.25000   0.00000  Uiso   1.00
O33    O     0.20490   0.22774   0.25000   0.00000  Uiso   1.00
O34    O     0.10947   0.16666   0.32681   0.00000  Uiso   1.00
O35    O     0.18591   0.16665   0.32681   0.00000  Uiso   1.00
O36    O     0.12843   0.10559   0.24999   0.00000  Uiso   1.00
O37    O     0.20488   0.10558   0.24999   0.00000  Uiso   1.00
O38    O     0.14742   0.16668   0.17319   0.00000  Uiso   1.00
O39    O     0.22387   0.16667   0.17319   0.00000  Uiso   1.00
Zn40   Zn    0.11562   0.16667   0.25000   0.00000  Uiso   1.00
Zn41   Zn    0.21771   0.16666   0.25000   0.00000  Uiso   1.00
O42    O     0.28344   0.12606   0.08732   0.00000  Uiso   1.00
H43    H     0.30917   0.10708   0.06440   0.00000  Uiso   1.00
O44    O     0.24192   0.04290   0.17299   0.00000  Uiso   1.00
H45    H     0.26621   0.02307   0.14927   0.00000  Uiso   1.00
F46    F     0.09217   0.04397   0.32377   0.00000  Uiso   1.00
F47    F     0.09204   0.29255   0.32467   0.00000  Uiso   1.00
F48    F     0.30470   0.10689   0.19212   0.00000  Uiso   1.00
F49    F     0.06359   0.10651   0.19280   0.00000  Uiso   1.00
O50    O     0.02674   0.22690   0.31019   0.00000  Uiso   1.00
H51    H     0.05412   0.21648   0.31922   0.00000  Uiso   1.00
O52    O     0.27182   0.22882   0.30782   0.00000  Uiso   1.00
H53    H     0.23854   0.21989   0.31768   0.00000  Uiso   1.00
F54    F     0.25865   0.07481   0.41071   0.00000  Uiso   1.00
O55    O     0.30288   0.10190   0.47717   0.00000  Uiso   1.00
H56    H     0.31255   0.11254   0.43936   0.00000  Uiso   1.00
F57    F     0.14698   0.20116   0.08244   0.00000  Uiso   1.00
F58    F     0.04736   0.19360   0.42024   0.00000  Uiso   1.00
O59    O     0.07526   0.15814   0.08236   0.00000  Uiso   1.00
H60    H     0.09410   0.13623   0.09254   0.00000  Uiso   1.00
O61    O     0.18941   0.09188   0.36405   0.00000  Uiso   1.00
H62    H     0.21836   0.07393   0.34933   0.00000  Uiso   1.00
F63    F     0.24156   0.28817   0.17500   0.00000  Uiso   1.00
C64    C     0.49995   0.24654   0.25014   0.00000  Uiso   1.00
C65    C     0.47505   0.15051   0.49380   0.00000  Uiso   1.00
C66    C     0.48477   0.14103   0.43806   0.00000  Uiso   1.00
C67    C     0.51335   0.14741   0.01407   0.00000  Uiso   1.00
C68    C     0.55515   0.12389   0.48454   0.00000  Uiso   1.00
C69    C     0.55740   0.10387   0.43502   0.00000  Uiso   1.00
C70    C     0.52283   0.11293   0.41097   0.00000  Uiso   1.00
C71    C     0.51220   0.16931   0.06140   0.00000  Uiso   1.00
C72    C     0.58482   0.13448   0.06072   0.00000  Uiso   1.00
C73    C     0.45526   0.15940   0.41190   0.00000  Uiso   1.00
C74    C     0.53876   0.31082   0.21159   0.00000  Uiso   1.00
C75    C     0.47322   0.16474   0.35236   0.00000  Uiso   1.00
C76    C     0.53906   0.02093   0.21076   0.00000  Uiso   1.00
C77    C     0.50048   0.04262   0.24877   0.00000  Uiso   1.00
C78    C     0.46201   0.02222   0.28652   0.00000  Uiso   1.00
C79    C     0.46185   0.31264   0.28691   0.00000  Uiso   1.00
C80    C     0.50016   0.29067   0.24956   0.00000  Uiso   1.00
C81    C     0.65148   0.13678   0.22131   0.00000  Uiso   1.00
C82    C     0.36591   0.13676   0.22137   0.00000  Uiso   1.00
C83    C     0.34845   0.19665   0.27878   0.00000  Uiso   1.00
C84    C     0.63453   0.19698   0.27835   0.00000  Uiso   1.00
C85    C     0.50020   0.08680   0.24940   0.00000  Uiso   1.00
C86    C     0.52681   0.16608   0.14745   0.00000  Uiso   1.00
C87    C     0.59254   0.11990   0.00667   0.00000  Uiso   1.00
C88    C     0.54358   0.15859   0.08813   0.00000  Uiso   1.00
C89    C     0.41058   0.17669   0.44377   0.00000  Uiso   1.00
C90    C     0.39602   0.17625   0.00058   0.00000  Uiso   1.00
C91    C     0.42732   0.16270   0.02633   0.00000  Uiso   1.00
H92    H     0.36023   0.18676   0.02489   0.00000  Uiso   1.00
N93    N     0.38093   0.16668   0.25001   0.00000  Uiso   1.00
N94    N     0.61906   0.16665   0.25000   0.00000  Uiso   1.00
O95    O     0.46179   0.22775   0.25000   0.00000  Uiso   1.00
O96    O     0.53823   0.22774   0.25000   0.00000  Uiso   1.00
O97    O     0.44280   0.16666   0.32681   0.00000  Uiso   1.00
O98    O     0.51924   0.16665   0.32681   0.00000  Uiso   1.00
O99    O     0.46177   0.10559   0.24999   0.00000  Uiso   1.00
O100   O     0.53821   0.10558   0.24999   0.00000  Uiso   1.00
O101   O     0.48076   0.16668   0.17319   0.00000  Uiso   1.00
O102   O     0.55720   0.16667   0.17319   0.00000  Uiso   1.00
Zn103  Zn    0.44896   0.16667   0.25000   0.00000  Uiso   1.00
Zn104  Zn    0.55104   0.16666   0.25000   0.00000  Uiso   1.00
O105   O     0.61677   0.12606   0.08732   0.00000  Uiso   1.00
H106   H     0.64250   0.10708   0.06440   0.00000  Uiso   1.00
O107   O     0.57525   0.04290   0.17299   0.00000  Uiso   1.00
H108   H     0.59955   0.02307   0.14927   0.00000  Uiso   1.00
F109   F     0.42550   0.04397   0.32377   0.00000  Uiso   1.00
F110   F     0.42537   0.29255   0.32467   0.00000  Uiso   1.00
F111   F     0.63804   0.10689   0.19212   0.00000  Uiso   1.00
F112   F     0.39693   0.10651   0.19280   0.00000  Uiso   1.00
O113   O     0.36007   0.22690   0.31019   0.00000  Uiso   1.00
H114   H     0.38745   0.21648   0.31922   0.00000  Uiso   1.00
O115   O     0.60515   0.22882   0.30782   0.00000  Uiso   1.00
H116   H     0.57187   0.21989   0.31768   0.00000  Uiso   1.00
F117   F     0.59199   0.07481   0.41071   0.00000  Uiso   1.00
O118   O     0.63621   0.10190   0.47717   0.00000  Uiso   1.00
H119   H     0.64588   0.11254   0.43936   0.00000  Uiso   1.00
F120   F     0.48031   0.20116   0.08244   0.00000  Uiso   1.00
F121   F     0.38069   0.19360   0.42024   0.00000  Uiso   1.00
O122   O     0.40860   0.15814   0.08236   0.00000  Uiso   1.00
H123   H     0.42743   0.13623   0.09254   0.00000  Uiso   1.00
O124   O     0.52275   0.09188   0.36405   0.00000  Uiso   1.00
H125   H     0.55169   0.07393   0.34933   0.00000  Uiso   1.00
F126   F     0.57489   0.28817   0.17500   0.00000  Uiso   1.00
C127   C     0.83328   0.24654   0.25014   0.00000  Uiso   1.00
C128   C     0.80838   0.15051   0.49380   0.00000  Uiso   1.00
C129   C     0.81810   0.14103   0.43806   0.00000  Uiso   1.00
C130   C     0.84669   0.14741   0.01407   0.00000  Uiso   1.00
C131   C     0.88849   0.12389   0.48454   0.00000  Uiso   1.00
C132   C     0.89073   0.10387   0.43502   0.00000  Uiso   1.00
C133   C     0.85616   0.11293   0.41097   0.00000  Uiso   1.00
C134   C     0.84553   0.16931   0.06140   0.00000  Uiso   1.00
C135   C     0.91815   0.13448   0.06072   0.00000  Uiso   1.00
C136   C     0.78859   0.15940   0.41190   0.00000  Uiso   1.00
C137   C     0.87210   0.31082   0.21159   0.00000  Uiso   1.00
C138   C     0.80655   0.16474   0.35236   0.00000  Uiso   1.00
C139   C     0.87240   0.02093   0.21076   0.00000  Uiso   1.00
C140   C     0.83381   0.04262   0.24877   0.00000  Uiso   1.00
C141   C     0.79534   0.02222   0.28652   0.00000  Uiso   1.00
C142   C     0.79519   0.31264   0.28691   0.00000  Uiso   1.00
C143   C     0.83349   0.29067   0.24956   0.00000  Uiso   1.00
C144   C     0.98482   0.13678   0.22131   0.00000  Uiso   1.00
C145   C     0.69924   0.13676   0.22137   0.00000  Uiso   1.00
C146   C     0.68178   0.19665   0.27878   0.00000  Uiso   1.00
C147   C     0.96787   0.19698   0.27835   0.00000  Uiso   1.00
C148   C     0.83354   0.08680   0.24940   0.00000  Uiso   1.00
C149   C     0.86015   0.16608   0.14745   0.00000  Uiso   1.00
C150   C     0.92588   0.11990   0.00667   0.00000  Uiso   1.00
C151   C     0.87691   0.15859   0.08813   0.00000  Uiso   1.00
C152   C     0.74392   0.17669   0.44377   0.00000  Uiso   1.00
C153   C     0.72936   0.17625   0.00058   0.00000  Uiso   1.00
C154   C     0.76065   0.16270   0.02633   0.00000  Uiso   1.00
H155   H     0.69357   0.18676   0.02489   0.00000  Uiso   1.00
N156   N     0.71426   0.16668   0.25001   0.00000  Uiso   1.00
N157   N     0.95239   0.16665   0.25000   0.00000  Uiso   1.00
O158   O     0.79512   0.22775   0.25000   0.00000  Uiso   1.00
O159   O     0.87157   0.22774   0.25000   0.00000  Uiso   1.00
O160   O     0.77613   0.16666   0.32681   0.00000  Uiso   1.00
O161   O     0.85258   0.16665   0.32681   0.00000  Uiso   1.00
O162   O     0.79510   0.10559   0.24999   0.00000  Uiso   1.00
O163   O     0.87154   0.10558   0.24999   0.00000  Uiso   1.00
O164   O     0.81409   0.16668   0.17319   0.00000  Uiso   1.00
O165   O     0.89053   0.16667   0.17319   0.00000  Uiso   1.00
Zn166  Zn    0.78229   0.16667   0.25000   0.00000  Uiso   1.00
Zn167  Zn    0.88438   0.16666   0.25000   0.00000  Uiso   1.00
O168   O     0.95010   0.12606   0.08732   0.00000  Uiso   1.00
H169   H     0.97583   0.10708   0.06440   0.00000  Uiso   1.00
O170   O     0.90858   0.04290   0.17299   0.00000  Uiso   1.00
H171   H     0.93288   0.02307   0.14927   0.00000  Uiso   1.00
F172   F     0.75883   0.04397   0.32377   0.00000  Uiso   1.00
F173   F     0.75870   0.29255   0.32467   0.00000  Uiso   1.00
F174   F     0.97137   0.10689   0.19212   0.00000  Uiso   1.00
F175   F     0.73026   0.10651   0.19280   0.00000  Uiso   1.00
O176   O     0.69340   0.22690   0.31019   0.00000  Uiso   1.00
H177   H     0.72079   0.21648   0.31922   0.00000  Uiso   1.00
O178   O     0.93849   0.22882   0.30782   0.00000  Uiso   1.00
H179   H     0.90521   0.21989   0.31768   0.00000  Uiso   1.00
F180   F     0.92532   0.07481   0.41071   0.00000  Uiso   1.00
O181   O     0.96954   0.10190   0.47717   0.00000  Uiso   1.00
H182   H     0.97922   0.11254   0.43936   0.00000  Uiso   1.00
F183   F     0.81364   0.20116   0.08244   0.00000  Uiso   1.00
F184   F     0.71403   0.19360   0.42024   0.00000  Uiso   1.00
O185   O     0.74193   0.15814   0.08236   0.00000  Uiso   1.00
H186   H     0.76077   0.13623   0.09254   0.00000  Uiso   1.00
O187   O     0.85608   0.09188   0.36405   0.00000  Uiso   1.00
H188   H     0.88502   0.07393   0.34933   0.00000  Uiso   1.00
F189   F     0.90823   0.28817   0.17500   0.00000  Uiso   1.00
C190   C     0.16662   0.57987   0.25014   0.00000  Uiso   1.00
C191   C     0.14172   0.48385   0.49380   0.00000  Uiso   1.00
C192   C     0.15144   0.47437   0.43806   0.00000  Uiso   1.00
C193   C     0.18002   0.48074   0.01407   0.00000  Uiso   1.00
C194   C     0.22182   0.45722   0.48454   0.00000  Uiso   1.00
C195   C     0.22407   0.43721   0.43502   0.00000  Uiso   1.00
C196   C     0.18949   0.44626   0.41097   0.00000  Uiso   1.00
C197   C     0.17886   0.50264   0.06140   0.00000  Uiso   1.00
C198   C     0.25148   0.46781   0.06072   0.00000  Uiso   1.00
C199   C     0.12193   0.49274   0.41190   0.00000  Uiso   1.00
C200   C     0.20543   0.64415   0.21159   0.00000  Uiso   1.00
C201   C     0.13988   0.49807   0.35236   0.00000  Uiso   1.00
C202   C     0.20573   0.35426   0.21076   0.00000  Uiso   1.00
C203   C     0.16715   0.37595   0.24877   0.00000  Uiso   1.00
C204   C     0.12867   0.35556   0.28652   0.00000  Uiso   1.00
C205   C     0.12852   0.64597   0.28691   0.00000  Uiso   1.00
C206   C     0.16682   0.62401   0.24956   0.00000  Uiso   1.00
C207   C     0.31815   0.47011   0.22131   0.00000  Uiso   1.00
C208   C     0.03257   0.47010   0.22137   0.00000  Uiso   1.00
C209   C     0.01511   0.52998   0.27878   0.00000  Uiso   1.00
C210   C     0.30120   0.53032   0.27835   0.00000  Uiso   1.00
C211   C     0.16687   0.42013   0.24940   0.00000  Uiso   1.00
C212   C     0.19348   0.49941   0.14745   0.00000  Uiso   1.00
C213   C     0.25921   0.45324   0.00667   0.00000  Uiso   1.00
C214   C     0.21025   0.49193   0.08813   0.00000  Uiso   1.00
C215   C     0.07725   0.51003   0.44377   0.00000  Uiso   1.00
C216   C     0.06269   0.50958   0.00058   0.00000  Uiso   1.00
C217   C     0.09398   0.49603   0.02633   0.00000  Uiso   1.00
H218   H     0.02690   0.52009   0.02489   0.00000  Uiso   1.00
N219   N     0.04760   0.50001   0.25001   0.00000  Uiso   1.00
N220   N     0.28573   0.49998   0.25000   0.00000  Uiso   1.00
O221   O     0.12846   0.56108   0.25000   0.00000  Uiso   1.00
O222   O     0.20490   0.56107   0.25000   0.00000  Uiso   1.00
O223   O     0.10947   0.50000   0.32681   0.00000  Uiso   1.00
O224   O     0.18591   0.49999   0.32681   0.00000  Uiso   1.00
O225   O     0.12843   0.43893   0.24999   0.00000  Uiso   1.00
O226   O     0.20488   0.43892   0.24999   0.00000  Uiso   1.00
O227   O     0.14742   0.50001   0.17319   0.00000  Uiso   1.00
O228   O     0.22387   0.50000   0.17319   0.00000  Uiso   1.00
Zn229  Zn    0.11562   0.50001   0.25000   0.00000  Uiso   1.00
Zn230  Zn    0.21771   0.49999   0.25000   0.00000  Uiso   1.00
O231   O     0.28344   0.45939   0.08732   0.00000  Uiso   1.00
H232   H     0.30917   0.44041   0.06440   0.00000  Uiso   1.00
O233   O     0.24192   0.37623   0.17299   0.00000  Uiso   1.00
H234   H     0.26621   0.35640   0.14927   0.00000  Uiso   1.00
F235   F     0.09217   0.37730   0.32377   0.00000  Uiso   1.00
F236   F     0.09204   0.62588   0.32467   0.00000  Uiso   1.00
F237   F     0.30470   0.44022   0.19212   0.00000  Uiso   1.00
F238   F     0.06359   0.43984   0.19280   0.00000  Uiso   1.00
O239   O     0.02674   0.56023   0.31019   0.00000  Uiso   1.00
H240   H     0.05412   0.54981   0.31922   0.00000  Uiso   1.00
O241   O     0.27182   0.56215   0.30782   0.00000  Uiso   1.00
H242   H     0.23854   0.55322   0.31768   0.00000  Uiso   1.00
F243   F     0.25865   0.40814   0.41071   0.00000  Uiso   1.00
O244   O     0.30288   0.43523   0.47717   0.00000  Uiso   1.00
H245   H     0.31255   0.44588   0.43936   0.00000  Uiso   1.00
F246   F     0.14698   0.53449   0.08244   0.00000  Uiso   1.00
F247   F     0.04736   0.52694   0.42024   0.00000  Uiso   1.00
O248   O     0.07526   0.49148   0.08236   0.00000  Uiso   1.00
H249   H     0.09410   0.46956   0.09254   0.00000  Uiso   1.00
O250   O     0.18941   0.42522   0.36405   0.00000  Uiso   1.00
H251   H     0.21836   0.40726   0.34933   0.00000  Uiso   1.00
F252   F     0.24156   0.62151   0.17500   0.00000  Uiso   1.00
C253   C     0.49995   0.57987   0.25014   0.00000  Uiso   1.00
C254   C     0.47505   0.48385   0.49380   0.00000  Uiso   1.00
C255   C     0.48477   0.47437   0.43806   0.00000  Uiso   1.00
C256   C     0.51335   0.48074   0.01407   0.00000  Uiso   1.00
C257   C     0.55515   0.45722   0.48454   0.00000  Uiso   1.00
C258   C     0.55740   0.43721   0.43502   0.00000  Uiso   1.00
C259   C     0.52283   0.44626   0.41097   0.00000  Uiso   1.00
C260   C     0.51220   0.50264   0.06140   0.00000  Uiso   1.00
C261   C     0.58482   0.46781   0.06072   0.00000  Uiso   1.00
C262   C     0.45526   0.49274   0.41190   0.00000  Uiso   1.00
C263   C     0.53876   0.64415   0.21159   0.00000  Uiso   1.00
C264   C     0.47322   0.49807   0.35236   0.00000  Uiso   1.00
C265   C     0.53906   0.35426   0.21076   0.00000  Uiso   1.00
C266   C     0.50048   0.37595   0.24877   0.00000  Uiso   1.00
C267   C     0.46201   0.35556   0.28652   0.00000  Uiso   1.00
C268   C     0.46185   0.64597   0.28691   0.00000  Uiso   1.00
C269   C     0.50016   0.62401   0.24956   0.00000  Uiso   1.00
C270   C     0.65148   0.47011   0.22131   0.00000  Uiso   1.00
C271   C     0.36591   0.47010   0.22137   0.00000  Uiso   1.00
C272   C     0.34845   0.52998   0.27878   0.00000  Uiso   1.00
C273   C     0.63453   0.53032   0.27835   0.00000  Uiso   1.00
C274   C     0.50020   0.42013   0.24940   0.00000  Uiso   1.00
C275   C     0.52681   0.49941   0.14745   0.00000  Uiso   1.00
C276   C     0.59254   0.45324   0.00667   0.00000  Uiso   1.00
C277   C     0.54358   0.49193   0.08813   0.00000  Uiso   1.00
C278   C     0.41058   0.51003   0.44377   0.00000  Uiso   1.00
C279   C     0.39602   0.50958   0.00058   0.00000  Uiso   1.00
C280   C     0.42732   0.49603   0.02633   0.00000  Uiso   1.00
H281   H     0.36023   0.52009   0.02489   0.00000  Uiso   1.00
N282   N     0.38093   0.50001   0.25001   0.00000  Uiso   1.00
N283   N     0.61906   0.49998   0.25000   0.00000  Uiso   1.00
O284   O     0.46179   0.56108   0.25000   0.00000  Uiso   1.00
O285   O     0.53823   0.56107   0.25000   0.00000  Uiso   1.00
O286   O     0.44280   0.50000   0.32681   0.00000  Uiso   1.00
O287   O     0.51924   0.49999   0.32681   0.00000  Uiso   1.00
O288   O     0.46177   0.43893   0.24999   0.00000  Uiso   1.00
O289   O     0.53821   0.43892   0.24999   0.00000  Uiso   1.00
O290   O     0.48076   0.50001   0.17319   0.00000  Uiso   1.00
O291   O     0.55720   0.50000   0.17319   0.00000  Uiso   1.00
Zn292  Zn    0.44896   0.50001   0.25000   0.00000  Uiso   1.00
Zn293  Zn    0.55104   0.49999   0.25000   0.00000  Uiso   1.00
O294   O     0.61677   0.45939   0.08732   0.00000  Uiso   1.00
H295   H     0.64250   0.44041   0.06440   0.00000  Uiso   1.00
O296   O     0.57525   0.37623   0.17299   0.00000  Uiso   1.00
H297   H     0.59955   0.35640   0.14927   0.00000  Uiso   1.00
F298   F     0.42550   0.37730   0.32377   0.00000  Uiso   1.00
F299   F     0.42537   0.62588   0.32467   0.00000  Uiso   1.00
F300   F     0.63804   0.44022   0.19212   0.00000  Uiso   1.00
F301   F     0.39693   0.43984   0.19280   0.00000  Uiso   1.00
O302   O     0.36007   0.56023   0.31019   0.00000  Uiso   1.00
H303   H     0.38745   0.54981   0.31922   0.00000  Uiso   1.00
O304   O     0.60515   0.56215   0.30782   0.00000  Uiso   1.00
H305   H     0.57187   0.55322   0.31768   0.00000  Uiso   1.00
F306   F     0.59199   0.40814   0.41071   0.00000  Uiso   1.00
O307   O     0.63621   0.43523   0.47717   0.00000  Uiso   1.00
H308   H     0.64588   0.44588   0.43936   0.00000  Uiso   1.00
F309   F     0.48031   0.53449   0.08244   0.00000  Uiso   1.00
F310   F     0.38069   0.52694   0.42024   0.00000  Uiso   1.00
O311   O     0.40860   0.49148   0.08236   0.00000  Uiso   1.00
H312   H     0.42743   0.46956   0.09254   0.00000  Uiso   1.00
O313   O     0.52275   0.42522   0.36405   0.00000  Uiso   1.00
H314   H     0.55169   0.40726   0.34933   0.00000  Uiso   1.00
F315   F     0.57489   0.62151   0.17500   0.00000  Uiso   1.00
C316   C     0.83328   0.57987   0.25014   0.00000  Uiso   1.00
C317   C     0.80838   0.48385   0.49380   0.00000  Uiso   1.00
C318   C     0.81810   0.47437   0.43806   0.00000  Uiso   1.00
C319   C     0.84669   0.48074   0.01407   0.00000  Uiso   1.00
C320   C     0.88849   0.45722   0.48454   0.00000  Uiso   1.00
C321   C     0.89073   0.43721   0.43502   0.00000  Uiso   1.00
C322   C     0.85616   0.44626   0.41097   0.00000  Uiso   1.00
C323   C     0.84553   0.50264   0.06140   0.00000  Uiso   1.00
C324   C     0.91815   0.46781   0.06072   0.00000  Uiso   1.00
C325   C     0.78859   0.49274   0.41190   0.00000  Uiso   1.00
C326   C     0.87210   0.64415   0.21159   0.00000  Uiso   1.00
C327   C     0.80655   0.49807   0.35236   0.00000  Uiso   1.00
C328   C     0.87240   0.35426   0.21076   0.00000  Uiso   1.00
C329   C     0.83381   0.37595   0.24877   0.00000  Uiso   1.00
C330   C     0.79534   0.35556   0.28652   0.00000  Uiso   1.00
C331   C     0.79519   0.64597   0.28691   0.00000  Uiso   1.00
C332   C     0.83349   0.62401   0.24956   0.00000  Uiso   1.00
C333   C     0.98482   0.47011   0.22131   0.00000  Uiso   1.00
C334   C     0.69924   0.47010   0.22137   0.00000  Uiso   1.00
C335   C     0.68178   0.52998   0.27878   0.00000  Uiso   1.00
C336   C     0.96787   0.53032   0.27835   0.00000  Uiso   1.00
C337   C     0.83354   0.42013   0.24940   0.00000  Uiso   1.00
C338   C     0.86015   0.49941   0.14745   0.00000  Uiso   1.00
C339   C     0.92588   0.45324   0.00667   0.00000  Uiso   1.00
C340   C     0.87691   0.49193   0.08813   0.00000  Uiso   1.00
C341   C     0.74392   0.51003   0.44377   0.00000  Uiso   1.00
C342   C     0.72936   0.50958   0.00058   0.00000  Uiso   1.00
C343   C     0.76065   0.49603   0.02633   0.00000  Uiso   1.00
H344   H     0.69357   0.52009   0.02489   0.00000  Uiso   1.00
N345   N     0.71426   0.50001   0.25001   0.00000  Uiso   1.00
N346   N     0.95239   0.49998   0.25000   0.00000  Uiso   1.00
O347   O     0.79512   0.56108   0.25000   0.00000  Uiso   1.00
O348   O     0.87157   0.56107   0.25000   0.00000  Uiso   1.00
O349   O     0.77613   0.50000   0.32681   0.00000  Uiso   1.00
O350   O     0.85258   0.49999   0.32681   0.00000  Uiso   1.00
O351   O     0.79510   0.43893   0.24999   0.00000  Uiso   1.00
O352   O     0.87154   0.43892   0.24999   0.00000  Uiso   1.00
O353   O     0.81409   0.50001   0.17319   0.00000  Uiso   1.00
O354   O     0.89053   0.50000   0.17319   0.00000  Uiso   1.00
Zn355  Zn    0.78229   0.50001   0.25000   0.00000  Uiso   1.00
Zn356  Zn    0.88438   0.49999   0.25000   0.00000  Uiso   1.00
O357   O     0.95010   0.45939   0.08732   0.00000  Uiso   1.00
H358   H     0.97583   0.44041   0.06440   0.00000  Uiso   1.00
O359   O     0.90858   0.37623   0.17299   0.00000  Uiso   1.00
H360   H     0.93288   0.35640   0.14927   0.00000  Uiso   1.00
F361   F     0.75883   0.37730   0.32377   0.00000  Uiso   1.00
F362   F     0.75870   0.62588   0.32467   0.00000  Uiso   1.00
F363   F     0.97137   0.44022   0.19212   0.00000  Uiso   1.00
F364   F     0.73026   0.43984   0.19280   0.00000  Uiso   1.00
O365   O     0.69340   0.56023   0.31019   0.00000  Uiso   1.00
H366   H     0.72079   0.54981   0.31922   0.00000  Uiso   1.00
O367   O     0.93849   0.56215   0.30782   0.00000  Uiso   1.00
H368   H     0.90521   0.55322   0.31768   0.00000  Uiso   1.00
F369   F     0.92532   0.40814   0.41071   0.00000  Uiso   1.00
O370   O     0.96954   0.43523   0.47717   0.00000  Uiso   1.00
H371   H     0.97922   0.44588   0.43936   0.00000  Uiso   1.00
F372   F     0.81364   0.53449   0.08244   0.00000  Uiso   1.00
F373   F     0.71403   0.52694   0.42024   0.00000  Uiso   1.00
O374   O     0.74193   0.49148   0.08236   0.00000  Uiso   1.00
H375   H     0.76077   0.46956   0.09254   0.00000  Uiso   1.00
O376   O     0.85608   0.42522   0.36405   0.00000  Uiso   1.00
H377   H     0.88502   0.40726   0.34933   0.00000  Uiso   1.00
F378   F     0.90823   0.62151   0.17500   0.00000  Uiso   1.00
C379   C     0.16662   0.91321   0.25014   0.00000  Uiso   1.00
C380   C     0.14172   0.81718   0.49380   0.00000  Uiso   1.00
C381   C     0.15144   0.80770   0.43806   0.00000  Uiso   1.00
C382   C     0.18002   0.81408   0.01407   0.00000  Uiso   1.00
C383   C     0.22182   0.79056   0.48454   0.00000  Uiso   1.00
C384   C     0.22407   0.77054   0.43502   0.00000  Uiso   1.00
C385   C     0.18949   0.77959   0.41097   0.00000  Uiso   1.00
C386   C     0.17886   0.83598   0.06140   0.00000  Uiso   1.00
C387   C     0.25148   0.80115   0.06072   0.00000  Uiso   1.00
C388   C     0.12193   0.82607   0.41190   0.00000  Uiso   1.00
C389   C     0.20543   0.97749   0.21159   0.00000  Uiso   1.00
C390   C     0.13988   0.83141   0.35236   0.00000  Uiso   1.00
C391   C     0.20573   0.68760   0.21076   0.00000  Uiso   1.00
C392   C     0.16715   0.70929   0.24877   0.00000  Uiso   1.00
C393   C     0.12867   0.68889   0.28652   0.00000  Uiso   1.00
C394   C     0.12852   0.97931   0.28691   0.00000  Uiso   1.00
C395   C     0.16682   0.95734   0.24956   0.00000  Uiso   1.00
C396   C     0.31815   0.80345   0.22131   0.00000  Uiso   1.00
C397   C     0.03257   0.80343   0.22137   0.00000  Uiso   1.00
C398   C     0.01511   0.86332   0.27878   0.00000  Uiso   1.00
C399   C     0.30120   0.86365   0.27835   0.00000  Uiso   1.00
C400   C     0.16687   0.75346   0.24940   0.00000  Uiso   1.00
C401   C     0.19348   0.83274   0.14745   0.00000  Uiso   1.00
C402   C     0.25921   0.78657   0.00667   0.00000  Uiso   1.00
C403   C     0.21025   0.82526   0.08813   0.00000  Uiso   1.00
C404   C     0.07725   0.84336   0.44377   0.00000  Uiso   1.00
C405   C     0.06269   0.84291   0.00058   0.00000  Uiso   1.00
C406   C     0.09398   0.82936   0.02633   0.00000  Uiso   1.00
H407   H     0.02690   0.85343   0.02489   0.00000  Uiso   1.00
N408   N     0.04760   0.83334   0.25001   0.00000  Uiso   1.00
N409   N     0.28573   0.83331   0.25000   0.00000  Uiso   1.00
O410   O     0.12846   0.89442   0.25000   0.00000  Uiso   1.00
O411   O     0.20490   0.89441   0.25000   0.00000  Uiso   1.00
O412   O     0.10947   0.83333   0.32681   0.00000  Uiso   1.00
O413   O     0.18591   0.83332   0.32681   0.00000  Uiso   1.00
O414   O     0.12843   0.77226   0.24999   0.00000  Uiso   1.00
O415   O     0.20488   0.77225   0.24999   0.00000  Uiso   1.00
O416   O     0.14742   0.83335   0.17319   0.00000  Uiso   1.00
O417   O     0.22387   0.83334   0.17319   0.00000  Uiso   1.00
Zn418  Zn    0.11562   0.83334   0.25000   0.00000  Uiso   1.00
Zn419  Zn    0.21771   0.83333   0.25000   0.00000  Uiso   1.00
O420   O     0.28344   0.79273   0.08732   0.00000  Uiso   1.00
H421   H     0.30917   0.77374   0.06440   0.00000  Uiso   1.00
O422   O     0.24192   0.70957   0.17299   0.00000  Uiso   1.00
H423   H     0.26621   0.68974   0.14927   0.00000  Uiso   1.00
F424   F     0.09217   0.71064   0.32377   0.00000  Uiso   1.00
F425   F     0.09204   0.95922   0.32467   0.00000  Uiso   1.00
F426   F     0.30470   0.77355   0.19212   0.00000  Uiso   1.00
F427   F     0.06359   0.77318   0.19280   0.00000  Uiso   1.00
O428   O     0.02674   0.89356   0.31019   0.00000  Uiso   1.00
H429   H     0.05412   0.88314   0.31922   0.00000  Uiso   1.00
O430   O     0.27182   0.89548   0.30782   0.00000  Uiso   1.00
H431   H     0.23854   0.88656   0.31768   0.00000  Uiso   1.00
F432   F     0.25865   0.74148   0.41071   0.00000  Uiso   1.00
O433   O     0.30288   0.76856   0.47717   0.00000  Uiso   1.00
H434   H     0.31255   0.77921   0.43936   0.00000  Uiso   1.00
F435   F     0.14698   0.86782   0.08244   0.00000  Uiso   1.00
F436   F     0.04736   0.86027   0.42024   0.00000  Uiso   1.00
O437   O     0.07526   0.82481   0.08236   0.00000  Uiso   1.00
H438   H     0.09410   0.80290   0.09254   0.00000  Uiso   1.00
O439   O     0.18941   0.75855   0.36405   0.00000  Uiso   1.00
H440   H     0.21836   0.74059   0.34933   0.00000  Uiso   1.00
F441   F     0.24156   0.95484   0.17500   0.00000  Uiso   1.00
C442   C     0.49995   0.91321   0.25014   0.00000  Uiso   1.00
C443   C     0.47505   0.81718   0.49380   0.00000  Uiso   1.00
C444   C     0.48477   0.80770   0.43806   0.00000  Uiso   1.00
C445   C     0.51335   0.81408   0.01407   0.00000  Uiso   1.00
C446   C     0.55515   0.79056   0.48454   0.00000  Uiso   1.00
C447   C     0.55740   0.77054   0.43502   0.00000  Uiso   1.00
C448   C     0.52283   0.77959   0.41097   0.00000  Uiso   1.00
C449   C     0.51220   0.83598   0.06140   0.00000  Uiso   1.00
C450   C     0.58482   0.80115   0.06072   0.00000  Uiso   1.00
C451   C     0.45526   0.82607   0.41190   0.00000  Uiso   1.00
C452   C     0.53876   0.97749   0.21159   0.00000  Uiso   1.00
C453   C     0.47322   0.83141   0.35236   0.00000  Uiso   1.00
C454   C     0.53906   0.68760   0.21076   0.00000  Uiso   1.00
C455   C     0.50048   0.70929   0.24877   0.00000  Uiso   1.00
C456   C     0.46201   0.68889   0.28652   0.00000  Uiso   1.00
C457   C     0.46185   0.97931   0.28691   0.00000  Uiso   1.00
C458   C     0.50016   0.95734   0.24956   0.00000  Uiso   1.00
C459   C     0.65148   0.80345   0.22131   0.00000  Uiso   1.00
C460   C     0.36591   0.80343   0.22137   0.00000  Uiso   1.00
C461   C     0.34845   0.86332   0.27878   0.00000  Uiso   1.00
C462   C     0.63453   0.86365   0.27835   0.00000  Uiso   1.00
C463   C     0.50020   0.75346   0.24940   0.00000  Uiso   1.00
C464   C     0.52681   0.83274   0.14745   0.00000  Uiso   1.00
C465   C     0.59254   0.78657   0.00667   0.00000  Uiso   1.00
C466   C     0.54358   0.82526   0.08813   0.00000  Uiso   1.00
C467   C     0.41058   0.84336   0.44377   0.00000  Uiso   1.00
C468   C     0.39602   0.84291   0.00058   0.00000  Uiso   1.00
C469   C     0.42732   0.82936   0.02633   0.00000  Uiso   1.00
H470   H     0.36023   0.85343   0.02489   0.00000  Uiso   1.00
N471   N     0.38093   0.83334   0.25001   0.00000  Uiso   1.00
N472   N     0.61906   0.83331   0.25000   0.00000  Uiso   1.00
O473   O     0.46179   0.89442   0.25000   0.00000  Uiso   1.00
O474   O     0.53823   0.89441   0.25000   0.00000  Uiso   1.00
O475   O     0.44280   0.83333   0.32681   0.00000  Uiso   1.00
O476   O     0.51924   0.83332   0.32681   0.00000  Uiso   1.00
O477   O     0.46177   0.77226   0.24999   0.00000  Uiso   1.00
O478   O     0.53821   0.77225   0.24999   0.00000  Uiso   1.00
O479   O     0.48076   0.83335   0.17319   0.00000  Uiso   1.00
O480   O     0.55720   0.83334   0.17319   0.00000  Uiso   1.00
Zn481  Zn    0.44896   0.83334   0.25000   0.00000  Uiso   1.00
Zn482  Zn    0.55104   0.83333   0.25000   0.00000  Uiso   1.00
O483   O     0.61677   0.79273   0.08732   0.00000  Uiso   1.00
H484   H     0.64250   0.77374   0.06440   0.00000  Uiso   1.00
O485   O     0.57525   0.70957   0.17299   0.00000  Uiso   1.00
H486   H     0.59955   0.68974   0.14927   0.00000  Uiso   1.00
F487   F     0.42550   0.71064   0.32377   0.00000  Uiso   1.00
F488   F     0.42537   0.95922   0.32467   0.00000  Uiso   1.00
F489   F     0.63804   0.77355   0.19212   0.00000  Uiso   1.00
F490   F     0.39693   0.77318   0.19280   0.00000  Uiso   1.00
O491   O     0.36007   0.89356   0.31019   0.00000  Uiso   1.00
H492   H     0.38745   0.88314   0.31922   0.00000  Uiso   1.00
O493   O     0.60515   0.89548   0.30782   0.00000  Uiso   1.00
H494   H     0.57187   0.88656   0.31768   0.00000  Uiso   1.00
F495   F     0.59199   0.74148   0.41071   0.00000  Uiso   1.00
O496   O     0.63621   0.76856   0.47717   0.00000  Uiso   1.00
H497   H     0.64588   0.77921   0.43936   0.00000  Uiso   1.00
F498   F     0.48031   0.86782   0.08244   0.00000  Uiso   1.00
F499   F     0.38069   0.86027   0.42024   0.00000  Uiso   1.00
O500   O     0.40860   0.82481   0.08236   0.00000  Uiso   1.00
H501   H     0.42743   0.80290   0.09254   0.00000  Uiso   1.00
O502   O     0.52275   0.75855   0.36405   0.00000  Uiso   1.00
H503   H     0.55169   0.74059   0.34933   0.00000  Uiso   1.00
F504   F     0.57489   0.95484   0.17500   0.00000  Uiso   1.00
C505   C     0.83328   0.91321   0.25014   0.00000  Uiso   1.00
C506   C     0.80838   0.81718   0.49380   0.00000  Uiso   1.00
C507   C     0.81810   0.80770   0.43806   0.00000  Uiso   1.00
C508   C     0.84669   0.81408   0.01407   0.00000  Uiso   1.00
C509   C     0.88849   0.79056   0.48454   0.00000  Uiso   1.00
C510   C     0.89073   0.77054   0.43502   0.00000  Uiso   1.00
C511   C     0.85616   0.77959   0.41097   0.00000  Uiso   1.00
C512   C     0.84553   0.83598   0.06140   0.00000  Uiso   1.00
C513   C     0.91815   0.80115   0.06072   0.00000  Uiso   1.00
C514   C     0.78859   0.82607   0.41190   0.00000  Uiso   1.00
C515   C     0.87210   0.97749   0.21159   0.00000  Uiso   1.00
C516   C     0.80655   0.83141   0.35236   0.00000  Uiso   1.00
C517   C     0.87240   0.68760   0.21076   0.00000  Uiso   1.00
C518   C     0.83381   0.70929   0.24877   0.00000  Uiso   1.00
C519   C     0.79534   0.68889   0.28652   0.00000  Uiso   1.00
C520   C     0.79519   0.97931   0.28691   0.00000  Uiso   1.00
C521   C     0.83349   0.95734   0.24956   0.00000  Uiso   1.00
C522   C     0.98482   0.80345   0.22131   0.00000  Uiso   1.00
C523   C     0.69924   0.80343   0.22137   0.00000  Uiso   1.00
C524   C     0.68178   0.86332   0.27878   0.00000  Uiso   1.00
C525   C     0.96787   0.86365   0.27835   0.00000  Uiso   1.00
C526   C     0.83354   0.75346   0.24940   0.00000  Uiso   1.00
C527   C     0.86015   0.83274   0.14745   0.00000  Uiso   1.00
C528   C     0.92588   0.78657   0.00667   0.00000  Uiso   1.00
C529   C     0.87691   0.82526   0.08813   0.00000  Uiso   1.00
C530   C     0.74392   0.84336   0.44377   0.00000  Uiso   1.00
C531   C     0.72936   0.84291   0.00058   0.00000  Uiso   1.00
C532   C     0.76065   0.82936   0.02633   0.00000  Uiso   1.00
H533   H     0.69357   0.85343   0.02489   0.00000  Uiso   1.00
N534   N     0.71426   0.83334   0.25001   0.00000  Uiso   1.00
N535   N     0.95239   0.83331   0.25000   0.00000  Uiso   1.00
O536   O     0.79512   0.89442   0.25000   0.00000  Uiso   1.00
O537   O     0.87157   0.89441   0.25000   0.00000  Uiso   1.00
O538   O     0.77613   0.83333   0.32681   0.00000  Uiso   1.00
O539   O     0.85258   0.83332   0.32681   0.00000  Uiso   1.00
O540   O     0.79510   0.77226   0.24999   0.00000  Uiso   1.00
O541   O     0.87154   0.77225   0.24999   0.00000  Uiso   1.00
O542   O     0.81409   0.83335   0.17319   0.00000  Uiso   1.00
O543   O     0.89053   0.83334   0.17319   0.00000  Uiso   1.00
Zn544  Zn    0.78229   0.83334   0.25000   0.00000  Uiso   1.00
Zn545  Zn    0.88438   0.83333   0.25000   0.00000  Uiso   1.00
O546   O     0.95010   0.79273   0.08732   0.00000  Uiso   1.00
H547   H     0.97583   0.77374   0.06440   0.00000  Uiso   1.00
O548   O     0.90858   0.70957   0.17299   0.00000  Uiso   1.00
H549   H     0.93288   0.68974   0.14927   0.00000  Uiso   1.00
F550   F     0.75883   0.71064   0.32377   0.00000  Uiso   1.00
F551   F     0.75870   0.95922   0.32467   0.00000  Uiso   1.00
F552   F     0.97137   0.77355   0.19212   0.00000  Uiso   1.00
F553   F     0.73026   0.77318   0.19280   0.00000  Uiso   1.00
O554   O     0.69340   0.89356   0.31019   0.00000  Uiso   1.00
H555   H     0.72079   0.88314   0.31922   0.00000  Uiso   1.00
O556   O     0.93849   0.89548   0.30782   0.00000  Uiso   1.00
H557   H     0.90521   0.88656   0.31768   0.00000  Uiso   1.00
F558   F     0.92532   0.74148   0.41071   0.00000  Uiso   1.00
O559   O     0.96954   0.76856   0.47717   0.00000  Uiso   1.00
H560   H     0.97922   0.77921   0.43936   0.00000  Uiso   1.00
F561   F     0.81364   0.86782   0.08244   0.00000  Uiso   1.00
F562   F     0.71403   0.86027   0.42024   0.00000  Uiso   1.00
O563   O     0.74193   0.82481   0.08236   0.00000  Uiso   1.00
H564   H     0.76077   0.80290   0.09254   0.00000  Uiso   1.00
O565   O     0.85608   0.75855   0.36405   0.00000  Uiso   1.00
H566   H     0.88502   0.74059   0.34933   0.00000  Uiso   1.00
F567   F     0.90823   0.95484   0.17500   0.00000  Uiso   1.00
C568   C     0.16662   0.24654   0.75014   0.00000  Uiso   1.00
C569   C     0.14172   0.15051   0.99380   0.00000  Uiso   1.00
C570   C     0.15144   0.14103   0.93806   0.00000  Uiso   1.00
C571   C     0.18002   0.14741   0.51407   0.00000  Uiso   1.00
C572   C     0.22182   0.12389   0.98454   0.00000  Uiso   1.00
C573   C     0.22407   0.10387   0.93502   0.00000  Uiso   1.00
C574   C     0.18949   0.11293   0.91097   0.00000  Uiso   1.00
C575   C     0.17886   0.16931   0.56140   0.00000  Uiso   1.00
C576   C     0.25148   0.13448   0.56072   0.00000  Uiso   1.00
C577   C     0.12193   0.15940   0.91190   0.00000  Uiso   1.00
C578   C     0.20543   0.31082   0.71159   0.00000  Uiso   1.00
C579   C     0.13988   0.16474   0.85236   0.00000  Uiso   1.00
C580   C     0.20573   0.02093   0.71076   0.00000  Uiso   1.00
C581   C     0.16715   0.04262   0.74877   0.00000  Uiso   1.00
C582   C     0.12867   0.02222   0.78652   0.00000  Uiso   1.00
C583   C     0.12852   0.31264   0.78691   0.00000  Uiso   1.00
C584   C     0.16682   0.29067   0.74956   0.00000  Uiso   1.00
C585   C     0.31815   0.13678   0.72131   0.00000  Uiso   1.00
C586   C     0.03257   0.13676   0.72137   0.00000  Uiso   1.00
C587   C     0.01511   0.19665   0.77878   0.00000  Uiso   1.00
C588   C     0.30120   0.19698   0.77835   0.00000  Uiso   1.00
C589   C     0.16687   0.08680   0.74940   0.00000  Uiso   1.00
C590   C     0.19348   0.16608   0.64745   0.00000  Uiso   1.00
C591   C     0.25921   0.11990   0.50667   0.00000  Uiso   1.00
C592   C     0.21025   0.15859   0.58813   0.00000  Uiso   1.00
C593   C     0.07725   0.17669   0.94377   0.00000  Uiso   1.00
C594   C     0.06269   0.17625   0.50058   0.00000  Uiso   1.00
C595   C     0.09398   0.16270   0.52633   0.00000  Uiso   1.00
H596   H     0.02690   0.18676   0.52489   0.00000  Uiso   1.00
N597   N     0.04760   0.16668   0.75001   0.00000  Uiso   1.00
N598   N     0.28573   0.16665   0.75000   0.00000  Uiso   1.00
O599   O     0.12846   0.22775   0.75000   0.00000  Uiso   1.00
O600   O     0.20490   0.22774   0.75000   0.00000  Uiso   1.00
O601   O     0.10947   0.16666   0.82681   0.00000  Uiso   1.00
O602   O     0.18591   0.16665   0.82681   0.00000  Uiso   1.00
O603   O     0.12843   0.10559   0.74999   0.00000  Uiso   1.00
O604   O     0.20488   0.10558   0.74999   0.00000  Uiso   1.00
O605   O     0.14742   0.16668   0.67319   0.00000  Uiso   1.00
O606   O     0.22387   0.16667   0.67319   0.00000  Uiso   1.00
Zn607  Zn    0.11562   0.16667   0.75000   0.00000  Uiso   1.00
Zn608  Zn    0.21771   0.16666   0.75000   0.00000  Uiso   1.00
O609   O     0.28344   0.12606   0.58732   0.00000  Uiso   1.00
H610   H     0.30917   0.10708   0.56440   0.00000  Uiso   1.00
O611   O     0.24192   0.04290   0.67299   0.00000  Uiso   1.00
H612   H     0.26621   0.02307   0.64927   0.00000  Uiso   1.00
F613   F     0.09217   0.04397   0.82377   0.00000  Uiso   1.00
F614   F     0.09204   0.29255   0.82467   0.00000  Uiso   1.00
F615   F     0.30470   0.10689   0.69212   0.00000  Uiso   1.00
F616   F     0.06359   0.10651   0.69280   0.00000  Uiso   1.00
O617   O     0.02674   0.22690   0.81019   0.00000  Uiso   1.00
H618   H     0.05412   0.21648   0.81922   0.00000  Uiso   1.00
O619   O     0.27182   0.22882   0.80782   0.00000  Uiso   1.00
H620   H     0.23854   0.21989   0.81768   0.00000  Uiso   1.00
F621   F     0.25865   0.07481   0.91071   0.00000  Uiso   1.00
O622   O     0.30288   0.10190   0.97717   0.00000  Uiso   1.00
H623   H     0.31255   0.11254   0.93936   0.00000  Uiso   1.00
F624   F     0.14698   0.20116   0.58244   0.00000  Uiso   1.00
F625   F     0.04736   0.19360   0.92024   0.00000  Uiso   1.00
O626   O     0.07526   0.15814   0.58236   0.00000  Uiso   1.00
H627   H     0.09410   0.13623   0.59254   0.00000  Uiso   1.00
O628   O     0.18941   0.09188   0.86405   0.00000  Uiso   1.00
H629   H     0.21836   0.07393   0.84933   0.00000  Uiso   1.00
F630   F     0.24156   0.28817   0.67500   0.00000  Uiso   1.00
C631   C     0.49995   0.24654   0.75014   0.00000  Uiso   1.00
C632   C     0.47505   0.15051   0.99380   0.00000  Uiso   1.00
C633   C     0.48477   0.14103   0.93806   0.00000  Uiso   1.00
C634   C     0.51335   0.14741   0.51407   0.00000  Uiso   1.00
C635   C     0.55515   0.12389   0.98454   0.00000  Uiso   1.00
C636   C     0.55740   0.10387   0.93502   0.00000  Uiso   1.00
C637   C     0.52283   0.11293   0.91097   0.00000  Uiso   1.00
C638   C     0.51220   0.16931   0.56140   0.00000  Uiso   1.00
C639   C     0.58482   0.13448   0.56072   0.00000  Uiso   1.00
C640   C     0.45526   0.15940   0.91190   0.00000  Uiso   1.00
C641   C     0.53876   0.31082   0.71159   0.00000  Uiso   1.00
C642   C     0.47322   0.16474   0.85236   0.00000  Uiso   1.00
C643   C     0.53906   0.02093   0.71076   0.00000  Uiso   1.00
C644   C     0.50048   0.04262   0.74877   0.00000  Uiso   1.00
C645   C     0.46201   0.02222   0.78652   0.00000  Uiso   1.00
C646   C     0.46185   0.31264   0.78691   0.00000  Uiso   1.00
C647   C     0.50016   0.29067   0.74956   0.00000  Uiso   1.00
C648   C     0.65148   0.13678   0.72131   0.00000  Uiso   1.00
C649   C     0.36591   0.13676   0.72137   0.00000  Uiso   1.00
C650   C     0.34845   0.19665   0.77878   0.00000  Uiso   1.00
C651   C     0.63453   0.19698   0.77835   0.00000  Uiso   1.00
C652   C     0.50020   0.08680   0.74940   0.00000  Uiso   1.00
C653   C     0.52681   0.16608   0.64745   0.00000  Uiso   1.00
C654   C     0.59254   0.11990   0.50667   0.00000  Uiso   1.00
C655   C     0.54358   0.15859   0.58813   0.00000  Uiso   1.00
C656   C     0.41058   0.17669   0.94377   0.00000  Uiso   1.00
C657   C     0.39602   0.17625   0.50058   0.00000  Uiso   1.00
C658   C     0.42732   0.16270   0.52633   0.00000  Uiso   1.00
H659   H     0.36023   0.18676   0.52489   0.00000  Uiso   1.00
N660   N     0.38093   0.16668   0.75001   0.00000  Uiso   1.00
N661   N     0.61906   0.16665   0.75000   0.00000  Uiso   1.00
O662   O     0.46179   0.22775   0.75000   0.00000  Uiso   1.00
O663   O     0.53823   0.22774   0.75000   0.00000  Uiso   1.00
O664   O     0.44280   0.16666   0.82681   0.00000  Uiso   1.00
O665   O     0.51924   0.16665   0.82681   0.00000  Uiso   1.00
O666   O     0.46177   0.10559   0.74999   0.00000  Uiso   1.00
O667   O     0.53821   0.10558   0.74999   0.00000  Uiso   1.00
O668   O     0.48076   0.16668   0.67319   0.00000  Uiso   1.00
O669   O     0.55720   0.16667   0.67319   0.00000  Uiso   1.00
Zn670  Zn    0.44896   0.16667   0.75000   0.00000  Uiso   1.00
Zn671  Zn    0.55104   0.16666   0.75000   0.00000  Uiso   1.00
O672   O     0.61677   0.12606   0.58732   0.00000  Uiso   1.00
H673   H     0.64250   0.10708   0.56440   0.00000  Uiso   1.00
O674   O     0.57525   0.04290   0.67299   0.00000  Uiso   1.00
H675   H     0.59955   0.02307   0.64927   0.00000  Uiso   1.00
F676   F     0.42550   0.04397   0.82377   0.00000  Uiso   1.00
F677   F     0.42537   0.29255   0.82467   0.00000  Uiso   1.00
F678   F     0.63804   0.10689   0.69212   0.00000  Uiso   1.00
F679   F     0.39693   0.10651   0.69280   0.00000  Uiso   1.00
O680   O     0.36007   0.22690   0.81019   0.00000  Uiso   1.00
H681   H     0.38745   0.21648   0.81922   0.00000  Uiso   1.00
O682   O     0.60515   0.22882   0.80782   0.00000  Uiso   1.00
H683   H     0.57187   0.21989   0.81768   0.00000  Uiso   1.00
F684   F     0.59199   0.07481   0.91071   0.00000  Uiso   1.00
O685   O     0.63621   0.10190   0.97717   0.00000  Uiso   1.00
H686   H     0.64588   0.11254   0.93936   0.00000  Uiso   1.00
F687   F     0.48031   0.20116   0.58244   0.00000  Uiso   1.00
F688   F     0.38069   0.19360   0.92024   0.00000  Uiso   1.00
O689   O     0.40860   0.15814   0.58236   0.00000  Uiso   1.00
H690   H     0.42743   0.13623   0.59254   0.00000  Uiso   1.00
O691   O     0.52275   0.09188   0.86405   0.00000  Uiso   1.00
H692   H     0.55169   0.07393   0.84933   0.00000  Uiso   1.00
F693   F     0.57489   0.28817   0.67500   0.00000  Uiso   1.00
C694   C     0.83328   0.24654   0.75014   0.00000  Uiso   1.00
C695   C     0.80838   0.15051   0.99380   0.00000  Uiso   1.00
C696   C     0.81810   0.14103   0.93806   0.00000  Uiso   1.00
C697   C     0.84669   0.14741   0.51407   0.00000  Uiso   1.00
C698   C     0.88849   0.12389   0.98454   0.00000  Uiso   1.00
C699   C     0.89073   0.10387   0.93502   0.00000  Uiso   1.00
C700   C     0.85616   0.11293   0.91097   0.00000  Uiso   1.00
C701   C     0.84553   0.16931   0.56140   0.00000  Uiso   1.00
C702   C     0.91815   0.13448   0.56072   0.00000  Uiso   1.00
C703   C     0.78859   0.15940   0.91190   0.00000  Uiso   1.00
C704   C     0.87210   0.31082   0.71159   0.00000  Uiso   1.00
C705   C     0.80655   0.16474   0.85236   0.00000  Uiso   1.00
C706   C     0.87240   0.02093   0.71076   0.00000  Uiso   1.00
C707   C     0.83381   0.04262   0.74877   0.00000  Uiso   1.00
C708   C     0.79534   0.02222   0.78652   0.00000  Uiso   1.00
C709   C     0.79519   0.31264   0.78691   0.00000  Uiso   1.00
C710   C     0.83349   0.29067   0.74956   0.00000  Uiso   1.00
C711   C     0.98482   0.13678   0.72131   0.00000  Uiso   1.00
C712   C     0.69924   0.13676   0.72137   0.00000  Uiso   1.00
C713   C     0.68178   0.19665   0.77878   0.00000  Uiso   1.00
C714   C     0.96787   0.19698   0.77835   0.00000  Uiso   1.00
C715   C     0.83354   0.08680   0.74940   0.00000  Uiso   1.00
C716   C     0.86015   0.16608   0.64745   0.00000  Uiso   1.00
C717   C     0.92588   0.11990   0.50667   0.00000  Uiso   1.00
C718   C     0.87691   0.15859   0.58813   0.00000  Uiso   1.00
C719   C     0.74392   0.17669   0.94377   0.00000  Uiso   1.00
C720   C     0.72936   0.17625   0.50058   0.00000  Uiso   1.00
C721   C     0.76065   0.16270   0.52633   0.00000  Uiso   1.00
H722   H     0.69357   0.18676   0.52489   0.00000  Uiso   1.00
N723   N     0.71426   0.16668   0.75001   0.00000  Uiso   1.00
N724   N     0.95239   0.16665   0.75000   0.00000  Uiso   1.00
O725   O     0.79512   0.22775   0.75000   0.00000  Uiso   1.00
O726   O     0.87157   0.22774   0.75000   0.00000  Uiso   1.00
O727   O     0.77613   0.16666   0.82681   0.00000  Uiso   1.00
O728   O     0.85258   0.16665   0.82681   0.00000  Uiso   1.00
O729   O     0.79510   0.10559   0.74999   0.00000  Uiso   1.00
O730   O     0.87154   0.10558   0.74999   0.00000  Uiso   1.00
O731   O     0.81409   0.16668   0.67319   0.00000  Uiso   1.00
O732   O     0.89053   0.16667   0.67319   0.00000  Uiso   1.00
Zn733  Zn    0.78229   0.16667   0.75000   0.00000  Uiso   1.00
Zn734  Zn    0.88438   0.16666   0.75000   0.00000  Uiso   1.00
O735   O     0.95010   0.12606   0.58732   0.00000  Uiso   1.00
H736   H     0.97583   0.10708   0.56440   0.00000  Uiso   1.00
O737   O     0.90858   0.04290   0.67299   0.00000  Uiso   1.00
H738   H     0.93288   0.02307   0.64927   0.00000  Uiso   1.00
F739   F     0.75883   0.04397   0.82377   0.00000  Uiso   1.00
F740   F     0.75870   0.29255   0.82467   0.00000  Uiso   1.00
F741   F     0.97137   0.10689   0.69212   0.00000  Uiso   1.00
F742   F     0.73026   0.10651   0.69280   0.00000  Uiso   1.00
O743   O     0.69340   0.22690   0.81019   0.00000  Uiso   1.00
H744   H     0.72079   0.21648   0.81922   0.00000  Uiso   1.00
O745   O     0.93849   0.22882   0.80782   0.00000  Uiso   1.00
H746   H     0.90521   0.21989   0.81768   0.00000  Uiso   1.00
F747   F     0.92532   0.07481   0.91071   0.00000  Uiso   1.00
O748   O     0.96954   0.10190   0.97717   0.00000  Uiso   1.00
H749   H     0.97922   0.11254   0.93936   0.00000  Uiso   1.00
F750   F     0.81364   0.20116   0.58244   0.00000  Uiso   1.00
F751   F     0.71403   0.19360   0.92024   0.00000  Uiso   1.00
O752   O     0.74193   0.15814   0.58236   0.00000  Uiso   1.00
H753   H     0.76077   0.13623   0.59254   0.00000  Uiso   1.00
O754   O     0.85608   0.09188   0.86405   0.00000  Uiso   1.00
H755   H     0.88502   0.07393   0.84933   0.00000  Uiso   1.00
F756   F     0.90823   0.28817   0.67500   0.00000  Uiso   1.00
C757   C     0.16662   0.57987   0.75014   0.00000  Uiso   1.00
C758   C     0.14172   0.48385   0.99380   0.00000  Uiso   1.00
C759   C     0.15144   0.47437   0.93806   0.00000  Uiso   1.00
C760   C     0.18002   0.48074   0.51407   0.00000  Uiso   1.00
C761   C     0.22182   0.45722   0.98454   0.00000  Uiso   1.00
C762   C     0.22407   0.43721   0.93502   0.00000  Uiso   1.00
C763   C     0.18949   0.44626   0.91097   0.00000  Uiso   1.00
C764   C     0.17886   0.50264   0.56140   0.00000  Uiso   1.00
C765   C     0.25148   0.46781   0.56072   0.00000  Uiso   1.00
C766   C     0.12193   0.49274   0.91190   0.00000  Uiso   1.00
C767   C     0.20543   0.64415   0.71159   0.00000  Uiso   1.00
C768   C     0.13988   0.49807   0.85236   0.00000  Uiso   1.00
C769   C     0.20573   0.35426   0.71076   0.00000  Uiso   1.00
C770   C     0.16715   0.37595   0.74877   0.00000  Uiso   1.00
C771   C     0.12867   0.35556   0.78652   0.00000  Uiso   1.00
C772   C     0.12852   0.64597   0.78691   0.00000  Uiso   1.00
C773   C     0.16682   0.62401   0.74956   0.00000  Uiso   1.00
C774   C     0.31815   0.47011   0.72131   0.00000  Uiso   1.00
C775   C     0.03257   0.47010   0.72137   0.00000  Uiso   1.00
C776   C     0.01511   0.52998   0.77878   0.00000  Uiso   1.00
C777   C     0.30120   0.53032   0.77835   0.00000  Uiso   1.00
C778   C     0.16687   0.42013   0.74940   0.00000  Uiso   1.00
C779   C     0.19348   0.49941   0.64745   0.00000  Uiso   1.00
C780   C     0.25921   0.45324   0.50667   0.00000  Uiso   1.00
C781   C     0.21025   0.49193   0.58813   0.00000  Uiso   1.00
C782   C     0.07725   0.51003   0.94377   0.00000  Uiso   1.00
C783   C     0.06269   0.50958   0.50058   0.00000  Uiso   1.00
C784   C     0.09398   0.49603   0.52633   0.00000  Uiso   1.00
H785   H     0.02690   0.52009   0.52489   0.00000  Uiso   1.00
N786   N     0.04760   0.50001   0.75001   0.00000  Uiso   1.00
N787   N     0.28573   0.49998   0.75000   0.00000  Uiso   1.00
O788   O     0.12846   0.56108   0.75000   0.00000  Uiso   1.00
O789   O     0.20490   0.56107   0.75000   0.00000  Uiso   1.00
O790   O     0.10947   0.50000   0.82681   0.00000  Uiso   1.00
O791   O     0.18591   0.49999   0.82681   0.00000  Uiso   1.00
O792   O     0.12843   0.43893   0.74999   0.00000  Uiso   1.00
O793   O     0.20488   0.43892   0.74999   0.00000  Uiso   1.00
O794   O     0.14742   0.50001   0.67319   0.00000  Uiso   1.00
O795   O     0.22387   0.50000   0.67319   0.00000  Uiso   1.00
Zn796  Zn    0.11562   0.50001   0.75000   0.00000  Uiso   1.00
Zn797  Zn    0.21771   0.49999   0.75000   0.00000  Uiso   1.00
O798   O     0.28344   0.45939   0.58732   0.00000  Uiso   1.00
H799   H     0.30917   0.44041   0.56440   0.00000  Uiso   1.00
O800   O     0.24192   0.37623   0.67299   0.00000  Uiso   1.00
H801   H     0.26621   0.35640   0.64927   0.00000  Uiso   1.00
F802   F     0.09217   0.37730   0.82377   0.00000  Uiso   1.00
F803   F     0.09204   0.62588   0.82467   0.00000  Uiso   1.00
F804   F     0.30470   0.44022   0.69212   0.00000  Uiso   1.00
F805   F     0.06359   0.43984   0.69280   0.00000  Uiso   1.00
O806   O     0.02674   0.56023   0.81019   0.00000  Uiso   1.00
H807   H     0.05412   0.54981   0.81922   0.00000  Uiso   1.00
O808   O     0.27182   0.56215   0.80782   0.00000  Uiso   1.00
H809   H     0.23854   0.55322   0.81768   0.00000  Uiso   1.00
F810   F     0.25865   0.40814   0.91071   0.00000  Uiso   1.00
O811   O     0.30288   0.43523   0.97717   0.00000  Uiso   1.00
H812   H     0.31255   0.44588   0.93936   0.00000  Uiso   1.00
F813   F     0.14698   0.53449   0.58244   0.00000  Uiso   1.00
F814   F     0.04736   0.52694   0.92024   0.00000  Uiso   1.00
O815   O     0.07526   0.49148   0.58236   0.00000  Uiso   1.00
H816   H     0.09410   0.46956   0.59254   0.00000  Uiso   1.00
O817   O     0.18941   0.42522   0.86405   0.00000  Uiso   1.00
H818   H     0.21836   0.40726   0.84933   0.00000  Uiso   1.00
F819   F     0.24156   0.62151   0.67500   0.00000  Uiso   1.00
C820   C     0.49995   0.57987   0.75014   0.00000  Uiso   1.00
C821   C     0.47505   0.48385   0.99380   0.00000  Uiso   1.00
C822   C     0.48477   0.47437   0.93806   0.00000  Uiso   1.00
C823   C     0.51335   0.48074   0.51407   0.00000  Uiso   1.00
C824   C     0.55515   0.45722   0.98454   0.00000  Uiso   1.00
C825   C     0.55740   0.43721   0.93502   0.00000  Uiso   1.00
C826   C     0.52283   0.44626   0.91097   0.00000  Uiso   1.00
C827   C     0.51220   0.50264   0.56140   0.00000  Uiso   1.00
C828   C     0.58482   0.46781   0.56072   0.00000  Uiso   1.00
C829   C     0.45526   0.49274   0.91190   0.00000  Uiso   1.00
C830   C     0.53876   0.64415   0.71159   0.00000  Uiso   1.00
C831   C     0.47322   0.49807   0.85236   0.00000  Uiso   1.00
C832   C     0.53906   0.35426   0.71076   0.00000  Uiso   1.00
C833   C     0.50048   0.37595   0.74877   0.00000  Uiso   1.00
C834   C     0.46201   0.35556   0.78652   0.00000  Uiso   1.00
C835   C     0.46185   0.64597   0.78691   0.00000  Uiso   1.00
C836   C     0.50016   0.62401   0.74956   0.00000  Uiso   1.00
C837   C     0.65148   0.47011   0.72131   0.00000  Uiso   1.00
C838   C     0.36591   0.47010   0.72137   0.00000  Uiso   1.00
C839   C     0.34845   0.52998   0.77878   0.00000  Uiso   1.00
C840   C     0.63453   0.53032   0.77835   0.00000  Uiso   1.00
C841   C     0.50020   0.42013   0.74940   0.00000  Uiso   1.00
C842   C     0.52681   0.49941   0.64745   0.00000  Uiso   1.00
C843   C     0.59254   0.45324   0.50667   0.00000  Uiso   1.00
C844   C     0.54358   0.49193   0.58813   0.00000  Uiso   1.00
C845   C     0.41058   0.51003   0.94377   0.00000  Uiso   1.00
C846   C     0.39602   0.50958   0.50058   0.00000  Uiso   1.00
C847   C     0.42732   0.49603   0.52633   0.00000  Uiso   1.00
H848   H     0.36023   0.52009   0.52489   0.00000  Uiso   1.00
N849   N     0.38093   0.50001   0.75001   0.00000  Uiso   1.00
N850   N     0.61906   0.49998   0.75000   0.00000  Uiso   1.00
O851   O     0.46179   0.56108   0.75000   0.00000  Uiso   1.00
O852   O     0.53823   0.56107   0.75000   0.00000  Uiso   1.00
O853   O     0.44280   0.50000   0.82681   0.00000  Uiso   1.00
O854   O     0.51924   0.49999   0.82681   0.00000  Uiso   1.00
O855   O     0.46177   0.43893   0.74999   0.00000  Uiso   1.00
O856   O     0.53821   0.43892   0.74999   0.00000  Uiso   1.00
O857   O     0.48076   0.50001   0.67319   0.00000  Uiso   1.00
O858   O     0.55720   0.50000   0.67319   0.00000  Uiso   1.00
Zn859  Zn    0.44896   0.50001   0.75000   0.00000  Uiso   1.00
Zn860  Zn    0.55104   0.49999   0.75000   0.00000  Uiso   1.00
O861   O     0.61677   0.45939   0.58732   0.00000  Uiso   1.00
H862   H     0.64250   0.44041   0.56440   0.00000  Uiso   1.00
O863   O     0.57525   0.37623   0.67299   0.00000  Uiso   1.00
H864   H     0.59955   0.35640   0.64927   0.00000  Uiso   1.00
F865   F     0.42550   0.37730   0.82377   0.00000  Uiso   1.00
F866   F     0.42537   0.62588   0.82467   0.00000  Uiso   1.00
F867   F     0.63804   0.44022   0.69212   0.00000  Uiso   1.00
F868   F     0.39693   0.43984   0.69280   0.00000  Uiso   1.00
O869   O     0.36007   0.56023   0.81019   0.00000  Uiso   1.00
H870   H     0.38745   0.54981   0.81922   0.00000  Uiso   1.00
O871   O     0.60515   0.56215   0.80782   0.00000  Uiso   1.00
H872   H     0.57187   0.55322   0.81768   0.00000  Uiso   1.00
F873   F     0.59199   0.40814   0.91071   0.00000  Uiso   1.00
O874   O     0.63621   0.43523   0.97717   0.00000  Uiso   1.00
H875   H     0.64588   0.44588   0.93936   0.00000  Uiso   1.00
F876   F     0.48031   0.53449   0.58244   0.00000  Uiso   1.00
F877   F     0.38069   0.52694   0.92024   0.00000  Uiso   1.00
O878   O     0.40860   0.49148   0.58236   0.00000  Uiso   1.00
H879   H     0.42743   0.46956   0.59254   0.00000  Uiso   1.00
O880   O     0.52275   0.42522   0.86405   0.00000  Uiso   1.00
H881   H     0.55169   0.40726   0.84933   0.00000  Uiso   1.00
F882   F     0.57489   0.62151   0.67500   0.00000  Uiso   1.00
C883   C     0.83328   0.57987   0.75014   0.00000  Uiso   1.00
C884   C     0.80838   0.48385   0.99380   0.00000  Uiso   1.00
C885   C     0.81810   0.47437   0.93806   0.00000  Uiso   1.00
C886   C     0.84669   0.48074   0.51407   0.00000  Uiso   1.00
C887   C     0.88849   0.45722   0.98454   0.00000  Uiso   1.00
C888   C     0.89073   0.43721   0.93502   0.00000  Uiso   1.00
C889   C     0.85616   0.44626   0.91097   0.00000  Uiso   1.00
C890   C     0.84553   0.50264   0.56140   0.00000  Uiso   1.00
C891   C     0.91815   0.46781   0.56072   0.00000  Uiso   1.00
C892   C     0.78859   0.49274   0.91190   0.00000  Uiso   1.00
C893   C     0.87210   0.64415   0.71159   0.00000  Uiso   1.00
C894   C     0.80655   0.49807   0.85236   0.00000  Uiso   1.00
C895   C     0.87240   0.35426   0.71076   0.00000  Uiso   1.00
C896   C     0.83381   0.37595   0.74877   0.00000  Uiso   1.00
C897   C     0.79534   0.35556   0.78652   0.00000  Uiso   1.00
C898   C     0.79519   0.64597   0.78691   0.00000  Uiso   1.00
C899   C     0.83349   0.62401   0.74956   0.00000  Uiso   1.00
C900   C     0.98482   0.47011   0.72131   0.00000  Uiso   1.00
C901   C     0.69924   0.47010   0.72137   0.00000  Uiso   1.00
C902   C     0.68178   0.52998   0.77878   0.00000  Uiso   1.00
C903   C     0.96787   0.53032   0.77835   0.00000  Uiso   1.00
C904   C     0.83354   0.42013   0.74940   0.00000  Uiso   1.00
C905   C     0.86015   0.49941   0.64745   0.00000  Uiso   1.00
C906   C     0.92588   0.45324   0.50667   0.00000  Uiso   1.00
C907   C     0.87691   0.49193   0.58813   0.00000  Uiso   1.00
C908   C     0.74392   0.51003   0.94377   0.00000  Uiso   1.00
C909   C     0.72936   0.50958   0.50058   0.00000  Uiso   1.00
C910   C     0.76065   0.49603   0.52633   0.00000  Uiso   1.00
H911   H     0.69357   0.52009   0.52489   0.00000  Uiso   1.00
N912   N     0.71426   0.50001   0.75001   0.00000  Uiso   1.00
N913   N     0.95239   0.49998   0.75000   0.00000  Uiso   1.00
O914   O     0.79512   0.56108   0.75000   0.00000  Uiso   1.00
O915   O     0.87157   0.56107   0.75000   0.00000  Uiso   1.00
O916   O     0.77613   0.50000   0.82681   0.00000  Uiso   1.00
O917   O     0.85258   0.49999   0.82681   0.00000  Uiso   1.00
O918   O     0.79510   0.43893   0.74999   0.00000  Uiso   1.00
O919   O     0.87154   0.43892   0.74999   0.00000  Uiso   1.00
O920   O     0.81409   0.50001   0.67319   0.00000  Uiso   1.00
O921   O     0.89053   0.50000   0.67319   0.00000  Uiso   1.00
Zn922  Zn    0.78229   0.50001   0.75000   0.00000  Uiso   1.00
Zn923  Zn    0.88438   0.49999   0.75000   0.00000  Uiso   1.00
O924   O     0.95010   0.45939   0.58732   0.00000  Uiso   1.00
H925   H     0.97583   0.44041   0.56440   0.00000  Uiso   1.00
O926   O     0.90858   0.37623   0.67299   0.00000  Uiso   1.00
H927   H     0.93288   0.35640   0.64927   0.00000  Uiso   1.00
F928   F     0.75883   0.37730   0.82377   0.00000  Uiso   1.00
F929   F     0.75870   0.62588   0.82467   0.00000  Uiso   1.00
F930   F     0.97137   0.44022   0.69212   0.00000  Uiso   1.00
F931   F     0.73026   0.43984   0.69280   0.00000  Uiso   1.00
O932   O     0.69340   0.56023   0.81019   0.00000  Uiso   1.00
H933   H     0.72079   0.54981   0.81922   0.00000  Uiso   1.00
O934   O     0.93849   0.56215   0.80782   0.00000  Uiso   1.00
H935   H     0.90521   0.55322   0.81768   0.00000  Uiso   1.00
F936   F     0.92532   0.40814   0.91071   0.00000  Uiso   1.00
O937   O     0.96954   0.43523   0.97717   0.00000  Uiso   1.00
H938   H     0.97922   0.44588   0.93936   0.00000  Uiso   1.00
F939   F     0.81364   0.53449   0.58244   0.00000  Uiso   1.00
F940   F     0.71403   0.52694   0.92024   0.00000  Uiso   1.00
O941   O     0.74193   0.49148   0.58236   0.00000  Uiso   1.00
H942   H     0.76077   0.46956   0.59254   0.00000  Uiso   1.00
O943   O     0.85608   0.42522   0.86405   0.00000  Uiso   1.00
H944   H     0.88502   0.40726   0.84933   0.00000  Uiso   1.00
F945   F     0.90823   0.62151   0.67500   0.00000  Uiso   1.00
C946   C     0.16662   0.91321   0.75014   0.00000  Uiso   1.00
C947   C     0.14172   0.81718   0.99380   0.00000  Uiso   1.00
C948   C     0.15144   0.80770   0.93806   0.00000  Uiso   1.00
C949   C     0.18002   0.81408   0.51407   0.00000  Uiso   1.00
C950   C     0.22182   0.79056   0.98454   0.00000  Uiso   1.00
C951   C     0.22407   0.77054   0.93502   0.00000  Uiso   1.00
C952   C     0.18949   0.77959   0.91097   0.00000  Uiso   1.00
C953   C     0.17886   0.83598   0.56140   0.00000  Uiso   1.00
C954   C     0.25148   0.80115   0.56072   0.00000  Uiso   1.00
C955   C     0.12193   0.82607   0.91190   0.00000  Uiso   1.00
C956   C     0.20543   0.97749   0.71159   0.00000  Uiso   1.00
C957   C     0.13988   0.83141   0.85236   0.00000  Uiso   1.00
C958   C     0.20573   0.68760   0.71076   0.00000  Uiso   1.00
C959   C     0.16715   0.70929   0.74877   0.00000  Uiso   1.00
C960   C     0.12867   0.68889   0.78652   0.00000  Uiso   1.00
C961   C     0.12852   0.97931   0.78691   0.00000  Uiso   1.00
C962   C     0.16682   0.95734   0.74956   0.00000  Uiso   1.00
C963   C     0.31815   0.80345   0.72131   0.00000  Uiso   1.00
C964   C     0.03257   0.80343   0.72137   0.00000  Uiso   1.00
C965   C     0.01511   0.86332   0.77878   0.00000  Uiso   1.00
C966   C     0.30120   0.86365   0.77835   0.00000  Uiso   1.00
C967   C     0.16687   0.75346   0.74940   0.00000  Uiso   1.00
C968   C     0.19348   0.83274   0.64745   0.00000  Uiso   1.00
C969   C     0.25921   0.78657   0.50667   0.00000  Uiso   1.00
C970   C     0.21025   0.82526   0.58813   0.00000  Uiso   1.00
C971   C     0.07725   0.84336   0.94377   0.00000  Uiso   1.00
C972   C     0.06269   0.84291   0.50058   0.00000  Uiso   1.00
C973   C     0.09398   0.82936   0.52633   0.00000  Uiso   1.00
H974   H     0.02690   0.85343   0.52489   0.00000  Uiso   1.00
N975   N     0.04760   0.83334   0.75001   0.00000  Uiso   1.00
N976   N     0.28573   0.83331   0.75000   0.00000  Uiso   1.00
O977   O     0.12846   0.89442   0.75000   0.00000  Uiso   1.00
O978   O     0.20490   0.89441   0.75000   0.00000  Uiso   1.00
O979   O     0.10947   0.83333   0.82681   0.00000  Uiso   1.00
O980   O     0.18591   0.83332   0.82681   0.00000  Uiso   1.00
O981   O     0.12843   0.77226   0.74999   0.00000  Uiso   1.00
O982   O     0.20488   0.77225   0.74999   0.00000  Uiso   1.00
O983   O     0.14742   0.83335   0.67319   0.00000  Uiso   1.00
O984   O     0.22387   0.83334   0.67319   0.00000  Uiso   1.00
Zn985  Zn    0.11562   0.83334   0.75000   0.00000  Uiso   1.00
Zn986  Zn    0.21771   0.83333   0.75000   0.00000  Uiso   1.00
O987   O     0.28344   0.79273   0.58732   0.00000  Uiso   1.00
H988   H     0.30917   0.77374   0.56440   0.00000  Uiso   1.00
O989   O     0.24192   0.70957   0.67299   0.00000  Uiso   1.00
H990   H     0.26621   0.68974   0.64927   0.00000  Uiso   1.00
F991   F     0.09217   0.71064   0.82377   0.00000  Uiso   1.00
F992   F     0.09204   0.95922   0.82467   0.00000  Uiso   1.00
F993   F     0.30470   0.77355   0.69212   0.00000  Uiso   1.00
F994   F     0.06359   0.77318   0.69280   0.00000  Uiso   1.00
O995   O     0.02674   0.89356   0.81019   0.00000  Uiso   1.00
H996   H     0.05412   0.88314   0.81922   0.00000  Uiso   1.00
O997   O     0.27182   0.89548   0.80782   0.00000  Uiso   1.00
H998   H     0.23854   0.88656   0.81768   0.00000  Uiso   1.00
F999   F     0.25865   0.74148   0.91071   0.00000  Uiso   1.00
O1000  O     0.30288   0.76856   0.97717   0.00000  Uiso   1.00
H1001  H     0.31255   0.77921   0.93936   0.00000  Uiso   1.00
F1002  F     0.14698   0.86782   0.58244   0.00000  Uiso   1.00
F1003  F     0.04736   0.86027   0.92024   0.00000  Uiso   1.00
O1004  O     0.07526   0.82481   0.58236   0.00000  Uiso   1.00
H1005  H     0.09410   0.80290   0.59254   0.00000  Uiso   1.00
O1006  O     0.18941   0.75855   0.86405   0.00000  Uiso   1.00
H1007  H     0.21836   0.74059   0.84933   0.00000  Uiso   1.00
F1008  F     0.24156   0.95484   0.67500   0.00000  Uiso   1.00
C1009  C     0.49995   0.91321   0.75014   0.00000  Uiso   1.00
C1010  C     0.47505   0.81718   0.99380   0.00000  Uiso   1.00
C1011  C     0.48477   0.80770   0.93806   0.00000  Uiso   1.00
C1012  C     0.51335   0.81408   0.51407   0.00000  Uiso   1.00
C1013  C     0.55515   0.79056   0.98454   0.00000  Uiso   1.00
C1014  C     0.55740   0.77054   0.93502   0.00000  Uiso   1.00
C1015  C     0.52283   0.77959   0.91097   0.00000  Uiso   1.00
C1016  C     0.51220   0.83598   0.56140   0.00000  Uiso   1.00
C1017  C     0.58482   0.80115   0.56072   0.00000  Uiso   1.00
C1018  C     0.45526   0.82607   0.91190   0.00000  Uiso   1.00
C1019  C     0.53876   0.97749   0.71159   0.00000  Uiso   1.00
C1020  C     0.47322   0.83141   0.85236   0.00000  Uiso   1.00
C1021  C     0.53906   0.68760   0.71076   0.00000  Uiso   1.00
C1022  C     0.50048   0.70929   0.74877   0.00000  Uiso   1.00
C1023  C     0.46201   0.68889   0.78652   0.00000  Uiso   1.00
C1024  C     0.46185   0.97931   0.78691   0.00000  Uiso   1.00
C1025  C     0.50016   0.95734   0.74956   0.00000  Uiso   1.00
C1026  C     0.65148   0.80345   0.72131   0.00000  Uiso   1.00
C1027  C     0.36591   0.80343   0.72137   0.00000  Uiso   1.00
C1028  C     0.34845   0.86332   0.77878   0.00000  Uiso   1.00
C1029  C     0.63453   0.86365   0.77835   0.00000  Uiso   1.00
C1030  C     0.50020   0.75346   0.74940   0.00000  Uiso   1.00
C1031  C     0.52681   0.83274   0.64745   0.00000  Uiso   1.00
C1032  C     0.59254   0.78657   0.50667   0.00000  Uiso   1.00
C1033  C     0.54358   0.82526   0.58813   0.00000  Uiso   1.00
C1034  C     0.41058   0.84336   0.94377   0.00000  Uiso   1.00
C1035  C     0.39602   0.84291   0.50058   0.00000  Uiso   1.00
C1036  C     0.42732   0.82936   0.52633   0.00000  Uiso   1.00
H1037  H     0.36023   0.85343   0.52489   0.00000  Uiso   1.00
N1038  N     0.38093   0.83334   0.75001   0.00000  Uiso   1.00
N1039  N     0.61906   0.83331   0.75000   0.00000  Uiso   1.00
O1040  O     0.46179   0.89442   0.75000   0.00000  Uiso   1.00
O1041  O     0.53823   0.89441   0.75000   0.00000  Uiso   1.00
O1042  O     0.44280   0.83333   0.82681   0.00000  Uiso   1.00
O1043  O     0.51924   0.83332   0.82681   0.00000  Uiso   1.00
O1044  O     0.46177   0.77226   0.74999   0.00000  Uiso   1.00
O1045  O     0.53821   0.77225   0.74999   0.00000  Uiso   1.00
O1046  O     0.48076   0.83335   0.67319   0.00000  Uiso   1.00
O1047  O     0.55720   0.83334   0.67319   0.00000  Uiso   1.00
Zn1048 Zn    0.44896   0.83334   0.75000   0.00000  Uiso   1.00
Zn1049 Zn    0.55104   0.83333   0.75000   0.00000  Uiso   1.00
O1050  O     0.61677   0.79273   0.58732   0.00000  Uiso   1.00
H1051  H     0.64250   0.77374   0.56440   0.00000  Uiso   1.00
O1052  O     0.57525   0.70957   0.67299   0.00000  Uiso   1.00
H1053  H     0.59955   0.68974   0.64927   0.00000  Uiso   1.00
F1054  F     0.42550   0.71064   0.82377   0.00000  Uiso   1.00
F1055  F     0.42537   0.95922   0.82467   0.00000  Uiso   1.00
F1056  F     0.63804   0.77355   0.69212   0.00000  Uiso   1.00
F1057  F     0.39693   0.77318   0.69280   0.00000  Uiso   1.00
O1058  O     0.36007   0.89356   0.81019   0.00000  Uiso   1.00
H1059  H     0.38745   0.88314   0.81922   0.00000  Uiso   1.00
O1060  O     0.60515   0.89548   0.80782   0.00000  Uiso   1.00
H1061  H     0.57187   0.88656   0.81768   0.00000  Uiso   1.00
F1062  F     0.59199   0.74148   0.91071   0.00000  Uiso   1.00
O1063  O     0.63621   0.76856   0.97717   0.00000  Uiso   1.00
H1064  H     0.64588   0.77921   0.93936   0.00000  Uiso   1.00
F1065  F     0.48031   0.86782   0.58244   0.00000  Uiso   1.00
F1066  F     0.38069   0.86027   0.92024   0.00000  Uiso   1.00
O1067  O     0.40860   0.82481   0.58236   0.00000  Uiso   1.00
H1068  H     0.42743   0.80290   0.59254   0.00000  Uiso   1.00
O1069  O     0.52275   0.75855   0.86405   0.00000  Uiso   1.00
H1070  H     0.55169   0.74059   0.84933   0.00000  Uiso   1.00
F1071  F     0.57489   0.95484   0.67500   0.00000  Uiso   1.00
C1072  C     0.83328   0.91321   0.75014   0.00000  Uiso   1.00
C1073  C     0.80838   0.81718   0.99380   0.00000  Uiso   1.00
C1074  C     0.81810   0.80770   0.93806   0.00000  Uiso   1.00
C1075  C     0.84669   0.81408   0.51407   0.00000  Uiso   1.00
C1076  C     0.88849   0.79056   0.98454   0.00000  Uiso   1.00
C1077  C     0.89073   0.77054   0.93502   0.00000  Uiso   1.00
C1078  C     0.85616   0.77959   0.91097   0.00000  Uiso   1.00
C1079  C     0.84553   0.83598   0.56140   0.00000  Uiso   1.00
C1080  C     0.91815   0.80115   0.56072   0.00000  Uiso   1.00
C1081  C     0.78859   0.82607   0.91190   0.00000  Uiso   1.00
C1082  C     0.87210   0.97749   0.71159   0.00000  Uiso   1.00
C1083  C     0.80655   0.83141   0.85236   0.00000  Uiso   1.00
C1084  C     0.87240   0.68760   0.71076   0.00000  Uiso   1.00
C1085  C     0.83381   0.70929   0.74877   0.00000  Uiso   1.00
C1086  C     0.79534   0.68889   0.78652   0.00000  Uiso   1.00
C1087  C     0.79519   0.97931   0.78691   0.00000  Uiso   1.00
C1088  C     0.83349   0.95734   0.74956   0.00000  Uiso   1.00
C1089  C     0.98482   0.80345   0.72131   0.00000  Uiso   1.00
C1090  C     0.69924   0.80343   0.72137   0.00000  Uiso   1.00
C1091  C     0.68178   0.86332   0.77878   0.00000  Uiso   1.00
C1092  C     0.96787   0.86365   0.77835   0.00000  Uiso   1.00
C1093  C     0.83354   0.75346   0.74940   0.00000  Uiso   1.00
C1094  C     0.86015   0.83274   0.64745   0.00000  Uiso   1.00
C1095  C     0.92588   0.78657   0.50667   0.00000  Uiso   1.00
C1096  C     0.87691   0.82526   0.58813   0.00000  Uiso   1.00
C1097  C     0.74392   0.84336   0.94377   0.00000  Uiso   1.00
C1098  C     0.72936   0.84291   0.50058   0.00000  Uiso   1.00
C1099  C     0.76065   0.82936   0.52633   0.00000  Uiso   1.00
H1100  H     0.69357   0.85343   0.52489   0.00000  Uiso   1.00
N1101  N     0.71426   0.83334   0.75001   0.00000  Uiso   1.00
N1102  N     0.95239   0.83331   0.75000   0.00000  Uiso   1.00
O1103  O     0.79512   0.89442   0.75000   0.00000  Uiso   1.00
O1104  O     0.87157   0.89441   0.75000   0.00000  Uiso   1.00
O1105  O     0.77613   0.83333   0.82681   0.00000  Uiso   1.00
O1106  O     0.85258   0.83332   0.82681   0.00000  Uiso   1.00
O1107  O     0.79510   0.77226   0.74999   0.00000  Uiso   1.00
O1108  O     0.87154   0.77225   0.74999   0.00000  Uiso   1.00
O1109  O     0.81409   0.83335   0.67319   0.00000  Uiso   1.00
O1110  O     0.89053   0.83334   0.67319   0.00000  Uiso   1.00
Zn1111 Zn    0.78229   0.83334   0.75000   0.00000  Uiso   1.00
Zn1112 Zn    0.88438   0.83333   0.75000   0.00000  Uiso   1.00
O1113  O     0.95010   0.79273   0.58732   0.00000  Uiso   1.00
H1114  H     0.97583   0.77374   0.56440   0.00000  Uiso   1.00
O1115  O     0.90858   0.70957   0.67299   0.00000  Uiso   1.00
H1116  H     0.93288   0.68974   0.64927   0.00000  Uiso   1.00
F1117  F     0.75883   0.71064   0.82377   0.00000  Uiso   1.00
F1118  F     0.75870   0.95922   0.82467   0.00000  Uiso   1.00
F1119  F     0.97137   0.77355   0.69212   0.00000  Uiso   1.00
F1120  F     0.73026   0.77318   0.69280   0.00000  Uiso   1.00
O1121  O     0.69340   0.89356   0.81019   0.00000  Uiso   1.00
H1122  H     0.72079   0.88314   0.81922   0.00000  Uiso   1.00
O1123  O     0.93849   0.89548   0.80782   0.00000  Uiso   1.00
H1124  H     0.90521   0.88656   0.81768   0.00000  Uiso   1.00
F1125  F     0.92532   0.74148   0.91071   0.00000  Uiso   1.00
O1126  O     0.96954   0.76856   0.97717   0.00000  Uiso   1.00
H1127  H     0.97922   0.77921   0.93936   0.00000  Uiso   1.00
F1128  F     0.81364   0.86782   0.58244   0.00000  Uiso   1.00
F1129  F     0.71403   0.86027   0.92024   0.00000  Uiso   1.00
O1130  O     0.74193   0.82481   0.58236   0.00000  Uiso   1.00
H1131  H     0.76077   0.80290   0.59254   0.00000  Uiso   1.00
O1132  O     0.85608   0.75855   0.86405   0.00000  Uiso   1.00
H1133  H     0.88502   0.74059   0.84933   0.00000  Uiso   1.00
F1134  F     0.90823   0.95484   0.67500   0.00000  Uiso   1.00
loop_
_geom_bond_atom_site_label_1
_geom_bond_atom_site_label_2
_geom_bond_distance
_geom_bond_site_symmetry_2
_ccdc_geom_bond_type
C1     C17     1.410   .     S
C1     O33     1.286   .     A
C1     O32     1.287   .     A
C2     C3      1.404   .     A
C2     C571    1.415   .     S
C2     C595    1.429   .     S
C3     C10     1.415   .     A
C3     C7      1.417   .     A
C4     C8      1.395   .     A
C4     C569    1.415   1_554 S
C4     C572    1.421   1_554 S
C5     C6      1.408   .     A
C5     C571    1.421   .     S
C5     C591    1.424   .     S
C6     C7      1.408   .     A
C6     F54     1.359   .     S
C7     O61     1.383   .     S
C8     F57     1.361   .     S
C8     C25     1.388   .     A
C9     C24     1.413   .     A
C9     C25     1.407   .     A
C9     O42     1.383   .     S
C10    C26     1.407   .     A
C10    C12     1.466   .     S
C11    F63     1.361   .     S
C11    C17     1.397   .     A
C11    C202    1.388   .     S
C12    O35     1.302   .     A
C12    O34     1.296   .     A
C13    C14     1.402   .     A
C13    O44     1.384   .     S
C13    C389    1.388   1_545 S
C14    C22     1.411   .     S
C14    C15     1.396   .     A
C15    F46     1.359   .     S
C15    C394    1.371   1_545 S
C16    F47     1.358   .     S
C16    C17     1.394   .     A
C16    C204    1.371   .     S
C18    N31     1.368   .     A
C18    F48     1.354   .     S
C18    C82     1.422   .     S
C19    F49     1.355   .     S
C19    N30     1.369   .     A
C19    C144    1.422   1_455 S
C20    N30     1.372   .     A
C20    O50     1.374   .     S
C20    C147    1.410   1_455 S
C21    O52     1.376   .     S
C21    N31     1.380   .     A
C21    C83     1.410   .     S
C22    O36     1.286   .     A
C22    O37     1.286   .     A
C23    O38     1.301   .     A
C23    O39     1.297   .     A
C23    C25     1.463   .     S
C24    C572    1.424   1_554 S
C24    O622    1.379   1_554 S
C26    F58     1.357   .     S
C26    C594    1.389   .     S
C27    H29     1.083   .     S
C27    C28     1.393   .     A
C27    C593    1.389   1_554 S
C28    O59     1.379   .     S
C28    C569    1.429   1_554 S
N30    Zn40    2.024   .     S
N31    Zn41    2.024   .     S
O32    Zn40    1.989   .     S
O33    Zn41    1.987   .     S
O34    Zn40    1.941   .     S
O35    Zn41    1.892   .     S
O36    Zn40    1.987   .     S
O37    Zn41    1.989   .     S
O38    Zn40    1.892   .     S
O39    Zn41    1.941   .     S
O42    H43     0.990   .     S
O44    H45     0.991   .     S
O50    H51     0.982   .     S
O52    H53     0.978   .     S
O55    H56     0.991   .     S
O55    C591    1.379   .     S
O59    H60     0.991   .     S
O61    H62     0.990   .     S
C64    C80     1.410   .     S
C64    O96     1.286   .     A
C64    O95     1.287   .     A
C65    C66     1.404   .     A
C65    C634    1.415   .     S
C65    C658    1.429   .     S
C66    C73     1.415   .     A
C66    C70     1.417   .     A
C67    C71     1.395   .     A
C67    C632    1.415   1_554 S
C67    C635    1.421   1_554 S
C68    C69     1.408   .     A
C68    C634    1.421   .     S
C68    C654    1.424   .     S
C69    C70     1.408   .     A
C69    F117    1.359   .     S
C70    O124    1.383   .     S
C71    F120    1.361   .     S
C71    C88     1.388   .     A
C72    C87     1.413   .     A
C72    C88     1.407   .     A
C72    O105    1.383   .     S
C73    C89     1.407   .     A
C73    C75     1.466   .     S
C74    F126    1.361   .     S
C74    C80     1.397   .     A
C74    C265    1.388   .     S
C75    O98     1.302   .     A
C75    O97     1.296   .     A
C76    C77     1.402   .     A
C76    O107    1.384   .     S
C76    C452    1.388   1_545 S
C77    C85     1.411   .     S
C77    C78     1.396   .     A
C78    F109    1.359   .     S
C78    C457    1.371   1_545 S
C79    F110    1.358   .     S
C79    C80     1.394   .     A
C79    C267    1.371   .     S
C81    N94     1.368   .     A
C81    F111    1.354   .     S
C81    C145    1.422   .     S
C82    F112    1.355   .     S
C82    N93     1.369   .     A
C83    N93     1.372   .     A
C83    O113    1.374   .     S
C84    O115    1.376   .     S
C84    N94     1.380   .     A
C84    C146    1.410   .     S
C85    O99     1.286   .     A
C85    O100    1.286   .     A
C86    O101    1.301   .     A
C86    O102    1.297   .     A
C86    C88     1.463   .     S
C87    C635    1.424   1_554 S
C87    O685    1.379   1_554 S
C89    F121    1.357   .     S
C89    C657    1.389   .     S
C90    H92     1.083   .     S
C90    C91     1.393   .     A
C90    C656    1.389   1_554 S
C91    O122    1.379   .     S
C91    C632    1.429   1_554 S
N93    Zn103   2.024   .     S
N94    Zn104   2.024   .     S
O95    Zn103   1.989   .     S
O96    Zn104   1.987   .     S
O97    Zn103   1.941   .     S
O98    Zn104   1.892   .     S
O99    Zn103   1.987   .     S
O100   Zn104   1.989   .     S
O101   Zn103   1.892   .     S
O102   Zn104   1.941   .     S
O105   H106    0.990   .     S
O107   H108    0.991   .     S
O113   H114    0.982   .     S
O115   H116    0.978   .     S
O118   H119    0.991   .     S
O118   C654    1.379   .     S
O122   H123    0.991   .     S
O124   H125    0.990   .     S
C127   C143    1.410   .     S
C127   O159    1.286   .     A
C127   O158    1.287   .     A
C128   C129    1.404   .     A
C128   C697    1.415   .     S
C128   C721    1.429   .     S
C129   C136    1.415   .     A
C129   C133    1.417   .     A
C130   C134    1.395   .     A
C130   C695    1.415   1_554 S
C130   C698    1.421   1_554 S
C131   C132    1.408   .     A
C131   C697    1.421   .     S
C131   C717    1.424   .     S
C132   C133    1.408   .     A
C132   F180    1.359   .     S
C133   O187    1.383   .     S
C134   F183    1.361   .     S
C134   C151    1.388   .     A
C135   C150    1.413   .     A
C135   C151    1.407   .     A
C135   O168    1.383   .     S
C136   C152    1.407   .     A
C136   C138    1.466   .     S
C137   F189    1.361   .     S
C137   C143    1.397   .     A
C137   C328    1.388   .     S
C138   O161    1.302   .     A
C138   O160    1.296   .     A
C139   C140    1.402   .     A
C139   O170    1.384   .     S
C139   C515    1.388   1_545 S
C140   C148    1.411   .     S
C140   C141    1.396   .     A
C141   F172    1.359   .     S
C141   C520    1.371   1_545 S
C142   F173    1.358   .     S
C142   C143    1.394   .     A
C142   C330    1.371   .     S
C144   N157    1.368   .     A
C144   F174    1.354   .     S
C144   C19     1.422   1_655 S
C145   F175    1.355   .     S
C145   N156    1.369   .     A
C146   N156    1.372   .     A
C146   O176    1.374   .     S
C147   O178    1.376   .     S
C147   N157    1.380   .     A
C147   C20     1.410   1_655 S
C148   O162    1.286   .     A
C148   O163    1.286   .     A
C149   O164    1.301   .     A
C149   O165    1.297   .     A
C149   C151    1.463   .     S
C150   C698    1.424   1_554 S
C150   O748    1.379   1_554 S
C152   F184    1.357   .     S
C152   C720    1.389   .     S
C153   H155    1.083   .     S
C153   C154    1.393   .     A
C153   C719    1.389   1_554 S
C154   O185    1.379   .     S
C154   C695    1.429   1_554 S
N156   Zn166   2.024   .     S
N157   Zn167   2.024   .     S
O158   Zn166   1.989   .     S
O159   Zn167   1.987   .     S
O160   Zn166   1.941   .     S
O161   Zn167   1.892   .     S
O162   Zn166   1.987   .     S
O163   Zn167   1.989   .     S
O164   Zn166   1.892   .     S
O165   Zn167   1.941   .     S
O168   H169    0.990   .     S
O170   H171    0.991   .     S
O176   H177    0.982   .     S
O178   H179    0.978   .     S
O181   H182    0.991   .     S
O181   C717    1.379   .     S
O185   H186    0.991   .     S
O187   H188    0.990   .     S
C190   C206    1.410   .     S
C190   O222    1.286   .     A
C190   O221    1.287   .     A
C191   C192    1.404   .     A
C191   C760    1.415   .     S
C191   C784    1.429   .     S
C192   C199    1.415   .     A
C192   C196    1.417   .     A
C193   C197    1.395   .     A
C193   C758    1.415   1_554 S
C193   C761    1.421   1_554 S
C194   C195    1.408   .     A
C194   C760    1.421   .     S
C194   C780    1.424   .     S
C195   C196    1.408   .     A
C195   F243    1.359   .     S
C196   O250    1.383   .     S
C197   F246    1.361   .     S
C197   C214    1.388   .     A
C198   C213    1.413   .     A
C198   C214    1.407   .     A
C198   O231    1.383   .     S
C199   C215    1.407   .     A
C199   C201    1.466   .     S
C200   F252    1.361   .     S
C200   C206    1.397   .     A
C200   C391    1.388   .     S
C201   O224    1.302   .     A
C201   O223    1.296   .     A
C202   C203    1.402   .     A
C202   O233    1.384   .     S
C203   C211    1.411   .     S
C203   C204    1.396   .     A
C204   F235    1.359   .     S
C205   F236    1.358   .     S
C205   C206    1.394   .     A
C205   C393    1.371   .     S
C207   N220    1.368   .     A
C207   F237    1.354   .     S
C207   C271    1.422   .     S
C208   F238    1.355   .     S
C208   N219    1.369   .     A
C208   C333    1.422   1_455 S
C209   N219    1.372   .     A
C209   O239    1.374   .     S
C209   C336    1.410   1_455 S
C210   O241    1.376   .     S
C210   N220    1.380   .     A
C210   C272    1.410   .     S
C211   O225    1.286   .     A
C211   O226    1.286   .     A
C212   O227    1.301   .     A
C212   O228    1.297   .     A
C212   C214    1.463   .     S
C213   C761    1.424   1_554 S
C213   O811    1.379   1_554 S
C215   F247    1.357   .     S
C215   C783    1.389   .     S
C216   H218    1.083   .     S
C216   C217    1.393   .     A
C216   C782    1.389   1_554 S
C217   O248    1.379   .     S
C217   C758    1.429   1_554 S
N219   Zn229   2.024   .     S
N220   Zn230   2.024   .     S
O221   Zn229   1.989   .     S
O222   Zn230   1.987   .     S
O223   Zn229   1.941   .     S
O224   Zn230   1.892   .     S
O225   Zn229   1.987   .     S
O226   Zn230   1.989   .     S
O227   Zn229   1.892   .     S
O228   Zn230   1.941   .     S
O231   H232    0.990   .     S
O233   H234    0.991   .     S
O239   H240    0.982   .     S
O241   H242    0.978   .     S
O244   H245    0.991   .     S
O244   C780    1.379   .     S
O248   H249    0.991   .     S
O250   H251    0.990   .     S
C253   C269    1.410   .     S
C253   O285    1.286   .     A
C253   O284    1.287   .     A
C254   C255    1.404   .     A
C254   C823    1.415   .     S
C254   C847    1.429   .     S
C255   C262    1.415   .     A
C255   C259    1.417   .     A
C256   C260    1.395   .     A
C256   C821    1.415   1_554 S
C256   C824    1.421   1_554 S
C257   C258    1.408   .     A
C257   C823    1.421   .     S
C257   C843    1.424   .     S
C258   C259    1.408   .     A
C258   F306    1.359   .     S
C259   O313    1.383   .     S
C260   F309    1.361   .     S
C260   C277    1.388   .     A
C261   C276    1.413   .     A
C261   C277    1.407   .     A
C261   O294    1.383   .     S
C262   C278    1.407   .     A
C262   C264    1.466   .     S
C263   F315    1.361   .     S
C263   C269    1.397   .     A
C263   C454    1.388   .     S
C264   O287    1.302   .     A
C264   O286    1.296   .     A
C265   C266    1.402   .     A
C265   O296    1.384   .     S
C266   C274    1.411   .     S
C266   C267    1.396   .     A
C267   F298    1.359   .     S
C268   F299    1.358   .     S
C268   C269    1.394   .     A
C268   C456    1.371   .     S
C270   N283    1.368   .     A
C270   F300    1.354   .     S
C270   C334    1.422   .     S
C271   F301    1.355   .     S
C271   N282    1.369   .     A
C272   N282    1.372   .     A
C272   O302    1.374   .     S
C273   O304    1.376   .     S
C273   N283    1.380   .     A
C273   C335    1.410   .     S
C274   O288    1.286   .     A
C274   O289    1.286   .     A
C275   O290    1.301   .     A
C275   O291    1.297   .     A
C275   C277    1.463   .     S
C276   C824    1.424   1_554 S
C276   O874    1.379   1_554 S
C278   F310    1.357   .     S
C278   C846    1.389   .     S
C279   H281    1.083   .     S
C279   C280    1.393   .     A
C279   C845    1.389   1_554 S
C280   O311    1.379   .     S
C280   C821    1.429   1_554 S
N282   Zn292   2.024   .     S
N283   Zn293   2.024   .     S
O284   Zn292   1.989   .     S
O285   Zn293   1.987   .     S
O286   Zn292   1.941   .     S
O287   Zn293   1.892   .     S
O288   Zn292   1.987   .     S
O289   Zn293   1.989   .     S
O290   Zn292   1.892   .     S
O291   Zn293   1.941   .     S
O294   H295    0.990   .     S
O296   H297    0.991   .     S
O302   H303    0.982   .     S
O304   H305    0.978   .     S
O307   H308    0.991   .     S
O307   C843    1.379   .     S
O311   H312    0.991   .     S
O313   H314    0.990   .     S
C316   C332    1.410   .     S
C316   O348    1.286   .     A
C316   O347    1.287   .     A
C317   C318    1.404   .     A
C317   C886    1.415   .     S
C317   C910    1.429   .     S
C318   C325    1.415   .     A
C318   C322    1.417   .     A
C319   C323    1.395   .     A
C319   C884    1.415   1_554 S
C319   C887    1.421   1_554 S
C320   C321    1.408   .     A
C320   C886    1.421   .     S
C320   C906    1.424   .     S
C321   C322    1.408   .     A
C321   F369    1.359   .     S
C322   O376    1.383   .     S
C323   F372    1.361   .     S
C323   C340    1.388   .     A
C324   C339    1.413   .     A
C324   C340    1.407   .     A
C324   O357    1.383   .     S
C325   C341    1.407   .     A
C325   C327    1.466   .     S
C326   F378    1.361   .     S
C326   C332    1.397   .     A
C326   C517    1.388   .     S
C327   O350    1.302   .     A
C327   O349    1.296   .     A
C328   C329    1.402   .     A
C328   O359    1.384   .     S
C329   C337    1.411   .     S
C329   C330    1.396   .     A
C330   F361    1.359   .     S
C331   F362    1.358   .     S
C331   C332    1.394   .     A
C331   C519    1.371   .     S
C333   N346    1.368   .     A
C333   F363    1.354   .     S
C333   C208    1.422   1_655 S
C334   F364    1.355   .     S
C334   N345    1.369   .     A
C335   N345    1.372   .     A
C335   O365    1.374   .     S
C336   O367    1.376   .     S
C336   N346    1.380   .     A
C336   C209    1.410   1_655 S
C337   O351    1.286   .     A
C337   O352    1.286   .     A
C338   O353    1.301   .     A
C338   O354    1.297   .     A
C338   C340    1.463   .     S
C339   C887    1.424   1_554 S
C339   O937    1.379   1_554 S
C341   F373    1.357   .     S
C341   C909    1.389   .     S
C342   H344    1.083   .     S
C342   C343    1.393   .     A
C342   C908    1.389   1_554 S
C343   O374    1.379   .     S
C343   C884    1.429   1_554 S
N345   Zn355   2.024   .     S
N346   Zn356   2.024   .     S
O347   Zn355   1.989   .     S
O348   Zn356   1.987   .     S
O349   Zn355   1.941   .     S
O350   Zn356   1.892   .     S
O351   Zn355   1.987   .     S
O352   Zn356   1.989   .     S
O353   Zn355   1.892   .     S
O354   Zn356   1.941   .     S
O357   H358    0.990   .     S
O359   H360    0.991   .     S
O365   H366    0.982   .     S
O367   H368    0.978   .     S
O370   H371    0.991   .     S
O370   C906    1.379   .     S
O374   H375    0.991   .     S
O376   H377    0.990   .     S
C379   C395    1.410   .     S
C379   O411    1.286   .     A
C379   O410    1.287   .     A
C380   C381    1.404   .     A
C380   C949    1.415   .     S
C380   C973    1.429   .     S
C381   C388    1.415   .     A
C381   C385    1.417   .     A
C382   C386    1.395   .     A
C382   C947    1.415   1_554 S
C382   C950    1.421   1_554 S
C383   C384    1.408   .     A
C383   C949    1.421   .     S
C383   C969    1.424   .     S
C384   C385    1.408   .     A
C384   F432    1.359   .     S
C385   O439    1.383   .     S
C386   F435    1.361   .     S
C386   C403    1.388   .     A
C387   C402    1.413   .     A
C387   C403    1.407   .     A
C387   O420    1.383   .     S
C388   C404    1.407   .     A
C388   C390    1.466   .     S
C389   F441    1.361   .     S
C389   C395    1.397   .     A
C389   C13     1.388   1_565 S
C390   O413    1.302   .     A
C390   O412    1.296   .     A
C391   C392    1.402   .     A
C391   O422    1.384   .     S
C392   C400    1.411   .     S
C392   C393    1.396   .     A
C393   F424    1.359   .     S
C394   F425    1.358   .     S
C394   C395    1.394   .     A
C394   C15     1.371   1_565 S
C396   N409    1.368   .     A
C396   F426    1.354   .     S
C396   C460    1.422   .     S
C397   F427    1.355   .     S
C397   N408    1.369   .     A
C397   C522    1.422   1_455 S
C398   N408    1.372   .     A
C398   O428    1.374   .     S
C398   C525    1.410   1_455 S
C399   O430    1.376   .     S
C399   N409    1.380   .     A
C399   C461    1.410   .     S
C400   O414    1.286   .     A
C400   O415    1.286   .     A
C401   O416    1.301   .     A
C401   O417    1.297   .     A
C401   C403    1.463   .     S
C402   C950    1.424   1_554 S
C402   O1000   1.379   1_554 S
C404   F436    1.357   .     S
C404   C972    1.389   .     S
C405   H407    1.083   .     S
C405   C406    1.393   .     A
C405   C971    1.389   1_554 S
C406   O437    1.379   .     S
C406   C947    1.429   1_554 S
N408   Zn418   2.024   .     S
N409   Zn419   2.024   .     S
O410   Zn418   1.989   .     S
O411   Zn419   1.987   .     S
O412   Zn418   1.941   .     S
O413   Zn419   1.892   .     S
O414   Zn418   1.987   .     S
O415   Zn419   1.989   .     S
O416   Zn418   1.892   .     S
O417   Zn419   1.941   .     S
O420   H421    0.990   .     S
O422   H423    0.991   .     S
O428   H429    0.982   .     S
O430   H431    0.978   .     S
O433   H434    0.991   .     S
O433   C969    1.379   .     S
O437   H438    0.991   .     S
O439   H440    0.990   .     S
C442   C458    1.410   .     S
C442   O474    1.286   .     A
C442   O473    1.287   .     A
C443   C444    1.404   .     A
C443   C1012   1.415   .     S
C443   C1036   1.429   .     S
C444   C451    1.415   .     A
C444   C448    1.417   .     A
C445   C449    1.395   .     A
C445   C1010   1.415   1_554 S
C445   C1013   1.421   1_554 S
C446   C447    1.408   .     A
C446   C1012   1.421   .     S
C446   C1032   1.424   .     S
C447   C448    1.408   .     A
C447   F495    1.359   .     S
C448   O502    1.383   .     S
C449   F498    1.361   .     S
C449   C466    1.388   .     A
C450   C465    1.413   .     A
C450   C466    1.407   .     A
C450   O483    1.383   .     S
C451   C467    1.407   .     A
C451   C453    1.466   .     S
C452   F504    1.361   .     S
C452   C458    1.397   .     A
C452   C76     1.388   1_565 S
C453   O476    1.302   .     A
C453   O475    1.296   .     A
C454   C455    1.402   .     A
C454   O485    1.384   .     S
C455   C463    1.411   .     S
C455   C456    1.396   .     A
C456   F487    1.359   .     S
C457   F488    1.358   .     S
C457   C458    1.394   .     A
C457   C78     1.371   1_565 S
C459   N472    1.368   .     A
C459   F489    1.354   .     S
C459   C523    1.422   .     S
C460   F490    1.355   .     S
C460   N471    1.369   .     A
C461   N471    1.372   .     A
C461   O491    1.374   .     S
C462   O493    1.376   .     S
C462   N472    1.380   .     A
C462   C524    1.410   .     S
C463   O477    1.286   .     A
C463   O478    1.286   .     A
C464   O479    1.301   .     A
C464   O480    1.297   .     A
C464   C466    1.463   .     S
C465   C1013   1.424   1_554 S
C465   O1063   1.379   1_554 S
C467   F499    1.357   .     S
C467   C1035   1.389   .     S
C468   H470    1.083   .     S
C468   C469    1.393   .     A
C468   C1034   1.389   1_554 S
C469   O500    1.379   .     S
C469   C1010   1.429   1_554 S
N471   Zn481   2.024   .     S
N472   Zn482   2.024   .     S
O473   Zn481   1.989   .     S
O474   Zn482   1.987   .     S
O475   Zn481   1.941   .     S
O476   Zn482   1.892   .     S
O477   Zn481   1.987   .     S
O478   Zn482   1.989   .     S
O479   Zn481   1.892   .     S
O480   Zn482   1.941   .     S
O483   H484    0.990   .     S
O485   H486    0.991   .     S
O491   H492    0.982   .     S
O493   H494    0.978   .     S
O496   H497    0.991   .     S
O496   C1032   1.379   .     S
O500   H501    0.991   .     S
O502   H503    0.990   .     S
C505   C521    1.410   .     S
C505   O537    1.286   .     A
C505   O536    1.287   .     A
C506   C507    1.404   .     A
C506   C1075   1.415   .     S
C506   C1099   1.429   .     S
C507   C514    1.415   .     A
C507   C511    1.417   .     A
C508   C512    1.395   .     A
C508   C1073   1.415   1_554 S
C508   C1076   1.421   1_554 S
C509   C510    1.408   .     A
C509   C1075   1.421   .     S
C509   C1095   1.424   .     S
C510   C511    1.408   .     A
C510   F558    1.359   .     S
C511   O565    1.383   .     S
C512   F561    1.361   .     S
C512   C529    1.388   .     A
C513   C528    1.413   .     A
C513   C529    1.407   .     A
C513   O546    1.383   .     S
C514   C530    1.407   .     A
C514   C516    1.466   .     S
C515   F567    1.361   .     S
C515   C521    1.397   .     A
C515   C139    1.388   1_565 S
C516   O539    1.302   .     A
C516   O538    1.296   .     A
C517   C518    1.402   .     A
C517   O548    1.384   .     S
C518   C526    1.411   .     S
C518   C519    1.396   .     A
C519   F550    1.359   .     S
C520   F551    1.358   .     S
C520   C521    1.394   .     A
C520   C141    1.371   1_565 S
C522   N535    1.368   .     A
C522   F552    1.354   .     S
C522   C397    1.422   1_655 S
C523   F553    1.355   .     S
C523   N534    1.369   .     A
C524   N534    1.372   .     A
C524   O554    1.374   .     S
C525   O556    1.376   .     S
C525   N535    1.380   .     A
C525   C398    1.410   1_655 S
C526   O540    1.286   .     A
C526   O541    1.286   .     A
C527   O542    1.301   .     A
C527   O543    1.297   .     A
C527   C529    1.463   .     S
C528   C1076   1.424   1_554 S
C528   O1126   1.379   1_554 S
C530   F562    1.357   .     S
C530   C1098   1.389   .     S
C531   H533    1.083   .     S
C531   C532    1.393   .     A
C531   C1097   1.389   1_554 S
C532   O563    1.379   .     S
C532   C1073   1.429   1_554 S
N534   Zn544   2.024   .     S
N535   Zn545   2.024   .     S
O536   Zn544   1.989   .     S
O537   Zn545   1.987   .     S
O538   Zn544   1.941   .     S
O539   Zn545   1.892   .     S
O540   Zn544   1.987   .     S
O541   Zn545   1.989   .     S
O542   Zn544   1.892   .     S
O543   Zn545   1.941   .     S
O546   H547    0.990   .     S
O548   H549    0.991   .     S
O554   H555    0.982   .     S
O556   H557    0.978   .     S
O559   H560    0.991   .     S
O559   C1095   1.379   .     S
O563   H564    0.991   .     S
O565   H566    0.990   .     S
C568   C584    1.410   .     S
C568   O600    1.286   .     A
C568   O599    1.287   .     A
C569   C570    1.404   .     A
C569   C4      1.415   1_556 S
C569   C28     1.429   1_556 S
C570   C577    1.415   .     A
C570   C574    1.417   .     A
C571   C575    1.395   .     A
C572   C573    1.408   .     A
C572   C4      1.421   1_556 S
C572   C24     1.424   1_556 S
C573   C574    1.408   .     A
C573   F621    1.359   .     S
C574   O628    1.383   .     S
C575   F624    1.361   .     S
C575   C592    1.388   .     A
C576   C591    1.413   .     A
C576   C592    1.407   .     A
C576   O609    1.383   .     S
C577   C593    1.407   .     A
C577   C579    1.466   .     S
C578   F630    1.361   .     S
C578   C584    1.397   .     A
C578   C769    1.388   .     S
C579   O602    1.302   .     A
C579   O601    1.296   .     A
C580   C581    1.402   .     A
C580   O611    1.384   .     S
C580   C956    1.388   1_545 S
C581   C589    1.411   .     S
C581   C582    1.396   .     A
C582   F613    1.359   .     S
C582   C961    1.371   1_545 S
C583   F614    1.358   .     S
C583   C584    1.394   .     A
C583   C771    1.371   .     S
C585   N598    1.368   .     A
C585   F615    1.354   .     S
C585   C649    1.422   .     S
C586   F616    1.355   .     S
C586   N597    1.369   .     A
C586   C711    1.422   1_455 S
C587   N597    1.372   .     A
C587   O617    1.374   .     S
C587   C714    1.410   1_455 S
C588   O619    1.376   .     S
C588   N598    1.380   .     A
C588   C650    1.410   .     S
C589   O603    1.286   .     A
C589   O604    1.286   .     A
C590   O605    1.301   .     A
C590   O606    1.297   .     A
C590   C592    1.463   .     S
C593   F625    1.357   .     S
C593   C27     1.389   1_556 S
C594   H596    1.083   .     S
C594   C595    1.393   .     A
C595   O626    1.379   .     S
N597   Zn607   2.024   .     S
N598   Zn608   2.024   .     S
O599   Zn607   1.989   .     S
O600   Zn608   1.987   .     S
O601   Zn607   1.941   .     S
O602   Zn608   1.892   .     S
O603   Zn607   1.987   .     S
O604   Zn608   1.989   .     S
O605   Zn607   1.892   .     S
O606   Zn608   1.941   .     S
O609   H610    0.990   .     S
O611   H612    0.991   .     S
O617   H618    0.982   .     S
O619   H620    0.978   .     S
O622   H623    0.991   .     S
O622   C24     1.379   1_556 S
O626   H627    0.991   .     S
O628   H629    0.990   .     S
C631   C647    1.410   .     S
C631   O663    1.286   .     A
C631   O662    1.287   .     A
C632   C633    1.404   .     A
C632   C67     1.415   1_556 S
C632   C91     1.429   1_556 S
C633   C640    1.415   .     A
C633   C637    1.417   .     A
C634   C638    1.395   .     A
C635   C636    1.408   .     A
C635   C67     1.421   1_556 S
C635   C87     1.424   1_556 S
C636   C637    1.408   .     A
C636   F684    1.359   .     S
C637   O691    1.383   .     S
C638   F687    1.361   .     S
C638   C655    1.388   .     A
C639   C654    1.413   .     A
C639   C655    1.407   .     A
C639   O672    1.383   .     S
C640   C656    1.407   .     A
C640   C642    1.466   .     S
C641   F693    1.361   .     S
C641   C647    1.397   .     A
C641   C832    1.388   .     S
C642   O665    1.302   .     A
C642   O664    1.296   .     A
C643   C644    1.402   .     A
C643   O674    1.384   .     S
C643   C1019   1.388   1_545 S
C644   C652    1.411   .     S
C644   C645    1.396   .     A
C645   F676    1.359   .     S
C645   C1024   1.371   1_545 S
C646   F677    1.358   .     S
C646   C647    1.394   .     A
C646   C834    1.371   .     S
C648   N661    1.368   .     A
C648   F678    1.354   .     S
C648   C712    1.422   .     S
C649   F679    1.355   .     S
C649   N660    1.369   .     A
C650   N660    1.372   .     A
C650   O680    1.374   .     S
C651   O682    1.376   .     S
C651   N661    1.380   .     A
C651   C713    1.410   .     S
C652   O666    1.286   .     A
C652   O667    1.286   .     A
C653   O668    1.301   .     A
C653   O669    1.297   .     A
C653   C655    1.463   .     S
C656   F688    1.357   .     S
C656   C90     1.389   1_556 S
C657   H659    1.083   .     S
C657   C658    1.393   .     A
C658   O689    1.379   .     S
N660   Zn670   2.024   .     S
N661   Zn671   2.024   .     S
O662   Zn670   1.989   .     S
O663   Zn671   1.987   .     S
O664   Zn670   1.941   .     S
O665   Zn671   1.892   .     S
O666   Zn670   1.987   .     S
O667   Zn671   1.989   .     S
O668   Zn670   1.892   .     S
O669   Zn671   1.941   .     S
O672   H673    0.990   .     S
O674   H675    0.991   .     S
O680   H681    0.982   .     S
O682   H683    0.978   .     S
O685   H686    0.991   .     S
O685   C87     1.379   1_556 S
O689   H690    0.991   .     S
O691   H692    0.990   .     S
C694   C710    1.410   .     S
C694   O726    1.286   .     A
C694   O725    1.287   .     A
C695   C696    1.404   .     A
C695   C130    1.415   1_556 S
C695   C154    1.429   1_556 S
C696   C703    1.415   .     A
C696   C700    1.417   .     A
C697   C701    1.395   .     A
C698   C699    1.408   .     A
C698   C130    1.421   1_556 S
C698   C150    1.424   1_556 S
C699   C700    1.408   .     A
C699   F747    1.359   .     S
C700   O754    1.383   .     S
C701   F750    1.361   .     S
C701   C718    1.388   .     A
C702   C717    1.413   .     A
C702   C718    1.407   .     A
C702   O735    1.383   .     S
C703   C719    1.407   .     A
C703   C705    1.466   .     S
C704   F756    1.361   .     S
C704   C710    1.397   .     A
C704   C895    1.388   .     S
C705   O728    1.302   .     A
C705   O727    1.296   .     A
C706   C707    1.402   .     A
C706   O737    1.384   .     S
C706   C1082   1.388   1_545 S
C707   C715    1.411   .     S
C707   C708    1.396   .     A
C708   F739    1.359   .     S
C708   C1087   1.371   1_545 S
C709   F740    1.358   .     S
C709   C710    1.394   .     A
C709   C897    1.371   .     S
C711   N724    1.368   .     A
C711   F741    1.354   .     S
C711   C586    1.422   1_655 S
C712   F742    1.355   .     S
C712   N723    1.369   .     A
C713   N723    1.372   .     A
C713   O743    1.374   .     S
C714   O745    1.376   .     S
C714   N724    1.380   .     A
C714   C587    1.410   1_655 S
C715   O729    1.286   .     A
C715   O730    1.286   .     A
C716   O731    1.301   .     A
C716   O732    1.297   .     A
C716   C718    1.463   .     S
C719   F751    1.357   .     S
C719   C153    1.389   1_556 S
C720   H722    1.083   .     S
C720   C721    1.393   .     A
C721   O752    1.379   .     S
N723   Zn733   2.024   .     S
N724   Zn734   2.024   .     S
O725   Zn733   1.989   .     S
O726   Zn734   1.987   .     S
O727   Zn733   1.941   .     S
O728   Zn734   1.892   .     S
O729   Zn733   1.987   .     S
O730   Zn734   1.989   .     S
O731   Zn733   1.892   .     S
O732   Zn734   1.941   .     S
O735   H736    0.990   .     S
O737   H738    0.991   .     S
O743   H744    0.982   .     S
O745   H746    0.978   .     S
O748   H749    0.991   .     S
O748   C150    1.379   1_556 S
O752   H753    0.991   .     S
O754   H755    0.990   .     S
C757   C773    1.410   .     S
C757   O789    1.286   .     A
C757   O788    1.287   .     A
C758   C759    1.404   .     A
C758   C193    1.415   1_556 S
C758   C217    1.429   1_556 S
C759   C766    1.415   .     A
C759   C763    1.417   .     A
C760   C764    1.395   .     A
C761   C762    1.408   .     A
C761   C193    1.421   1_556 S
C761   C213    1.424   1_556 S
C762   C763    1.408   .     A
C762   F810    1.359   .     S
C763   O817    1.383   .     S
C764   F813    1.361   .     S
C764   C781    1.388   .     A
C765   C780    1.413   .     A
C765   C781    1.407   .     A
C765   O798    1.383   .     S
C766   C782    1.407   .     A
C766   C768    1.466   .     S
C767   F819    1.361   .     S
C767   C773    1.397   .     A
C767   C958    1.388   .     S
C768   O791    1.302   .     A
C768   O790    1.296   .     A
C769   C770    1.402   .     A
C769   O800    1.384   .     S
C770   C778    1.411   .     S
C770   C771    1.396   .     A
C771   F802    1.359   .     S
C772   F803    1.358   .     S
C772   C773    1.394   .     A
C772   C960    1.371   .     S
C774   N787    1.368   .     A
C774   F804    1.354   .     S
C774   C838    1.422   .     S
C775   F805    1.355   .     S
C775   N786    1.369   .     A
C775   C900    1.422   1_455 S
C776   N786    1.372   .     A
C776   O806    1.374   .     S
C776   C903    1.410   1_455 S
C777   O808    1.376   .     S
C777   N787    1.380   .     A
C777   C839    1.410   .     S
C778   O792    1.286   .     A
C778   O793    1.286   .     A
C779   O794    1.301   .     A
C779   O795    1.297   .     A
C779   C781    1.463   .     S
C782   F814    1.357   .     S
C782   C216    1.389   1_556 S
C783   H785    1.083   .     S
C783   C784    1.393   .     A
C784   O815    1.379   .     S
N786   Zn796   2.024   .     S
N787   Zn797   2.024   .     S
O788   Zn796   1.989   .     S
O789   Zn797   1.987   .     S
O790   Zn796   1.941   .     S
O791   Zn797   1.892   .     S
O792   Zn796   1.987   .     S
O793   Zn797   1.989   .     S
O794   Zn796   1.892   .     S
O795   Zn797   1.941   .     S
O798   H799    0.990   .     S
O800   H801    0.991   .     S
O806   H807    0.982   .     S
O808   H809    0.978   .     S
O811   H812    0.991   .     S
O811   C213    1.379   1_556 S
O815   H816    0.991   .     S
O817   H818    0.990   .     S
C820   C836    1.410   .     S
C820   O852    1.286   .     A
C820   O851    1.287   .     A
C821   C822    1.404   .     A
C821   C256    1.415   1_556 S
C821   C280    1.429   1_556 S
C822   C829    1.415   .     A
C822   C826    1.417   .     A
C823   C827    1.395   .     A
C824   C825    1.408   .     A
C824   C256    1.421   1_556 S
C824   C276    1.424   1_556 S
C825   C826    1.408   .     A
C825   F873    1.359   .     S
C826   O880    1.383   .     S
C827   F876    1.361   .     S
C827   C844    1.388   .     A
C828   C843    1.413   .     A
C828   C844    1.407   .     A
C828   O861    1.383   .     S
C829   C845    1.407   .     A
C829   C831    1.466   .     S
C830   F882    1.361   .     S
C830   C836    1.397   .     A
C830   C1021   1.388   .     S
C831   O854    1.302   .     A
C831   O853    1.296   .     A
C832   C833    1.402   .     A
C832   O863    1.384   .     S
C833   C841    1.411   .     S
C833   C834    1.396   .     A
C834   F865    1.359   .     S
C835   F866    1.358   .     S
C835   C836    1.394   .     A
C835   C1023   1.371   .     S
C837   N850    1.368   .     A
C837   F867    1.354   .     S
C837   C901    1.422   .     S
C838   F868    1.355   .     S
C838   N849    1.369   .     A
C839   N849    1.372   .     A
C839   O869    1.374   .     S
C840   O871    1.376   .     S
C840   N850    1.380   .     A
C840   C902    1.410   .     S
C841   O855    1.286   .     A
C841   O856    1.286   .     A
C842   O857    1.301   .     A
C842   O858    1.297   .     A
C842   C844    1.463   .     S
C845   F877    1.357   .     S
C845   C279    1.389   1_556 S
C846   H848    1.083   .     S
C846   C847    1.393   .     A
C847   O878    1.379   .     S
N849   Zn859   2.024   .     S
N850   Zn860   2.024   .     S
O851   Zn859   1.989   .     S
O852   Zn860   1.987   .     S
O853   Zn859   1.941   .     S
O854   Zn860   1.892   .     S
O855   Zn859   1.987   .     S
O856   Zn860   1.989   .     S
O857   Zn859   1.892   .     S
O858   Zn860   1.941   .     S
O861   H862    0.990   .     S
O863   H864    0.991   .     S
O869   H870    0.982   .     S
O871   H872    0.978   .     S
O874   H875    0.991   .     S
O874   C276    1.379   1_556 S
O878   H879    0.991   .     S
O880   H881    0.990   .     S
C883   C899    1.410   .     S
C883   O915    1.286   .     A
C883   O914    1.287   .     A
C884   C885    1.404   .     A
C884   C319    1.415   1_556 S
C884   C343    1.429   1_556 S
C885   C892    1.415   .     A
C885   C889    1.417   .     A
C886   C890    1.395   .     A
C887   C888    1.408   .     A
C887   C319    1.421   1_556 S
C887   C339    1.424   1_556 S
C888   C889    1.408   .     A
C888   F936    1.359   .     S
C889   O943    1.383   .     S
C890   F939    1.361   .     S
C890   C907    1.388   .     A
C891   C906    1.413   .     A
C891   C907    1.407   .     A
C891   O924    1.383   .     S
C892   C908    1.407   .     A
C892   C894    1.466   .     S
C893   F945    1.361   .     S
C893   C899    1.397   .     A
C893   C1084   1.388   .     S
C894   O917    1.302   .     A
C894   O916    1.296   .     A
C895   C896    1.402   .     A
C895   O926    1.384   .     S
C896   C904    1.411   .     S
C896   C897    1.396   .     A
C897   F928    1.359   .     S
C898   F929    1.358   .     S
C898   C899    1.394   .     A
C898   C1086   1.371   .     S
C900   N913    1.368   .     A
C900   F930    1.354   .     S
C900   C775    1.422   1_655 S
C901   F931    1.355   .     S
C901   N912    1.369   .     A
C902   N912    1.372   .     A
C902   O932    1.374   .     S
C903   O934    1.376   .     S
C903   N913    1.380   .     A
C903   C776    1.410   1_655 S
C904   O918    1.286   .     A
C904   O919    1.286   .     A
C905   O920    1.301   .     A
C905   O921    1.297   .     A
C905   C907    1.463   .     S
C908   F940    1.357   .     S
C908   C342    1.389   1_556 S
C909   H911    1.083   .     S
C909   C910    1.393   .     A
C910   O941    1.379   .     S
N912   Zn922   2.024   .     S
N913   Zn923   2.024   .     S
O914   Zn922   1.989   .     S
O915   Zn923   1.987   .     S
O916   Zn922   1.941   .     S
O917   Zn923   1.892   .     S
O918   Zn922   1.987   .     S
O919   Zn923   1.989   .     S
O920   Zn922   1.892   .     S
O921   Zn923   1.941   .     S
O924   H925    0.990   .     S
O926   H927    0.991   .     S
O932   H933    0.982   .     S
O934   H935    0.978   .     S
O937   H938    0.991   .     S
O937   C339    1.379   1_556 S
O941   H942    0.991   .     S
O943   H944    0.990   .     S
C946   C962    1.410   .     S
C946   O978    1.286   .     A
C946   O977    1.287   .     A
C947   C948    1.404   .     A
C947   C382    1.415   1_556 S
C947   C406    1.429   1_556 S
C948   C955    1.415   .     A
C948   C952    1.417   .     A
C949   C953    1.395   .     A
C950   C951    1.408   .     A
C950   C382    1.421   1_556 S
C950   C402    1.424   1_556 S
C951   C952    1.408   .     A
C951   F999    1.359   .     S
C952   O1006   1.383   .     S
C953   F1002   1.361   .     S
C953   C970    1.388   .     A
C954   C969    1.413   .     A
C954   C970    1.407   .     A
C954   O987    1.383   .     S
C955   C971    1.407   .     A
C955   C957    1.466   .     S
C956   F1008   1.361   .     S
C956   C962    1.397   .     A
C956   C580    1.388   1_565 S
C957   O980    1.302   .     A
C957   O979    1.296   .     A
C958   C959    1.402   .     A
C958   O989    1.384   .     S
C959   C967    1.411   .     S
C959   C960    1.396   .     A
C960   F991    1.359   .     S
C961   F992    1.358   .     S
C961   C962    1.394   .     A
C961   C582    1.371   1_565 S
C963   N976    1.368   .     A
C963   F993    1.354   .     S
C963   C1027   1.422   .     S
C964   F994    1.355   .     S
C964   N975    1.369   .     A
C964   C1089   1.422   1_455 S
C965   N975    1.372   .     A
C965   O995    1.374   .     S
C965   C1092   1.410   1_455 S
C966   O997    1.376   .     S
C966   N976    1.380   .     A
C966   C1028   1.410   .     S
C967   O981    1.286   .     A
C967   O982    1.286   .     A
C968   O983    1.301   .     A
C968   O984    1.297   .     A
C968   C970    1.463   .     S
C971   F1003   1.357   .     S
C971   C405    1.389   1_556 S
C972   H974    1.083   .     S
C972   C973    1.393   .     A
C973   O1004   1.379   .     S
N975   Zn985   2.024   .     S
N976   Zn986   2.024   .     S
O977   Zn985   1.989   .     S
O978   Zn986   1.987   .     S
O979   Zn985   1.941   .     S
O980   Zn986   1.892   .     S
O981   Zn985   1.987   .     S
O982   Zn986   1.989   .     S
O983   Zn985   1.892   .     S
O984   Zn986   1.941   .     S
O987   H988    0.990   .     S
O989   H990    0.991   .     S
O995   H996    0.982   .     S
O997   H998    0.978   .     S
O1000  H1001   0.991   .     S
O1000  C402    1.379   1_556 S
O1004  H1005   0.991   .     S
O1006  H1007   0.990   .     S
C1009  C1025   1.410   .     S
C1009  O1041   1.286   .     A
C1009  O1040   1.287   .     A
C1010  C1011   1.404   .     A
C1010  C445    1.415   1_556 S
C1010  C469    1.429   1_556 S
C1011  C1018   1.415   .     A
C1011  C1015   1.417   .     A
C1012  C1016   1.395   .     A
C1013  C1014   1.408   .     A
C1013  C445    1.421   1_556 S
C1013  C465    1.424   1_556 S
C1014  C1015   1.408   .     A
C1014  F1062   1.359   .     S
C1015  O1069   1.383   .     S
C1016  F1065   1.361   .     S
C1016  C1033   1.388   .     A
C1017  C1032   1.413   .     A
C1017  C1033   1.407   .     A
C1017  O1050   1.383   .     S
C1018  C1034   1.407   .     A
C1018  C1020   1.466   .     S
C1019  F1071   1.361   .     S
C1019  C1025   1.397   .     A
C1019  C643    1.388   1_565 S
C1020  O1043   1.302   .     A
C1020  O1042   1.296   .     A
C1021  C1022   1.402   .     A
C1021  O1052   1.384   .     S
C1022  C1030   1.411   .     S
C1022  C1023   1.396   .     A
C1023  F1054   1.359   .     S
C1024  F1055   1.358   .     S
C1024  C1025   1.394   .     A
C1024  C645    1.371   1_565 S
C1026  N1039   1.368   .     A
C1026  F1056   1.354   .     S
C1026  C1090   1.422   .     S
C1027  F1057   1.355   .     S
C1027  N1038   1.369   .     A
C1028  N1038   1.372   .     A
C1028  O1058   1.374   .     S
C1029  O1060   1.376   .     S
C1029  N1039   1.380   .     A
C1029  C1091   1.410   .     S
C1030  O1044   1.286   .     A
C1030  O1045   1.286   .     A
C1031  O1046   1.301   .     A
C1031  O1047   1.297   .     A
C1031  C1033   1.463   .     S
C1034  F1066   1.357   .     S
C1034  C468    1.389   1_556 S
C1035  H1037   1.083   .     S
C1035  C1036   1.393   .     A
C1036  O1067   1.379   .     S
N1038  Zn1048  2.024   .     S
N1039  Zn1049  2.024   .     S
O1040  Zn1048  1.989   .     S
O1041  Zn1049  1.987   .     S
O1042  Zn1048  1.941   .     S
O1043  Zn1049  1.892   .     S
O1044  Zn1048  1.987   .     S
O1045  Zn1049  1.989   .     S
O1046  Zn1048  1.892   .     S
O1047  Zn1049  1.941   .     S
O1050  H1051   0.990   .     S
O1052  H1053   0.991   .     S
O1058  H1059   0.982   .     S
O1060  H1061   0.978   .     S
O1063  H1064   0.991   .     S
O1063  C465    1.379   1_556 S
O1067  H1068   0.991   .     S
O1069  H1070   0.990   .     S
C1072  C1088   1.410   .     S
C1072  O1104   1.286   .     A
C1072  O1103   1.287   .     A
C1073  C1074   1.404   .     A
C1073  C508    1.415   1_556 S
C1073  C532    1.429   1_556 S
C1074  C1081   1.415   .     A
C1074  C1078   1.417   .     A
C1075  C1079   1.395   .     A
C1076  C1077   1.408   .     A
C1076  C508    1.421   1_556 S
C1076  C528    1.424   1_556 S
C1077  C1078   1.408   .     A
C1077  F1125   1.359   .     S
C1078  O1132   1.383   .     S
C1079  F1128   1.361   .     S
C1079  C1096   1.388   .     A
C1080  C1095   1.413   .     A
C1080  C1096   1.407   .     A
C1080  O1113   1.383   .     S
C1081  C1097   1.407   .     A
C1081  C1083   1.466   .     S
C1082  F1134   1.361   .     S
C1082  C1088   1.397   .     A
C1082  C706    1.388   1_565 S
C1083  O1106   1.302   .     A
C1083  O1105   1.296   .     A
C1084  C1085   1.402   .     A
C1084  O1115   1.384   .     S
C1085  C1093   1.411   .     S
C1085  C1086   1.396   .     A
C1086  F1117   1.359   .     S
C1087  F1118   1.358   .     S
C1087  C1088   1.394   .     A
C1087  C708    1.371   1_565 S
C1089  N1102   1.368   .     A
C1089  F1119   1.354   .     S
C1089  C964    1.422   1_655 S
C1090  F1120   1.355   .     S
C1090  N1101   1.369   .     A
C1091  N1101   1.372   .     A
C1091  O1121   1.374   .     S
C1092  O1123   1.376   .     S
C1092  N1102   1.380   .     A
C1092  C965    1.410   1_655 S
C1093  O1107   1.286   .     A
C1093  O1108   1.286   .     A
C1094  O1109   1.301   .     A
C1094  O1110   1.297   .     A
C1094  C1096   1.463   .     S
C1097  F1129   1.357   .     S
C1097  C531    1.389   1_556 S
C1098  H1100   1.083   .     S
C1098  C1099   1.393   .     A
C1099  O1130   1.379   .     S
N1101  Zn1111  2.024   .     S
N1102  Zn1112  2.024   .     S
O1103  Zn1111  1.989   .     S
O1104  Zn1112  1.987   .     S
O1105  Zn1111  1.941   .     S
O1106  Zn1112  1.892   .     S
O1107  Zn1111  1.987   .     S
O1108  Zn1112  1.989   .     S
O1109  Zn1111  1.892   .     S
O1110  Zn1112  1.941   .     S
O1113  H1114   0.990   .     S
O1115  H1116   0.991   .     S
O1121  H1122   0.982   .     S
O1123  H1124   0.978   .     S
O1126  H1127   0.991   .     S
O1126  C528    1.379   1_556 S
O1130  H1131   0.991   .     S
O1132  H1133   0.990   .     S
