data_str_m3_o1_o10_pcu_sym.171
_audit_creation_date              2020-01-03
_audit_creation_method            'Materials Studio'
_symmetry_space_group_name_H-M    'P1'
_symmetry_Int_Tables_number       1
_symmetry_cell_setting            triclinic
loop_
_symmetry_equiv_pos_as_xyz
  x,y,z
_cell_length_a                    25.7780
_cell_length_b                    32.0724
_cell_length_c                    29.5795
_cell_angle_alpha                 90.1584
_cell_angle_beta                  98.6529
_cell_angle_gamma                 90.1969
loop_
_atom_site_label
_atom_site_type_symbol
_atom_site_fract_x
_atom_site_fract_y
_atom_site_fract_z
_atom_site_U_iso_or_equiv
_atom_site_adp_type
_atom_site_occupancy
C1     C     0.16707   0.08668   0.16662   0.00000  Uiso   1.00
C2     C     0.16626   0.24665   0.16671   0.00000  Uiso   1.00
C3     C     0.06705   0.16665   0.15470   0.00000  Uiso   1.00
C4     C     0.26629   0.16668   0.17864   0.00000  Uiso   1.00
C5     C     0.01200   0.16667   0.14827   0.00000  Uiso   1.00
C6     C     0.32134   0.16666   0.18507   0.00000  Uiso   1.00
C7     C     0.19097   0.02101   0.13395   0.00000  Uiso   1.00
C8     C     0.14236   0.31232   0.19939   0.00000  Uiso   1.00
C9     C     0.19031   0.31159   0.13416   0.00000  Uiso   1.00
C10    C     0.14302   0.02174   0.19917   0.00000  Uiso   1.00
C11    C     0.16615   0.29078   0.16683   0.00000  Uiso   1.00
C12    C     0.16718   0.04255   0.16650   0.00000  Uiso   1.00
C13    C     0.19934   0.19262   0.02831   0.00000  Uiso   1.00
C14    C     0.13399   0.14071   0.30503   0.00000  Uiso   1.00
C15    C     0.19932   0.19261   0.31371   0.00000  Uiso   1.00
C16    C     0.13401   0.14072   0.01962   0.00000  Uiso   1.00
H17    H     0.32470   0.16671   0.11336   0.00000  Uiso   1.00
H18    H     0.00864   0.16662   0.21998   0.00000  Uiso   1.00
H19    H     0.20927   0.29479   0.10935   0.00000  Uiso   1.00
H20    H     0.12406   0.03855   0.22398   0.00000  Uiso   1.00
N21    N     0.16665   0.16666   0.28573   0.00000  Uiso   1.00
N22    N     0.16668   0.16668   0.04760   0.00000  Uiso   1.00
O23    O     0.16666   0.10558   0.20487   0.00000  Uiso   1.00
O24    O     0.16667   0.22775   0.12846   0.00000  Uiso   1.00
O25    O     0.16666   0.10559   0.12843   0.00000  Uiso   1.00
O26    O     0.16667   0.22774   0.20490   0.00000  Uiso   1.00
O27    O     0.09058   0.16666   0.19595   0.00000  Uiso   1.00
O28    O     0.24275   0.16667   0.13739   0.00000  Uiso   1.00
O29    O     0.09058   0.16667   0.11950   0.00000  Uiso   1.00
O30    O     0.24275   0.16666   0.21383   0.00000  Uiso   1.00
Zn31   Zn    0.16667   0.16666   0.21771   0.00000  Uiso   1.00
Zn32   Zn    0.16667   0.16667   0.11563   0.00000  Uiso   1.00
F33    F     0.21578   0.04113   0.10289   0.00000  Uiso   1.00
F34    F     0.11755   0.29220   0.23044   0.00000  Uiso   1.00
F35    F     0.23212   0.21866   0.05529   0.00000  Uiso   1.00
F36    F     0.10121   0.11468   0.27804   0.00000  Uiso   1.00
F37    F     0.23207   0.21863   0.29541   0.00000  Uiso   1.00
F38    F     0.10126   0.11470   0.03792   0.00000  Uiso   1.00
C39    C     0.50041   0.08668   0.16662   0.00000  Uiso   1.00
C40    C     0.49959   0.24665   0.16671   0.00000  Uiso   1.00
C41    C     0.40038   0.16665   0.15470   0.00000  Uiso   1.00
C42    C     0.59962   0.16668   0.17864   0.00000  Uiso   1.00
C43    C     0.34533   0.16667   0.14827   0.00000  Uiso   1.00
C44    C     0.65467   0.16666   0.18507   0.00000  Uiso   1.00
C45    C     0.52431   0.02101   0.13395   0.00000  Uiso   1.00
C46    C     0.47569   0.31232   0.19939   0.00000  Uiso   1.00
C47    C     0.52364   0.31159   0.13416   0.00000  Uiso   1.00
C48    C     0.47636   0.02174   0.19917   0.00000  Uiso   1.00
C49    C     0.49948   0.29078   0.16683   0.00000  Uiso   1.00
C50    C     0.50052   0.04255   0.16650   0.00000  Uiso   1.00
C51    C     0.53267   0.19262   0.02831   0.00000  Uiso   1.00
C52    C     0.46733   0.14071   0.30503   0.00000  Uiso   1.00
C53    C     0.53265   0.19261   0.31371   0.00000  Uiso   1.00
C54    C     0.46734   0.14072   0.01962   0.00000  Uiso   1.00
H55    H     0.65803   0.16671   0.11336   0.00000  Uiso   1.00
H56    H     0.34197   0.16662   0.21998   0.00000  Uiso   1.00
H57    H     0.54261   0.29479   0.10935   0.00000  Uiso   1.00
H58    H     0.45739   0.03855   0.22398   0.00000  Uiso   1.00
N59    N     0.49999   0.16666   0.28573   0.00000  Uiso   1.00
N60    N     0.50001   0.16668   0.04760   0.00000  Uiso   1.00
O61    O     0.50000   0.10558   0.20487   0.00000  Uiso   1.00
O62    O     0.50000   0.22775   0.12846   0.00000  Uiso   1.00
O63    O     0.50000   0.10559   0.12843   0.00000  Uiso   1.00
O64    O     0.50000   0.22774   0.20490   0.00000  Uiso   1.00
O65    O     0.42392   0.16666   0.19595   0.00000  Uiso   1.00
O66    O     0.57608   0.16667   0.13739   0.00000  Uiso   1.00
O67    O     0.42392   0.16667   0.11950   0.00000  Uiso   1.00
O68    O     0.57608   0.16666   0.21383   0.00000  Uiso   1.00
Zn69   Zn    0.50000   0.16666   0.21771   0.00000  Uiso   1.00
Zn70   Zn    0.50000   0.16667   0.11563   0.00000  Uiso   1.00
F71    F     0.54912   0.04113   0.10289   0.00000  Uiso   1.00
F72    F     0.45088   0.29220   0.23044   0.00000  Uiso   1.00
F73    F     0.56545   0.21866   0.05529   0.00000  Uiso   1.00
F74    F     0.43455   0.11468   0.27804   0.00000  Uiso   1.00
F75    F     0.56540   0.21863   0.29541   0.00000  Uiso   1.00
F76    F     0.43460   0.11470   0.03792   0.00000  Uiso   1.00
C77    C     0.83374   0.08668   0.16662   0.00000  Uiso   1.00
C78    C     0.83293   0.24665   0.16671   0.00000  Uiso   1.00
C79    C     0.73371   0.16665   0.15470   0.00000  Uiso   1.00
C80    C     0.93295   0.16668   0.17864   0.00000  Uiso   1.00
C81    C     0.67866   0.16667   0.14827   0.00000  Uiso   1.00
C82    C     0.98800   0.16666   0.18507   0.00000  Uiso   1.00
C83    C     0.85764   0.02101   0.13395   0.00000  Uiso   1.00
C84    C     0.80903   0.31232   0.19939   0.00000  Uiso   1.00
C85    C     0.85698   0.31159   0.13416   0.00000  Uiso   1.00
C86    C     0.80969   0.02174   0.19917   0.00000  Uiso   1.00
C87    C     0.83282   0.29078   0.16683   0.00000  Uiso   1.00
C88    C     0.83385   0.04255   0.16650   0.00000  Uiso   1.00
C89    C     0.86601   0.19262   0.02831   0.00000  Uiso   1.00
C90    C     0.80066   0.14071   0.30503   0.00000  Uiso   1.00
C91    C     0.86599   0.19261   0.31371   0.00000  Uiso   1.00
C92    C     0.80068   0.14072   0.01962   0.00000  Uiso   1.00
H93    H     0.99136   0.16671   0.11336   0.00000  Uiso   1.00
H94    H     0.67530   0.16662   0.21998   0.00000  Uiso   1.00
H95    H     0.87594   0.29479   0.10935   0.00000  Uiso   1.00
H96    H     0.79073   0.03855   0.22398   0.00000  Uiso   1.00
N97    N     0.83332   0.16666   0.28573   0.00000  Uiso   1.00
N98    N     0.83335   0.16668   0.04760   0.00000  Uiso   1.00
O99    O     0.83333   0.10558   0.20487   0.00000  Uiso   1.00
O100   O     0.83334   0.22775   0.12846   0.00000  Uiso   1.00
O101   O     0.83333   0.10559   0.12843   0.00000  Uiso   1.00
O102   O     0.83334   0.22774   0.20490   0.00000  Uiso   1.00
O103   O     0.75725   0.16666   0.19595   0.00000  Uiso   1.00
O104   O     0.90942   0.16667   0.13739   0.00000  Uiso   1.00
O105   O     0.75725   0.16667   0.11950   0.00000  Uiso   1.00
O106   O     0.90942   0.16666   0.21383   0.00000  Uiso   1.00
Zn107  Zn    0.83333   0.16666   0.21771   0.00000  Uiso   1.00
Zn108  Zn    0.83333   0.16667   0.11563   0.00000  Uiso   1.00
F109   F     0.88245   0.04113   0.10289   0.00000  Uiso   1.00
F110   F     0.78422   0.29220   0.23044   0.00000  Uiso   1.00
F111   F     0.89879   0.21866   0.05529   0.00000  Uiso   1.00
F112   F     0.76788   0.11468   0.27804   0.00000  Uiso   1.00
F113   F     0.89874   0.21863   0.29541   0.00000  Uiso   1.00
F114   F     0.76793   0.11470   0.03792   0.00000  Uiso   1.00
C115   C     0.16707   0.42002   0.16662   0.00000  Uiso   1.00
C116   C     0.16626   0.57998   0.16671   0.00000  Uiso   1.00
C117   C     0.06705   0.49998   0.15470   0.00000  Uiso   1.00
C118   C     0.26629   0.50002   0.17864   0.00000  Uiso   1.00
C119   C     0.01200   0.50001   0.14827   0.00000  Uiso   1.00
C120   C     0.32134   0.49999   0.18507   0.00000  Uiso   1.00
C121   C     0.19097   0.35434   0.13395   0.00000  Uiso   1.00
C122   C     0.14236   0.64566   0.19939   0.00000  Uiso   1.00
C123   C     0.19031   0.64492   0.13416   0.00000  Uiso   1.00
C124   C     0.14302   0.35508   0.19917   0.00000  Uiso   1.00
C125   C     0.16615   0.62412   0.16683   0.00000  Uiso   1.00
C126   C     0.16718   0.37588   0.16650   0.00000  Uiso   1.00
C127   C     0.19934   0.52596   0.02831   0.00000  Uiso   1.00
C128   C     0.13399   0.47404   0.30503   0.00000  Uiso   1.00
C129   C     0.19932   0.52595   0.31371   0.00000  Uiso   1.00
C130   C     0.13401   0.47405   0.01962   0.00000  Uiso   1.00
H131   H     0.32470   0.50005   0.11336   0.00000  Uiso   1.00
H132   H     0.00864   0.49995   0.21998   0.00000  Uiso   1.00
H133   H     0.20927   0.62812   0.10935   0.00000  Uiso   1.00
H134   H     0.12406   0.37188   0.22398   0.00000  Uiso   1.00
N135   N     0.16665   0.49999   0.28573   0.00000  Uiso   1.00
N136   N     0.16668   0.50001   0.04760   0.00000  Uiso   1.00
O137   O     0.16666   0.43892   0.20487   0.00000  Uiso   1.00
O138   O     0.16667   0.56108   0.12846   0.00000  Uiso   1.00
O139   O     0.16666   0.43893   0.12843   0.00000  Uiso   1.00
O140   O     0.16667   0.56107   0.20490   0.00000  Uiso   1.00
O141   O     0.09058   0.50000   0.19595   0.00000  Uiso   1.00
O142   O     0.24275   0.50000   0.13739   0.00000  Uiso   1.00
O143   O     0.09058   0.50000   0.11950   0.00000  Uiso   1.00
O144   O     0.24275   0.50000   0.21383   0.00000  Uiso   1.00
Zn145  Zn    0.16667   0.49999   0.21771   0.00000  Uiso   1.00
Zn146  Zn    0.16667   0.50001   0.11563   0.00000  Uiso   1.00
F147   F     0.21578   0.37447   0.10289   0.00000  Uiso   1.00
F148   F     0.11755   0.62553   0.23044   0.00000  Uiso   1.00
F149   F     0.23212   0.55199   0.05529   0.00000  Uiso   1.00
F150   F     0.10121   0.44801   0.27804   0.00000  Uiso   1.00
F151   F     0.23207   0.55196   0.29541   0.00000  Uiso   1.00
F152   F     0.10126   0.44804   0.03792   0.00000  Uiso   1.00
C153   C     0.50041   0.42002   0.16662   0.00000  Uiso   1.00
C154   C     0.49959   0.57998   0.16671   0.00000  Uiso   1.00
C155   C     0.40038   0.49998   0.15470   0.00000  Uiso   1.00
C156   C     0.59962   0.50002   0.17864   0.00000  Uiso   1.00
C157   C     0.34533   0.50001   0.14827   0.00000  Uiso   1.00
C158   C     0.65467   0.49999   0.18507   0.00000  Uiso   1.00
C159   C     0.52431   0.35434   0.13395   0.00000  Uiso   1.00
C160   C     0.47569   0.64566   0.19939   0.00000  Uiso   1.00
C161   C     0.52364   0.64492   0.13416   0.00000  Uiso   1.00
C162   C     0.47636   0.35508   0.19917   0.00000  Uiso   1.00
C163   C     0.49948   0.62412   0.16683   0.00000  Uiso   1.00
C164   C     0.50052   0.37588   0.16650   0.00000  Uiso   1.00
C165   C     0.53267   0.52596   0.02831   0.00000  Uiso   1.00
C166   C     0.46733   0.47404   0.30503   0.00000  Uiso   1.00
C167   C     0.53265   0.52595   0.31371   0.00000  Uiso   1.00
C168   C     0.46734   0.47405   0.01962   0.00000  Uiso   1.00
H169   H     0.65803   0.50005   0.11336   0.00000  Uiso   1.00
H170   H     0.34197   0.49995   0.21998   0.00000  Uiso   1.00
H171   H     0.54261   0.62812   0.10935   0.00000  Uiso   1.00
H172   H     0.45739   0.37188   0.22398   0.00000  Uiso   1.00
N173   N     0.49999   0.49999   0.28573   0.00000  Uiso   1.00
N174   N     0.50001   0.50001   0.04760   0.00000  Uiso   1.00
O175   O     0.50000   0.43892   0.20487   0.00000  Uiso   1.00
O176   O     0.50000   0.56108   0.12846   0.00000  Uiso   1.00
O177   O     0.50000   0.43893   0.12843   0.00000  Uiso   1.00
O178   O     0.50000   0.56107   0.20490   0.00000  Uiso   1.00
O179   O     0.42392   0.50000   0.19595   0.00000  Uiso   1.00
O180   O     0.57608   0.50000   0.13739   0.00000  Uiso   1.00
O181   O     0.42392   0.50000   0.11950   0.00000  Uiso   1.00
O182   O     0.57608   0.50000   0.21383   0.00000  Uiso   1.00
Zn183  Zn    0.50000   0.49999   0.21771   0.00000  Uiso   1.00
Zn184  Zn    0.50000   0.50001   0.11563   0.00000  Uiso   1.00
F185   F     0.54912   0.37447   0.10289   0.00000  Uiso   1.00
F186   F     0.45088   0.62553   0.23044   0.00000  Uiso   1.00
F187   F     0.56545   0.55199   0.05529   0.00000  Uiso   1.00
F188   F     0.43455   0.44801   0.27804   0.00000  Uiso   1.00
F189   F     0.56540   0.55196   0.29541   0.00000  Uiso   1.00
F190   F     0.43460   0.44804   0.03792   0.00000  Uiso   1.00
C191   C     0.83374   0.42002   0.16662   0.00000  Uiso   1.00
C192   C     0.83293   0.57998   0.16671   0.00000  Uiso   1.00
C193   C     0.73371   0.49998   0.15470   0.00000  Uiso   1.00
C194   C     0.93295   0.50002   0.17864   0.00000  Uiso   1.00
C195   C     0.67866   0.50001   0.14827   0.00000  Uiso   1.00
C196   C     0.98800   0.49999   0.18507   0.00000  Uiso   1.00
C197   C     0.85764   0.35434   0.13395   0.00000  Uiso   1.00
C198   C     0.80903   0.64566   0.19939   0.00000  Uiso   1.00
C199   C     0.85698   0.64492   0.13416   0.00000  Uiso   1.00
C200   C     0.80969   0.35508   0.19917   0.00000  Uiso   1.00
C201   C     0.83282   0.62412   0.16683   0.00000  Uiso   1.00
C202   C     0.83385   0.37588   0.16650   0.00000  Uiso   1.00
C203   C     0.86601   0.52596   0.02831   0.00000  Uiso   1.00
C204   C     0.80066   0.47404   0.30503   0.00000  Uiso   1.00
C205   C     0.86599   0.52595   0.31371   0.00000  Uiso   1.00
C206   C     0.80068   0.47405   0.01962   0.00000  Uiso   1.00
H207   H     0.99136   0.50005   0.11336   0.00000  Uiso   1.00
H208   H     0.67530   0.49995   0.21998   0.00000  Uiso   1.00
H209   H     0.87594   0.62812   0.10935   0.00000  Uiso   1.00
H210   H     0.79073   0.37188   0.22398   0.00000  Uiso   1.00
N211   N     0.83332   0.49999   0.28573   0.00000  Uiso   1.00
N212   N     0.83335   0.50001   0.04760   0.00000  Uiso   1.00
O213   O     0.83333   0.43892   0.20487   0.00000  Uiso   1.00
O214   O     0.83334   0.56108   0.12846   0.00000  Uiso   1.00
O215   O     0.83333   0.43893   0.12843   0.00000  Uiso   1.00
O216   O     0.83334   0.56107   0.20490   0.00000  Uiso   1.00
O217   O     0.75725   0.50000   0.19595   0.00000  Uiso   1.00
O218   O     0.90942   0.50000   0.13739   0.00000  Uiso   1.00
O219   O     0.75725   0.50000   0.11950   0.00000  Uiso   1.00
O220   O     0.90942   0.50000   0.21383   0.00000  Uiso   1.00
Zn221  Zn    0.83333   0.49999   0.21771   0.00000  Uiso   1.00
Zn222  Zn    0.83333   0.50001   0.11563   0.00000  Uiso   1.00
F223   F     0.88245   0.37447   0.10289   0.00000  Uiso   1.00
F224   F     0.78422   0.62553   0.23044   0.00000  Uiso   1.00
F225   F     0.89879   0.55199   0.05529   0.00000  Uiso   1.00
F226   F     0.76788   0.44801   0.27804   0.00000  Uiso   1.00
F227   F     0.89874   0.55196   0.29541   0.00000  Uiso   1.00
F228   F     0.76793   0.44804   0.03792   0.00000  Uiso   1.00
C229   C     0.16707   0.75335   0.16662   0.00000  Uiso   1.00
C230   C     0.16626   0.91332   0.16671   0.00000  Uiso   1.00
C231   C     0.06705   0.83332   0.15470   0.00000  Uiso   1.00
C232   C     0.26629   0.83335   0.17864   0.00000  Uiso   1.00
C233   C     0.01200   0.83334   0.14827   0.00000  Uiso   1.00
C234   C     0.32134   0.83333   0.18507   0.00000  Uiso   1.00
C235   C     0.19097   0.68768   0.13395   0.00000  Uiso   1.00
C236   C     0.14236   0.97899   0.19939   0.00000  Uiso   1.00
C237   C     0.19031   0.97826   0.13416   0.00000  Uiso   1.00
C238   C     0.14302   0.68841   0.19917   0.00000  Uiso   1.00
C239   C     0.16615   0.95745   0.16683   0.00000  Uiso   1.00
C240   C     0.16718   0.70922   0.16650   0.00000  Uiso   1.00
C241   C     0.19934   0.85929   0.02831   0.00000  Uiso   1.00
C242   C     0.13399   0.80737   0.30503   0.00000  Uiso   1.00
C243   C     0.19932   0.85928   0.31371   0.00000  Uiso   1.00
C244   C     0.13401   0.80739   0.01962   0.00000  Uiso   1.00
H245   H     0.32470   0.83338   0.11336   0.00000  Uiso   1.00
H246   H     0.00864   0.83329   0.21998   0.00000  Uiso   1.00
H247   H     0.20927   0.96145   0.10935   0.00000  Uiso   1.00
H248   H     0.12406   0.70521   0.22398   0.00000  Uiso   1.00
N249   N     0.16665   0.83332   0.28573   0.00000  Uiso   1.00
N250   N     0.16668   0.83334   0.04760   0.00000  Uiso   1.00
O251   O     0.16666   0.77225   0.20487   0.00000  Uiso   1.00
O252   O     0.16667   0.89442   0.12846   0.00000  Uiso   1.00
O253   O     0.16666   0.77226   0.12843   0.00000  Uiso   1.00
O254   O     0.16667   0.89441   0.20490   0.00000  Uiso   1.00
O255   O     0.09058   0.83333   0.19595   0.00000  Uiso   1.00
O256   O     0.24275   0.83334   0.13739   0.00000  Uiso   1.00
O257   O     0.09058   0.83334   0.11950   0.00000  Uiso   1.00
O258   O     0.24275   0.83333   0.21383   0.00000  Uiso   1.00
Zn259  Zn    0.16667   0.83333   0.21771   0.00000  Uiso   1.00
Zn260  Zn    0.16667   0.83334   0.11563   0.00000  Uiso   1.00
F261   F     0.21578   0.70780   0.10289   0.00000  Uiso   1.00
F262   F     0.11755   0.95887   0.23044   0.00000  Uiso   1.00
F263   F     0.23212   0.88532   0.05529   0.00000  Uiso   1.00
F264   F     0.10121   0.78134   0.27804   0.00000  Uiso   1.00
F265   F     0.23207   0.88530   0.29541   0.00000  Uiso   1.00
F266   F     0.10126   0.78137   0.03792   0.00000  Uiso   1.00
C267   C     0.50041   0.75335   0.16662   0.00000  Uiso   1.00
C268   C     0.49959   0.91332   0.16671   0.00000  Uiso   1.00
C269   C     0.40038   0.83332   0.15470   0.00000  Uiso   1.00
C270   C     0.59962   0.83335   0.17864   0.00000  Uiso   1.00
C271   C     0.34533   0.83334   0.14827   0.00000  Uiso   1.00
C272   C     0.65467   0.83333   0.18507   0.00000  Uiso   1.00
C273   C     0.52431   0.68768   0.13395   0.00000  Uiso   1.00
C274   C     0.47569   0.97899   0.19939   0.00000  Uiso   1.00
C275   C     0.52364   0.97826   0.13416   0.00000  Uiso   1.00
C276   C     0.47636   0.68841   0.19917   0.00000  Uiso   1.00
C277   C     0.49948   0.95745   0.16683   0.00000  Uiso   1.00
C278   C     0.50052   0.70922   0.16650   0.00000  Uiso   1.00
C279   C     0.53267   0.85929   0.02831   0.00000  Uiso   1.00
C280   C     0.46733   0.80737   0.30503   0.00000  Uiso   1.00
C281   C     0.53265   0.85928   0.31371   0.00000  Uiso   1.00
C282   C     0.46734   0.80739   0.01962   0.00000  Uiso   1.00
H283   H     0.65803   0.83338   0.11336   0.00000  Uiso   1.00
H284   H     0.34197   0.83329   0.21998   0.00000  Uiso   1.00
H285   H     0.54261   0.96145   0.10935   0.00000  Uiso   1.00
H286   H     0.45739   0.70521   0.22398   0.00000  Uiso   1.00
N287   N     0.49999   0.83332   0.28573   0.00000  Uiso   1.00
N288   N     0.50001   0.83334   0.04760   0.00000  Uiso   1.00
O289   O     0.50000   0.77225   0.20487   0.00000  Uiso   1.00
O290   O     0.50000   0.89442   0.12846   0.00000  Uiso   1.00
O291   O     0.50000   0.77226   0.12843   0.00000  Uiso   1.00
O292   O     0.50000   0.89441   0.20490   0.00000  Uiso   1.00
O293   O     0.42392   0.83333   0.19595   0.00000  Uiso   1.00
O294   O     0.57608   0.83334   0.13739   0.00000  Uiso   1.00
O295   O     0.42392   0.83334   0.11950   0.00000  Uiso   1.00
O296   O     0.57608   0.83333   0.21383   0.00000  Uiso   1.00
Zn297  Zn    0.50000   0.83333   0.21771   0.00000  Uiso   1.00
Zn298  Zn    0.50000   0.83334   0.11563   0.00000  Uiso   1.00
F299   F     0.54912   0.70780   0.10289   0.00000  Uiso   1.00
F300   F     0.45088   0.95887   0.23044   0.00000  Uiso   1.00
F301   F     0.56545   0.88532   0.05529   0.00000  Uiso   1.00
F302   F     0.43455   0.78134   0.27804   0.00000  Uiso   1.00
F303   F     0.56540   0.88530   0.29541   0.00000  Uiso   1.00
F304   F     0.43460   0.78137   0.03792   0.00000  Uiso   1.00
C305   C     0.83374   0.75335   0.16662   0.00000  Uiso   1.00
C306   C     0.83293   0.91332   0.16671   0.00000  Uiso   1.00
C307   C     0.73371   0.83332   0.15470   0.00000  Uiso   1.00
C308   C     0.93295   0.83335   0.17864   0.00000  Uiso   1.00
C309   C     0.67866   0.83334   0.14827   0.00000  Uiso   1.00
C310   C     0.98800   0.83333   0.18507   0.00000  Uiso   1.00
C311   C     0.85764   0.68768   0.13395   0.00000  Uiso   1.00
C312   C     0.80903   0.97899   0.19939   0.00000  Uiso   1.00
C313   C     0.85698   0.97826   0.13416   0.00000  Uiso   1.00
C314   C     0.80969   0.68841   0.19917   0.00000  Uiso   1.00
C315   C     0.83282   0.95745   0.16683   0.00000  Uiso   1.00
C316   C     0.83385   0.70922   0.16650   0.00000  Uiso   1.00
C317   C     0.86601   0.85929   0.02831   0.00000  Uiso   1.00
C318   C     0.80066   0.80737   0.30503   0.00000  Uiso   1.00
C319   C     0.86599   0.85928   0.31371   0.00000  Uiso   1.00
C320   C     0.80068   0.80739   0.01962   0.00000  Uiso   1.00
H321   H     0.99136   0.83338   0.11336   0.00000  Uiso   1.00
H322   H     0.67530   0.83329   0.21998   0.00000  Uiso   1.00
H323   H     0.87594   0.96145   0.10935   0.00000  Uiso   1.00
H324   H     0.79073   0.70521   0.22398   0.00000  Uiso   1.00
N325   N     0.83332   0.83332   0.28573   0.00000  Uiso   1.00
N326   N     0.83335   0.83334   0.04760   0.00000  Uiso   1.00
O327   O     0.83333   0.77225   0.20487   0.00000  Uiso   1.00
O328   O     0.83334   0.89442   0.12846   0.00000  Uiso   1.00
O329   O     0.83333   0.77226   0.12843   0.00000  Uiso   1.00
O330   O     0.83334   0.89441   0.20490   0.00000  Uiso   1.00
O331   O     0.75725   0.83333   0.19595   0.00000  Uiso   1.00
O332   O     0.90942   0.83334   0.13739   0.00000  Uiso   1.00
O333   O     0.75725   0.83334   0.11950   0.00000  Uiso   1.00
O334   O     0.90942   0.83333   0.21383   0.00000  Uiso   1.00
Zn335  Zn    0.83333   0.83333   0.21771   0.00000  Uiso   1.00
Zn336  Zn    0.83333   0.83334   0.11563   0.00000  Uiso   1.00
F337   F     0.88245   0.70780   0.10289   0.00000  Uiso   1.00
F338   F     0.78422   0.95887   0.23044   0.00000  Uiso   1.00
F339   F     0.89879   0.88532   0.05529   0.00000  Uiso   1.00
F340   F     0.76788   0.78134   0.27804   0.00000  Uiso   1.00
F341   F     0.89874   0.88530   0.29541   0.00000  Uiso   1.00
F342   F     0.76793   0.78137   0.03792   0.00000  Uiso   1.00
C343   C     0.16707   0.08668   0.49995   0.00000  Uiso   1.00
C344   C     0.16626   0.24665   0.50005   0.00000  Uiso   1.00
C345   C     0.06705   0.16665   0.48803   0.00000  Uiso   1.00
C346   C     0.26629   0.16668   0.51197   0.00000  Uiso   1.00
C347   C     0.01200   0.16667   0.48160   0.00000  Uiso   1.00
C348   C     0.32134   0.16666   0.51840   0.00000  Uiso   1.00
C349   C     0.19097   0.02101   0.46728   0.00000  Uiso   1.00
C350   C     0.14236   0.31232   0.53272   0.00000  Uiso   1.00
C351   C     0.19031   0.31159   0.46750   0.00000  Uiso   1.00
C352   C     0.14302   0.02174   0.53250   0.00000  Uiso   1.00
C353   C     0.16615   0.29078   0.50016   0.00000  Uiso   1.00
C354   C     0.16718   0.04255   0.49984   0.00000  Uiso   1.00
C355   C     0.19934   0.19262   0.36164   0.00000  Uiso   1.00
C356   C     0.13399   0.14071   0.63836   0.00000  Uiso   1.00
C357   C     0.19932   0.19261   0.64704   0.00000  Uiso   1.00
C358   C     0.13401   0.14072   0.35296   0.00000  Uiso   1.00
H359   H     0.32470   0.16671   0.44669   0.00000  Uiso   1.00
H360   H     0.00864   0.16662   0.55331   0.00000  Uiso   1.00
H361   H     0.20927   0.29479   0.44269   0.00000  Uiso   1.00
H362   H     0.12406   0.03855   0.55731   0.00000  Uiso   1.00
N363   N     0.16665   0.16666   0.61907   0.00000  Uiso   1.00
N364   N     0.16668   0.16668   0.38093   0.00000  Uiso   1.00
O365   O     0.16666   0.10558   0.53821   0.00000  Uiso   1.00
O366   O     0.16667   0.22775   0.46179   0.00000  Uiso   1.00
O367   O     0.16666   0.10559   0.46176   0.00000  Uiso   1.00
O368   O     0.16667   0.22774   0.53824   0.00000  Uiso   1.00
O369   O     0.09058   0.16666   0.52928   0.00000  Uiso   1.00
O370   O     0.24275   0.16667   0.47072   0.00000  Uiso   1.00
O371   O     0.09058   0.16667   0.45284   0.00000  Uiso   1.00
O372   O     0.24275   0.16666   0.54716   0.00000  Uiso   1.00
Zn373  Zn    0.16667   0.16666   0.55104   0.00000  Uiso   1.00
Zn374  Zn    0.16667   0.16667   0.44896   0.00000  Uiso   1.00
F375   F     0.21578   0.04113   0.43623   0.00000  Uiso   1.00
F376   F     0.11755   0.29220   0.56377   0.00000  Uiso   1.00
F377   F     0.23212   0.21866   0.38863   0.00000  Uiso   1.00
F378   F     0.10121   0.11468   0.61137   0.00000  Uiso   1.00
F379   F     0.23207   0.21863   0.62875   0.00000  Uiso   1.00
F380   F     0.10126   0.11470   0.37125   0.00000  Uiso   1.00
C381   C     0.50041   0.08668   0.49995   0.00000  Uiso   1.00
C382   C     0.49959   0.24665   0.50005   0.00000  Uiso   1.00
C383   C     0.40038   0.16665   0.48803   0.00000  Uiso   1.00
C384   C     0.59962   0.16668   0.51197   0.00000  Uiso   1.00
C385   C     0.34533   0.16667   0.48160   0.00000  Uiso   1.00
C386   C     0.65467   0.16666   0.51840   0.00000  Uiso   1.00
C387   C     0.52431   0.02101   0.46728   0.00000  Uiso   1.00
C388   C     0.47569   0.31232   0.53272   0.00000  Uiso   1.00
C389   C     0.52364   0.31159   0.46750   0.00000  Uiso   1.00
C390   C     0.47636   0.02174   0.53250   0.00000  Uiso   1.00
C391   C     0.49948   0.29078   0.50016   0.00000  Uiso   1.00
C392   C     0.50052   0.04255   0.49984   0.00000  Uiso   1.00
C393   C     0.53267   0.19262   0.36164   0.00000  Uiso   1.00
C394   C     0.46733   0.14071   0.63836   0.00000  Uiso   1.00
C395   C     0.53265   0.19261   0.64704   0.00000  Uiso   1.00
C396   C     0.46734   0.14072   0.35296   0.00000  Uiso   1.00
H397   H     0.65803   0.16671   0.44669   0.00000  Uiso   1.00
H398   H     0.34197   0.16662   0.55331   0.00000  Uiso   1.00
H399   H     0.54261   0.29479   0.44269   0.00000  Uiso   1.00
H400   H     0.45739   0.03855   0.55731   0.00000  Uiso   1.00
N401   N     0.49999   0.16666   0.61907   0.00000  Uiso   1.00
N402   N     0.50001   0.16668   0.38093   0.00000  Uiso   1.00
O403   O     0.50000   0.10558   0.53821   0.00000  Uiso   1.00
O404   O     0.50000   0.22775   0.46179   0.00000  Uiso   1.00
O405   O     0.50000   0.10559   0.46176   0.00000  Uiso   1.00
O406   O     0.50000   0.22774   0.53824   0.00000  Uiso   1.00
O407   O     0.42392   0.16666   0.52928   0.00000  Uiso   1.00
O408   O     0.57608   0.16667   0.47072   0.00000  Uiso   1.00
O409   O     0.42392   0.16667   0.45284   0.00000  Uiso   1.00
O410   O     0.57608   0.16666   0.54716   0.00000  Uiso   1.00
Zn411  Zn    0.50000   0.16666   0.55104   0.00000  Uiso   1.00
Zn412  Zn    0.50000   0.16667   0.44896   0.00000  Uiso   1.00
F413   F     0.54912   0.04113   0.43623   0.00000  Uiso   1.00
F414   F     0.45088   0.29220   0.56377   0.00000  Uiso   1.00
F415   F     0.56545   0.21866   0.38863   0.00000  Uiso   1.00
F416   F     0.43455   0.11468   0.61137   0.00000  Uiso   1.00
F417   F     0.56540   0.21863   0.62875   0.00000  Uiso   1.00
F418   F     0.43460   0.11470   0.37125   0.00000  Uiso   1.00
C419   C     0.83374   0.08668   0.49995   0.00000  Uiso   1.00
C420   C     0.83293   0.24665   0.50005   0.00000  Uiso   1.00
C421   C     0.73371   0.16665   0.48803   0.00000  Uiso   1.00
C422   C     0.93295   0.16668   0.51197   0.00000  Uiso   1.00
C423   C     0.67866   0.16667   0.48160   0.00000  Uiso   1.00
C424   C     0.98800   0.16666   0.51840   0.00000  Uiso   1.00
C425   C     0.85764   0.02101   0.46728   0.00000  Uiso   1.00
C426   C     0.80903   0.31232   0.53272   0.00000  Uiso   1.00
C427   C     0.85698   0.31159   0.46750   0.00000  Uiso   1.00
C428   C     0.80969   0.02174   0.53250   0.00000  Uiso   1.00
C429   C     0.83282   0.29078   0.50016   0.00000  Uiso   1.00
C430   C     0.83385   0.04255   0.49984   0.00000  Uiso   1.00
C431   C     0.86601   0.19262   0.36164   0.00000  Uiso   1.00
C432   C     0.80066   0.14071   0.63836   0.00000  Uiso   1.00
C433   C     0.86599   0.19261   0.64704   0.00000  Uiso   1.00
C434   C     0.80068   0.14072   0.35296   0.00000  Uiso   1.00
H435   H     0.99136   0.16671   0.44669   0.00000  Uiso   1.00
H436   H     0.67530   0.16662   0.55331   0.00000  Uiso   1.00
H437   H     0.87594   0.29479   0.44269   0.00000  Uiso   1.00
H438   H     0.79073   0.03855   0.55731   0.00000  Uiso   1.00
N439   N     0.83332   0.16666   0.61907   0.00000  Uiso   1.00
N440   N     0.83335   0.16668   0.38093   0.00000  Uiso   1.00
O441   O     0.83333   0.10558   0.53821   0.00000  Uiso   1.00
O442   O     0.83334   0.22775   0.46179   0.00000  Uiso   1.00
O443   O     0.83333   0.10559   0.46176   0.00000  Uiso   1.00
O444   O     0.83334   0.22774   0.53824   0.00000  Uiso   1.00
O445   O     0.75725   0.16666   0.52928   0.00000  Uiso   1.00
O446   O     0.90942   0.16667   0.47072   0.00000  Uiso   1.00
O447   O     0.75725   0.16667   0.45284   0.00000  Uiso   1.00
O448   O     0.90942   0.16666   0.54716   0.00000  Uiso   1.00
Zn449  Zn    0.83333   0.16666   0.55104   0.00000  Uiso   1.00
Zn450  Zn    0.83333   0.16667   0.44896   0.00000  Uiso   1.00
F451   F     0.88245   0.04113   0.43623   0.00000  Uiso   1.00
F452   F     0.78422   0.29220   0.56377   0.00000  Uiso   1.00
F453   F     0.89879   0.21866   0.38863   0.00000  Uiso   1.00
F454   F     0.76788   0.11468   0.61137   0.00000  Uiso   1.00
F455   F     0.89874   0.21863   0.62875   0.00000  Uiso   1.00
F456   F     0.76793   0.11470   0.37125   0.00000  Uiso   1.00
C457   C     0.16707   0.42002   0.49995   0.00000  Uiso   1.00
C458   C     0.16626   0.57998   0.50005   0.00000  Uiso   1.00
C459   C     0.06705   0.49998   0.48803   0.00000  Uiso   1.00
C460   C     0.26629   0.50002   0.51197   0.00000  Uiso   1.00
C461   C     0.01200   0.50001   0.48160   0.00000  Uiso   1.00
C462   C     0.32134   0.49999   0.51840   0.00000  Uiso   1.00
C463   C     0.19097   0.35434   0.46728   0.00000  Uiso   1.00
C464   C     0.14236   0.64566   0.53272   0.00000  Uiso   1.00
C465   C     0.19031   0.64492   0.46750   0.00000  Uiso   1.00
C466   C     0.14302   0.35508   0.53250   0.00000  Uiso   1.00
C467   C     0.16615   0.62412   0.50016   0.00000  Uiso   1.00
C468   C     0.16718   0.37588   0.49984   0.00000  Uiso   1.00
C469   C     0.19934   0.52596   0.36164   0.00000  Uiso   1.00
C470   C     0.13399   0.47404   0.63836   0.00000  Uiso   1.00
C471   C     0.19932   0.52595   0.64704   0.00000  Uiso   1.00
C472   C     0.13401   0.47405   0.35296   0.00000  Uiso   1.00
H473   H     0.32470   0.50005   0.44669   0.00000  Uiso   1.00
H474   H     0.00864   0.49995   0.55331   0.00000  Uiso   1.00
H475   H     0.20927   0.62812   0.44269   0.00000  Uiso   1.00
H476   H     0.12406   0.37188   0.55731   0.00000  Uiso   1.00
N477   N     0.16665   0.49999   0.61907   0.00000  Uiso   1.00
N478   N     0.16668   0.50001   0.38093   0.00000  Uiso   1.00
O479   O     0.16666   0.43892   0.53821   0.00000  Uiso   1.00
O480   O     0.16667   0.56108   0.46179   0.00000  Uiso   1.00
O481   O     0.16666   0.43893   0.46176   0.00000  Uiso   1.00
O482   O     0.16667   0.56107   0.53824   0.00000  Uiso   1.00
O483   O     0.09058   0.50000   0.52928   0.00000  Uiso   1.00
O484   O     0.24275   0.50000   0.47072   0.00000  Uiso   1.00
O485   O     0.09058   0.50000   0.45284   0.00000  Uiso   1.00
O486   O     0.24275   0.50000   0.54716   0.00000  Uiso   1.00
Zn487  Zn    0.16667   0.49999   0.55104   0.00000  Uiso   1.00
Zn488  Zn    0.16667   0.50001   0.44896   0.00000  Uiso   1.00
F489   F     0.21578   0.37447   0.43623   0.00000  Uiso   1.00
F490   F     0.11755   0.62553   0.56377   0.00000  Uiso   1.00
F491   F     0.23212   0.55199   0.38863   0.00000  Uiso   1.00
F492   F     0.10121   0.44801   0.61137   0.00000  Uiso   1.00
F493   F     0.23207   0.55196   0.62875   0.00000  Uiso   1.00
F494   F     0.10126   0.44804   0.37125   0.00000  Uiso   1.00
C495   C     0.50041   0.42002   0.49995   0.00000  Uiso   1.00
C496   C     0.49959   0.57998   0.50005   0.00000  Uiso   1.00
C497   C     0.40038   0.49998   0.48803   0.00000  Uiso   1.00
C498   C     0.59962   0.50002   0.51197   0.00000  Uiso   1.00
C499   C     0.34533   0.50001   0.48160   0.00000  Uiso   1.00
C500   C     0.65467   0.49999   0.51840   0.00000  Uiso   1.00
C501   C     0.52431   0.35434   0.46728   0.00000  Uiso   1.00
C502   C     0.47569   0.64566   0.53272   0.00000  Uiso   1.00
C503   C     0.52364   0.64492   0.46750   0.00000  Uiso   1.00
C504   C     0.47636   0.35508   0.53250   0.00000  Uiso   1.00
C505   C     0.49948   0.62412   0.50016   0.00000  Uiso   1.00
C506   C     0.50052   0.37588   0.49984   0.00000  Uiso   1.00
C507   C     0.53267   0.52596   0.36164   0.00000  Uiso   1.00
C508   C     0.46733   0.47404   0.63836   0.00000  Uiso   1.00
C509   C     0.53265   0.52595   0.64704   0.00000  Uiso   1.00
C510   C     0.46734   0.47405   0.35296   0.00000  Uiso   1.00
H511   H     0.65803   0.50005   0.44669   0.00000  Uiso   1.00
H512   H     0.34197   0.49995   0.55331   0.00000  Uiso   1.00
H513   H     0.54261   0.62812   0.44269   0.00000  Uiso   1.00
H514   H     0.45739   0.37188   0.55731   0.00000  Uiso   1.00
N515   N     0.49999   0.49999   0.61907   0.00000  Uiso   1.00
N516   N     0.50001   0.50001   0.38093   0.00000  Uiso   1.00
O517   O     0.50000   0.43892   0.53821   0.00000  Uiso   1.00
O518   O     0.50000   0.56108   0.46179   0.00000  Uiso   1.00
O519   O     0.50000   0.43893   0.46176   0.00000  Uiso   1.00
O520   O     0.50000   0.56107   0.53824   0.00000  Uiso   1.00
O521   O     0.42392   0.50000   0.52928   0.00000  Uiso   1.00
O522   O     0.57608   0.50000   0.47072   0.00000  Uiso   1.00
O523   O     0.42392   0.50000   0.45284   0.00000  Uiso   1.00
O524   O     0.57608   0.50000   0.54716   0.00000  Uiso   1.00
Zn525  Zn    0.50000   0.49999   0.55104   0.00000  Uiso   1.00
Zn526  Zn    0.50000   0.50001   0.44896   0.00000  Uiso   1.00
F527   F     0.54912   0.37447   0.43623   0.00000  Uiso   1.00
F528   F     0.45088   0.62553   0.56377   0.00000  Uiso   1.00
F529   F     0.56545   0.55199   0.38863   0.00000  Uiso   1.00
F530   F     0.43455   0.44801   0.61137   0.00000  Uiso   1.00
F531   F     0.56540   0.55196   0.62875   0.00000  Uiso   1.00
F532   F     0.43460   0.44804   0.37125   0.00000  Uiso   1.00
C533   C     0.83374   0.42002   0.49995   0.00000  Uiso   1.00
C534   C     0.83293   0.57998   0.50005   0.00000  Uiso   1.00
C535   C     0.73371   0.49998   0.48803   0.00000  Uiso   1.00
C536   C     0.93295   0.50002   0.51197   0.00000  Uiso   1.00
C537   C     0.67866   0.50001   0.48160   0.00000  Uiso   1.00
C538   C     0.98800   0.49999   0.51840   0.00000  Uiso   1.00
C539   C     0.85764   0.35434   0.46728   0.00000  Uiso   1.00
C540   C     0.80903   0.64566   0.53272   0.00000  Uiso   1.00
C541   C     0.85698   0.64492   0.46750   0.00000  Uiso   1.00
C542   C     0.80969   0.35508   0.53250   0.00000  Uiso   1.00
C543   C     0.83282   0.62412   0.50016   0.00000  Uiso   1.00
C544   C     0.83385   0.37588   0.49984   0.00000  Uiso   1.00
C545   C     0.86601   0.52596   0.36164   0.00000  Uiso   1.00
C546   C     0.80066   0.47404   0.63836   0.00000  Uiso   1.00
C547   C     0.86599   0.52595   0.64704   0.00000  Uiso   1.00
C548   C     0.80068   0.47405   0.35296   0.00000  Uiso   1.00
H549   H     0.99136   0.50005   0.44669   0.00000  Uiso   1.00
H550   H     0.67530   0.49995   0.55331   0.00000  Uiso   1.00
H551   H     0.87594   0.62812   0.44269   0.00000  Uiso   1.00
H552   H     0.79073   0.37188   0.55731   0.00000  Uiso   1.00
N553   N     0.83332   0.49999   0.61907   0.00000  Uiso   1.00
N554   N     0.83335   0.50001   0.38093   0.00000  Uiso   1.00
O555   O     0.83333   0.43892   0.53821   0.00000  Uiso   1.00
O556   O     0.83334   0.56108   0.46179   0.00000  Uiso   1.00
O557   O     0.83333   0.43893   0.46176   0.00000  Uiso   1.00
O558   O     0.83334   0.56107   0.53824   0.00000  Uiso   1.00
O559   O     0.75725   0.50000   0.52928   0.00000  Uiso   1.00
O560   O     0.90942   0.50000   0.47072   0.00000  Uiso   1.00
O561   O     0.75725   0.50000   0.45284   0.00000  Uiso   1.00
O562   O     0.90942   0.50000   0.54716   0.00000  Uiso   1.00
Zn563  Zn    0.83333   0.49999   0.55104   0.00000  Uiso   1.00
Zn564  Zn    0.83333   0.50001   0.44896   0.00000  Uiso   1.00
F565   F     0.88245   0.37447   0.43623   0.00000  Uiso   1.00
F566   F     0.78422   0.62553   0.56377   0.00000  Uiso   1.00
F567   F     0.89879   0.55199   0.38863   0.00000  Uiso   1.00
F568   F     0.76788   0.44801   0.61137   0.00000  Uiso   1.00
F569   F     0.89874   0.55196   0.62875   0.00000  Uiso   1.00
F570   F     0.76793   0.44804   0.37125   0.00000  Uiso   1.00
C571   C     0.16707   0.75335   0.49995   0.00000  Uiso   1.00
C572   C     0.16626   0.91332   0.50005   0.00000  Uiso   1.00
C573   C     0.06705   0.83332   0.48803   0.00000  Uiso   1.00
C574   C     0.26629   0.83335   0.51197   0.00000  Uiso   1.00
C575   C     0.01200   0.83334   0.48160   0.00000  Uiso   1.00
C576   C     0.32134   0.83333   0.51840   0.00000  Uiso   1.00
C577   C     0.19097   0.68768   0.46728   0.00000  Uiso   1.00
C578   C     0.14236   0.97899   0.53272   0.00000  Uiso   1.00
C579   C     0.19031   0.97826   0.46750   0.00000  Uiso   1.00
C580   C     0.14302   0.68841   0.53250   0.00000  Uiso   1.00
C581   C     0.16615   0.95745   0.50016   0.00000  Uiso   1.00
C582   C     0.16718   0.70922   0.49984   0.00000  Uiso   1.00
C583   C     0.19934   0.85929   0.36164   0.00000  Uiso   1.00
C584   C     0.13399   0.80737   0.63836   0.00000  Uiso   1.00
C585   C     0.19932   0.85928   0.64704   0.00000  Uiso   1.00
C586   C     0.13401   0.80739   0.35296   0.00000  Uiso   1.00
H587   H     0.32470   0.83338   0.44669   0.00000  Uiso   1.00
H588   H     0.00864   0.83329   0.55331   0.00000  Uiso   1.00
H589   H     0.20927   0.96145   0.44269   0.00000  Uiso   1.00
H590   H     0.12406   0.70521   0.55731   0.00000  Uiso   1.00
N591   N     0.16665   0.83332   0.61907   0.00000  Uiso   1.00
N592   N     0.16668   0.83334   0.38093   0.00000  Uiso   1.00
O593   O     0.16666   0.77225   0.53821   0.00000  Uiso   1.00
O594   O     0.16667   0.89442   0.46179   0.00000  Uiso   1.00
O595   O     0.16666   0.77226   0.46176   0.00000  Uiso   1.00
O596   O     0.16667   0.89441   0.53824   0.00000  Uiso   1.00
O597   O     0.09058   0.83333   0.52928   0.00000  Uiso   1.00
O598   O     0.24275   0.83334   0.47072   0.00000  Uiso   1.00
O599   O     0.09058   0.83334   0.45284   0.00000  Uiso   1.00
O600   O     0.24275   0.83333   0.54716   0.00000  Uiso   1.00
Zn601  Zn    0.16667   0.83333   0.55104   0.00000  Uiso   1.00
Zn602  Zn    0.16667   0.83334   0.44896   0.00000  Uiso   1.00
F603   F     0.21578   0.70780   0.43623   0.00000  Uiso   1.00
F604   F     0.11755   0.95887   0.56377   0.00000  Uiso   1.00
F605   F     0.23212   0.88532   0.38863   0.00000  Uiso   1.00
F606   F     0.10121   0.78134   0.61137   0.00000  Uiso   1.00
F607   F     0.23207   0.88530   0.62875   0.00000  Uiso   1.00
F608   F     0.10126   0.78137   0.37125   0.00000  Uiso   1.00
C609   C     0.50041   0.75335   0.49995   0.00000  Uiso   1.00
C610   C     0.49959   0.91332   0.50005   0.00000  Uiso   1.00
C611   C     0.40038   0.83332   0.48803   0.00000  Uiso   1.00
C612   C     0.59962   0.83335   0.51197   0.00000  Uiso   1.00
C613   C     0.34533   0.83334   0.48160   0.00000  Uiso   1.00
C614   C     0.65467   0.83333   0.51840   0.00000  Uiso   1.00
C615   C     0.52431   0.68768   0.46728   0.00000  Uiso   1.00
C616   C     0.47569   0.97899   0.53272   0.00000  Uiso   1.00
C617   C     0.52364   0.97826   0.46750   0.00000  Uiso   1.00
C618   C     0.47636   0.68841   0.53250   0.00000  Uiso   1.00
C619   C     0.49948   0.95745   0.50016   0.00000  Uiso   1.00
C620   C     0.50052   0.70922   0.49984   0.00000  Uiso   1.00
C621   C     0.53267   0.85929   0.36164   0.00000  Uiso   1.00
C622   C     0.46733   0.80737   0.63836   0.00000  Uiso   1.00
C623   C     0.53265   0.85928   0.64704   0.00000  Uiso   1.00
C624   C     0.46734   0.80739   0.35296   0.00000  Uiso   1.00
H625   H     0.65803   0.83338   0.44669   0.00000  Uiso   1.00
H626   H     0.34197   0.83329   0.55331   0.00000  Uiso   1.00
H627   H     0.54261   0.96145   0.44269   0.00000  Uiso   1.00
H628   H     0.45739   0.70521   0.55731   0.00000  Uiso   1.00
N629   N     0.49999   0.83332   0.61907   0.00000  Uiso   1.00
N630   N     0.50001   0.83334   0.38093   0.00000  Uiso   1.00
O631   O     0.50000   0.77225   0.53821   0.00000  Uiso   1.00
O632   O     0.50000   0.89442   0.46179   0.00000  Uiso   1.00
O633   O     0.50000   0.77226   0.46176   0.00000  Uiso   1.00
O634   O     0.50000   0.89441   0.53824   0.00000  Uiso   1.00
O635   O     0.42392   0.83333   0.52928   0.00000  Uiso   1.00
O636   O     0.57608   0.83334   0.47072   0.00000  Uiso   1.00
O637   O     0.42392   0.83334   0.45284   0.00000  Uiso   1.00
O638   O     0.57608   0.83333   0.54716   0.00000  Uiso   1.00
Zn639  Zn    0.50000   0.83333   0.55104   0.00000  Uiso   1.00
Zn640  Zn    0.50000   0.83334   0.44896   0.00000  Uiso   1.00
F641   F     0.54912   0.70780   0.43623   0.00000  Uiso   1.00
F642   F     0.45088   0.95887   0.56377   0.00000  Uiso   1.00
F643   F     0.56545   0.88532   0.38863   0.00000  Uiso   1.00
F644   F     0.43455   0.78134   0.61137   0.00000  Uiso   1.00
F645   F     0.56540   0.88530   0.62875   0.00000  Uiso   1.00
F646   F     0.43460   0.78137   0.37125   0.00000  Uiso   1.00
C647   C     0.83374   0.75335   0.49995   0.00000  Uiso   1.00
C648   C     0.83293   0.91332   0.50005   0.00000  Uiso   1.00
C649   C     0.73371   0.83332   0.48803   0.00000  Uiso   1.00
C650   C     0.93295   0.83335   0.51197   0.00000  Uiso   1.00
C651   C     0.67866   0.83334   0.48160   0.00000  Uiso   1.00
C652   C     0.98800   0.83333   0.51840   0.00000  Uiso   1.00
C653   C     0.85764   0.68768   0.46728   0.00000  Uiso   1.00
C654   C     0.80903   0.97899   0.53272   0.00000  Uiso   1.00
C655   C     0.85698   0.97826   0.46750   0.00000  Uiso   1.00
C656   C     0.80969   0.68841   0.53250   0.00000  Uiso   1.00
C657   C     0.83282   0.95745   0.50016   0.00000  Uiso   1.00
C658   C     0.83385   0.70922   0.49984   0.00000  Uiso   1.00
C659   C     0.86601   0.85929   0.36164   0.00000  Uiso   1.00
C660   C     0.80066   0.80737   0.63836   0.00000  Uiso   1.00
C661   C     0.86599   0.85928   0.64704   0.00000  Uiso   1.00
C662   C     0.80068   0.80739   0.35296   0.00000  Uiso   1.00
H663   H     0.99136   0.83338   0.44669   0.00000  Uiso   1.00
H664   H     0.67530   0.83329   0.55331   0.00000  Uiso   1.00
H665   H     0.87594   0.96145   0.44269   0.00000  Uiso   1.00
H666   H     0.79073   0.70521   0.55731   0.00000  Uiso   1.00
N667   N     0.83332   0.83332   0.61907   0.00000  Uiso   1.00
N668   N     0.83335   0.83334   0.38093   0.00000  Uiso   1.00
O669   O     0.83333   0.77225   0.53821   0.00000  Uiso   1.00
O670   O     0.83334   0.89442   0.46179   0.00000  Uiso   1.00
O671   O     0.83333   0.77226   0.46176   0.00000  Uiso   1.00
O672   O     0.83334   0.89441   0.53824   0.00000  Uiso   1.00
O673   O     0.75725   0.83333   0.52928   0.00000  Uiso   1.00
O674   O     0.90942   0.83334   0.47072   0.00000  Uiso   1.00
O675   O     0.75725   0.83334   0.45284   0.00000  Uiso   1.00
O676   O     0.90942   0.83333   0.54716   0.00000  Uiso   1.00
Zn677  Zn    0.83333   0.83333   0.55104   0.00000  Uiso   1.00
Zn678  Zn    0.83333   0.83334   0.44896   0.00000  Uiso   1.00
F679   F     0.88245   0.70780   0.43623   0.00000  Uiso   1.00
F680   F     0.78422   0.95887   0.56377   0.00000  Uiso   1.00
F681   F     0.89879   0.88532   0.38863   0.00000  Uiso   1.00
F682   F     0.76788   0.78134   0.61137   0.00000  Uiso   1.00
F683   F     0.89874   0.88530   0.62875   0.00000  Uiso   1.00
F684   F     0.76793   0.78137   0.37125   0.00000  Uiso   1.00
C685   C     0.16707   0.08668   0.83329   0.00000  Uiso   1.00
C686   C     0.16626   0.24665   0.83338   0.00000  Uiso   1.00
C687   C     0.06705   0.16665   0.82136   0.00000  Uiso   1.00
C688   C     0.26629   0.16668   0.84530   0.00000  Uiso   1.00
C689   C     0.01200   0.16667   0.81493   0.00000  Uiso   1.00
C690   C     0.32134   0.16666   0.85173   0.00000  Uiso   1.00
C691   C     0.19097   0.02101   0.80061   0.00000  Uiso   1.00
C692   C     0.14236   0.31232   0.86605   0.00000  Uiso   1.00
C693   C     0.19031   0.31159   0.80083   0.00000  Uiso   1.00
C694   C     0.14302   0.02174   0.86584   0.00000  Uiso   1.00
C695   C     0.16615   0.29078   0.83350   0.00000  Uiso   1.00
C696   C     0.16718   0.04255   0.83317   0.00000  Uiso   1.00
C697   C     0.19934   0.19262   0.69497   0.00000  Uiso   1.00
C698   C     0.13399   0.14071   0.97169   0.00000  Uiso   1.00
C699   C     0.19932   0.19261   0.98037   0.00000  Uiso   1.00
C700   C     0.13401   0.14072   0.68629   0.00000  Uiso   1.00
H701   H     0.32470   0.16671   0.78002   0.00000  Uiso   1.00
H702   H     0.00864   0.16662   0.88664   0.00000  Uiso   1.00
H703   H     0.20927   0.29479   0.77602   0.00000  Uiso   1.00
H704   H     0.12406   0.03855   0.89065   0.00000  Uiso   1.00
N705   N     0.16665   0.16666   0.95240   0.00000  Uiso   1.00
N706   N     0.16668   0.16668   0.71427   0.00000  Uiso   1.00
O707   O     0.16666   0.10558   0.87154   0.00000  Uiso   1.00
O708   O     0.16667   0.22775   0.79513   0.00000  Uiso   1.00
O709   O     0.16666   0.10559   0.79510   0.00000  Uiso   1.00
O710   O     0.16667   0.22774   0.87157   0.00000  Uiso   1.00
O711   O     0.09058   0.16666   0.86261   0.00000  Uiso   1.00
O712   O     0.24275   0.16667   0.80405   0.00000  Uiso   1.00
O713   O     0.09058   0.16667   0.78617   0.00000  Uiso   1.00
O714   O     0.24275   0.16666   0.88050   0.00000  Uiso   1.00
Zn715  Zn    0.16667   0.16666   0.88437   0.00000  Uiso   1.00
Zn716  Zn    0.16667   0.16667   0.78229   0.00000  Uiso   1.00
F717   F     0.21578   0.04113   0.76956   0.00000  Uiso   1.00
F718   F     0.11755   0.29220   0.89711   0.00000  Uiso   1.00
F719   F     0.23212   0.21866   0.72196   0.00000  Uiso   1.00
F720   F     0.10121   0.11468   0.94471   0.00000  Uiso   1.00
F721   F     0.23207   0.21863   0.96208   0.00000  Uiso   1.00
F722   F     0.10126   0.11470   0.70458   0.00000  Uiso   1.00
C723   C     0.50041   0.08668   0.83329   0.00000  Uiso   1.00
C724   C     0.49959   0.24665   0.83338   0.00000  Uiso   1.00
C725   C     0.40038   0.16665   0.82136   0.00000  Uiso   1.00
C726   C     0.59962   0.16668   0.84530   0.00000  Uiso   1.00
C727   C     0.34533   0.16667   0.81493   0.00000  Uiso   1.00
C728   C     0.65467   0.16666   0.85173   0.00000  Uiso   1.00
C729   C     0.52431   0.02101   0.80061   0.00000  Uiso   1.00
C730   C     0.47569   0.31232   0.86605   0.00000  Uiso   1.00
C731   C     0.52364   0.31159   0.80083   0.00000  Uiso   1.00
C732   C     0.47636   0.02174   0.86584   0.00000  Uiso   1.00
C733   C     0.49948   0.29078   0.83350   0.00000  Uiso   1.00
C734   C     0.50052   0.04255   0.83317   0.00000  Uiso   1.00
C735   C     0.53267   0.19262   0.69497   0.00000  Uiso   1.00
C736   C     0.46733   0.14071   0.97169   0.00000  Uiso   1.00
C737   C     0.53265   0.19261   0.98037   0.00000  Uiso   1.00
C738   C     0.46734   0.14072   0.68629   0.00000  Uiso   1.00
H739   H     0.65803   0.16671   0.78002   0.00000  Uiso   1.00
H740   H     0.34197   0.16662   0.88664   0.00000  Uiso   1.00
H741   H     0.54261   0.29479   0.77602   0.00000  Uiso   1.00
H742   H     0.45739   0.03855   0.89065   0.00000  Uiso   1.00
N743   N     0.49999   0.16666   0.95240   0.00000  Uiso   1.00
N744   N     0.50001   0.16668   0.71427   0.00000  Uiso   1.00
O745   O     0.50000   0.10558   0.87154   0.00000  Uiso   1.00
O746   O     0.50000   0.22775   0.79513   0.00000  Uiso   1.00
O747   O     0.50000   0.10559   0.79510   0.00000  Uiso   1.00
O748   O     0.50000   0.22774   0.87157   0.00000  Uiso   1.00
O749   O     0.42392   0.16666   0.86261   0.00000  Uiso   1.00
O750   O     0.57608   0.16667   0.80405   0.00000  Uiso   1.00
O751   O     0.42392   0.16667   0.78617   0.00000  Uiso   1.00
O752   O     0.57608   0.16666   0.88050   0.00000  Uiso   1.00
Zn753  Zn    0.50000   0.16666   0.88437   0.00000  Uiso   1.00
Zn754  Zn    0.50000   0.16667   0.78229   0.00000  Uiso   1.00
F755   F     0.54912   0.04113   0.76956   0.00000  Uiso   1.00
F756   F     0.45088   0.29220   0.89711   0.00000  Uiso   1.00
F757   F     0.56545   0.21866   0.72196   0.00000  Uiso   1.00
F758   F     0.43455   0.11468   0.94471   0.00000  Uiso   1.00
F759   F     0.56540   0.21863   0.96208   0.00000  Uiso   1.00
F760   F     0.43460   0.11470   0.70458   0.00000  Uiso   1.00
C761   C     0.83374   0.08668   0.83329   0.00000  Uiso   1.00
C762   C     0.83293   0.24665   0.83338   0.00000  Uiso   1.00
C763   C     0.73371   0.16665   0.82136   0.00000  Uiso   1.00
C764   C     0.93295   0.16668   0.84530   0.00000  Uiso   1.00
C765   C     0.67866   0.16667   0.81493   0.00000  Uiso   1.00
C766   C     0.98800   0.16666   0.85173   0.00000  Uiso   1.00
C767   C     0.85764   0.02101   0.80061   0.00000  Uiso   1.00
C768   C     0.80903   0.31232   0.86605   0.00000  Uiso   1.00
C769   C     0.85698   0.31159   0.80083   0.00000  Uiso   1.00
C770   C     0.80969   0.02174   0.86584   0.00000  Uiso   1.00
C771   C     0.83282   0.29078   0.83350   0.00000  Uiso   1.00
C772   C     0.83385   0.04255   0.83317   0.00000  Uiso   1.00
C773   C     0.86601   0.19262   0.69497   0.00000  Uiso   1.00
C774   C     0.80066   0.14071   0.97169   0.00000  Uiso   1.00
C775   C     0.86599   0.19261   0.98037   0.00000  Uiso   1.00
C776   C     0.80068   0.14072   0.68629   0.00000  Uiso   1.00
H777   H     0.99136   0.16671   0.78002   0.00000  Uiso   1.00
H778   H     0.67530   0.16662   0.88664   0.00000  Uiso   1.00
H779   H     0.87594   0.29479   0.77602   0.00000  Uiso   1.00
H780   H     0.79073   0.03855   0.89065   0.00000  Uiso   1.00
N781   N     0.83332   0.16666   0.95240   0.00000  Uiso   1.00
N782   N     0.83335   0.16668   0.71427   0.00000  Uiso   1.00
O783   O     0.83333   0.10558   0.87154   0.00000  Uiso   1.00
O784   O     0.83334   0.22775   0.79513   0.00000  Uiso   1.00
O785   O     0.83333   0.10559   0.79510   0.00000  Uiso   1.00
O786   O     0.83334   0.22774   0.87157   0.00000  Uiso   1.00
O787   O     0.75725   0.16666   0.86261   0.00000  Uiso   1.00
O788   O     0.90942   0.16667   0.80405   0.00000  Uiso   1.00
O789   O     0.75725   0.16667   0.78617   0.00000  Uiso   1.00
O790   O     0.90942   0.16666   0.88050   0.00000  Uiso   1.00
Zn791  Zn    0.83333   0.16666   0.88437   0.00000  Uiso   1.00
Zn792  Zn    0.83333   0.16667   0.78229   0.00000  Uiso   1.00
F793   F     0.88245   0.04113   0.76956   0.00000  Uiso   1.00
F794   F     0.78422   0.29220   0.89711   0.00000  Uiso   1.00
F795   F     0.89879   0.21866   0.72196   0.00000  Uiso   1.00
F796   F     0.76788   0.11468   0.94471   0.00000  Uiso   1.00
F797   F     0.89874   0.21863   0.96208   0.00000  Uiso   1.00
F798   F     0.76793   0.11470   0.70458   0.00000  Uiso   1.00
C799   C     0.16707   0.42002   0.83329   0.00000  Uiso   1.00
C800   C     0.16626   0.57998   0.83338   0.00000  Uiso   1.00
C801   C     0.06705   0.49998   0.82136   0.00000  Uiso   1.00
C802   C     0.26629   0.50002   0.84530   0.00000  Uiso   1.00
C803   C     0.01200   0.50001   0.81493   0.00000  Uiso   1.00
C804   C     0.32134   0.49999   0.85173   0.00000  Uiso   1.00
C805   C     0.19097   0.35434   0.80061   0.00000  Uiso   1.00
C806   C     0.14236   0.64566   0.86605   0.00000  Uiso   1.00
C807   C     0.19031   0.64492   0.80083   0.00000  Uiso   1.00
C808   C     0.14302   0.35508   0.86584   0.00000  Uiso   1.00
C809   C     0.16615   0.62412   0.83350   0.00000  Uiso   1.00
C810   C     0.16718   0.37588   0.83317   0.00000  Uiso   1.00
C811   C     0.19934   0.52596   0.69497   0.00000  Uiso   1.00
C812   C     0.13399   0.47404   0.97169   0.00000  Uiso   1.00
C813   C     0.19932   0.52595   0.98037   0.00000  Uiso   1.00
C814   C     0.13401   0.47405   0.68629   0.00000  Uiso   1.00
H815   H     0.32470   0.50005   0.78002   0.00000  Uiso   1.00
H816   H     0.00864   0.49995   0.88664   0.00000  Uiso   1.00
H817   H     0.20927   0.62812   0.77602   0.00000  Uiso   1.00
H818   H     0.12406   0.37188   0.89065   0.00000  Uiso   1.00
N819   N     0.16665   0.49999   0.95240   0.00000  Uiso   1.00
N820   N     0.16668   0.50001   0.71427   0.00000  Uiso   1.00
O821   O     0.16666   0.43892   0.87154   0.00000  Uiso   1.00
O822   O     0.16667   0.56108   0.79513   0.00000  Uiso   1.00
O823   O     0.16666   0.43893   0.79510   0.00000  Uiso   1.00
O824   O     0.16667   0.56107   0.87157   0.00000  Uiso   1.00
O825   O     0.09058   0.50000   0.86261   0.00000  Uiso   1.00
O826   O     0.24275   0.50000   0.80405   0.00000  Uiso   1.00
O827   O     0.09058   0.50000   0.78617   0.00000  Uiso   1.00
O828   O     0.24275   0.50000   0.88050   0.00000  Uiso   1.00
Zn829  Zn    0.16667   0.49999   0.88437   0.00000  Uiso   1.00
Zn830  Zn    0.16667   0.50001   0.78229   0.00000  Uiso   1.00
F831   F     0.21578   0.37447   0.76956   0.00000  Uiso   1.00
F832   F     0.11755   0.62553   0.89711   0.00000  Uiso   1.00
F833   F     0.23212   0.55199   0.72196   0.00000  Uiso   1.00
F834   F     0.10121   0.44801   0.94471   0.00000  Uiso   1.00
F835   F     0.23207   0.55196   0.96208   0.00000  Uiso   1.00
F836   F     0.10126   0.44804   0.70458   0.00000  Uiso   1.00
C837   C     0.50041   0.42002   0.83329   0.00000  Uiso   1.00
C838   C     0.49959   0.57998   0.83338   0.00000  Uiso   1.00
C839   C     0.40038   0.49998   0.82136   0.00000  Uiso   1.00
C840   C     0.59962   0.50002   0.84530   0.00000  Uiso   1.00
C841   C     0.34533   0.50001   0.81493   0.00000  Uiso   1.00
C842   C     0.65467   0.49999   0.85173   0.00000  Uiso   1.00
C843   C     0.52431   0.35434   0.80061   0.00000  Uiso   1.00
C844   C     0.47569   0.64566   0.86605   0.00000  Uiso   1.00
C845   C     0.52364   0.64492   0.80083   0.00000  Uiso   1.00
C846   C     0.47636   0.35508   0.86584   0.00000  Uiso   1.00
C847   C     0.49948   0.62412   0.83350   0.00000  Uiso   1.00
C848   C     0.50052   0.37588   0.83317   0.00000  Uiso   1.00
C849   C     0.53267   0.52596   0.69497   0.00000  Uiso   1.00
C850   C     0.46733   0.47404   0.97169   0.00000  Uiso   1.00
C851   C     0.53265   0.52595   0.98037   0.00000  Uiso   1.00
C852   C     0.46734   0.47405   0.68629   0.00000  Uiso   1.00
H853   H     0.65803   0.50005   0.78002   0.00000  Uiso   1.00
H854   H     0.34197   0.49995   0.88664   0.00000  Uiso   1.00
H855   H     0.54261   0.62812   0.77602   0.00000  Uiso   1.00
H856   H     0.45739   0.37188   0.89065   0.00000  Uiso   1.00
N857   N     0.49999   0.49999   0.95240   0.00000  Uiso   1.00
N858   N     0.50001   0.50001   0.71427   0.00000  Uiso   1.00
O859   O     0.50000   0.43892   0.87154   0.00000  Uiso   1.00
O860   O     0.50000   0.56108   0.79513   0.00000  Uiso   1.00
O861   O     0.50000   0.43893   0.79510   0.00000  Uiso   1.00
O862   O     0.50000   0.56107   0.87157   0.00000  Uiso   1.00
O863   O     0.42392   0.50000   0.86261   0.00000  Uiso   1.00
O864   O     0.57608   0.50000   0.80405   0.00000  Uiso   1.00
O865   O     0.42392   0.50000   0.78617   0.00000  Uiso   1.00
O866   O     0.57608   0.50000   0.88050   0.00000  Uiso   1.00
Zn867  Zn    0.50000   0.49999   0.88437   0.00000  Uiso   1.00
Zn868  Zn    0.50000   0.50001   0.78229   0.00000  Uiso   1.00
F869   F     0.54912   0.37447   0.76956   0.00000  Uiso   1.00
F870   F     0.45088   0.62553   0.89711   0.00000  Uiso   1.00
F871   F     0.56545   0.55199   0.72196   0.00000  Uiso   1.00
F872   F     0.43455   0.44801   0.94471   0.00000  Uiso   1.00
F873   F     0.56540   0.55196   0.96208   0.00000  Uiso   1.00
F874   F     0.43460   0.44804   0.70458   0.00000  Uiso   1.00
C875   C     0.83374   0.42002   0.83329   0.00000  Uiso   1.00
C876   C     0.83293   0.57998   0.83338   0.00000  Uiso   1.00
C877   C     0.73371   0.49998   0.82136   0.00000  Uiso   1.00
C878   C     0.93295   0.50002   0.84530   0.00000  Uiso   1.00
C879   C     0.67866   0.50001   0.81493   0.00000  Uiso   1.00
C880   C     0.98800   0.49999   0.85173   0.00000  Uiso   1.00
C881   C     0.85764   0.35434   0.80061   0.00000  Uiso   1.00
C882   C     0.80903   0.64566   0.86605   0.00000  Uiso   1.00
C883   C     0.85698   0.64492   0.80083   0.00000  Uiso   1.00
C884   C     0.80969   0.35508   0.86584   0.00000  Uiso   1.00
C885   C     0.83282   0.62412   0.83350   0.00000  Uiso   1.00
C886   C     0.83385   0.37588   0.83317   0.00000  Uiso   1.00
C887   C     0.86601   0.52596   0.69497   0.00000  Uiso   1.00
C888   C     0.80066   0.47404   0.97169   0.00000  Uiso   1.00
C889   C     0.86599   0.52595   0.98037   0.00000  Uiso   1.00
C890   C     0.80068   0.47405   0.68629   0.00000  Uiso   1.00
H891   H     0.99136   0.50005   0.78002   0.00000  Uiso   1.00
H892   H     0.67530   0.49995   0.88664   0.00000  Uiso   1.00
H893   H     0.87594   0.62812   0.77602   0.00000  Uiso   1.00
H894   H     0.79073   0.37188   0.89065   0.00000  Uiso   1.00
N895   N     0.83332   0.49999   0.95240   0.00000  Uiso   1.00
N896   N     0.83335   0.50001   0.71427   0.00000  Uiso   1.00
O897   O     0.83333   0.43892   0.87154   0.00000  Uiso   1.00
O898   O     0.83334   0.56108   0.79513   0.00000  Uiso   1.00
O899   O     0.83333   0.43893   0.79510   0.00000  Uiso   1.00
O900   O     0.83334   0.56107   0.87157   0.00000  Uiso   1.00
O901   O     0.75725   0.50000   0.86261   0.00000  Uiso   1.00
O902   O     0.90942   0.50000   0.80405   0.00000  Uiso   1.00
O903   O     0.75725   0.50000   0.78617   0.00000  Uiso   1.00
O904   O     0.90942   0.50000   0.88050   0.00000  Uiso   1.00
Zn905  Zn    0.83333   0.49999   0.88437   0.00000  Uiso   1.00
Zn906  Zn    0.83333   0.50001   0.78229   0.00000  Uiso   1.00
F907   F     0.88245   0.37447   0.76956   0.00000  Uiso   1.00
F908   F     0.78422   0.62553   0.89711   0.00000  Uiso   1.00
F909   F     0.89879   0.55199   0.72196   0.00000  Uiso   1.00
F910   F     0.76788   0.44801   0.94471   0.00000  Uiso   1.00
F911   F     0.89874   0.55196   0.96208   0.00000  Uiso   1.00
F912   F     0.76793   0.44804   0.70458   0.00000  Uiso   1.00
C913   C     0.16707   0.75335   0.83329   0.00000  Uiso   1.00
C914   C     0.16626   0.91332   0.83338   0.00000  Uiso   1.00
C915   C     0.06705   0.83332   0.82136   0.00000  Uiso   1.00
C916   C     0.26629   0.83335   0.84530   0.00000  Uiso   1.00
C917   C     0.01200   0.83334   0.81493   0.00000  Uiso   1.00
C918   C     0.32134   0.83333   0.85173   0.00000  Uiso   1.00
C919   C     0.19097   0.68768   0.80061   0.00000  Uiso   1.00
C920   C     0.14236   0.97899   0.86605   0.00000  Uiso   1.00
C921   C     0.19031   0.97826   0.80083   0.00000  Uiso   1.00
C922   C     0.14302   0.68841   0.86584   0.00000  Uiso   1.00
C923   C     0.16615   0.95745   0.83350   0.00000  Uiso   1.00
C924   C     0.16718   0.70922   0.83317   0.00000  Uiso   1.00
C925   C     0.19934   0.85929   0.69497   0.00000  Uiso   1.00
C926   C     0.13399   0.80737   0.97169   0.00000  Uiso   1.00
C927   C     0.19932   0.85928   0.98037   0.00000  Uiso   1.00
C928   C     0.13401   0.80739   0.68629   0.00000  Uiso   1.00
H929   H     0.32470   0.83338   0.78002   0.00000  Uiso   1.00
H930   H     0.00864   0.83329   0.88664   0.00000  Uiso   1.00
H931   H     0.20927   0.96145   0.77602   0.00000  Uiso   1.00
H932   H     0.12406   0.70521   0.89065   0.00000  Uiso   1.00
N933   N     0.16665   0.83332   0.95240   0.00000  Uiso   1.00
N934   N     0.16668   0.83334   0.71427   0.00000  Uiso   1.00
O935   O     0.16666   0.77225   0.87154   0.00000  Uiso   1.00
O936   O     0.16667   0.89442   0.79513   0.00000  Uiso   1.00
O937   O     0.16666   0.77226   0.79510   0.00000  Uiso   1.00
O938   O     0.16667   0.89441   0.87157   0.00000  Uiso   1.00
O939   O     0.09058   0.83333   0.86261   0.00000  Uiso   1.00
O940   O     0.24275   0.83334   0.80405   0.00000  Uiso   1.00
O941   O     0.09058   0.83334   0.78617   0.00000  Uiso   1.00
O942   O     0.24275   0.83333   0.88050   0.00000  Uiso   1.00
Zn943  Zn    0.16667   0.83333   0.88437   0.00000  Uiso   1.00
Zn944  Zn    0.16667   0.83334   0.78229   0.00000  Uiso   1.00
F945   F     0.21578   0.70780   0.76956   0.00000  Uiso   1.00
F946   F     0.11755   0.95887   0.89711   0.00000  Uiso   1.00
F947   F     0.23212   0.88532   0.72196   0.00000  Uiso   1.00
F948   F     0.10121   0.78134   0.94471   0.00000  Uiso   1.00
F949   F     0.23207   0.88530   0.96208   0.00000  Uiso   1.00
F950   F     0.10126   0.78137   0.70458   0.00000  Uiso   1.00
C951   C     0.50041   0.75335   0.83329   0.00000  Uiso   1.00
C952   C     0.49959   0.91332   0.83338   0.00000  Uiso   1.00
C953   C     0.40038   0.83332   0.82136   0.00000  Uiso   1.00
C954   C     0.59962   0.83335   0.84530   0.00000  Uiso   1.00
C955   C     0.34533   0.83334   0.81493   0.00000  Uiso   1.00
C956   C     0.65467   0.83333   0.85173   0.00000  Uiso   1.00
C957   C     0.52431   0.68768   0.80061   0.00000  Uiso   1.00
C958   C     0.47569   0.97899   0.86605   0.00000  Uiso   1.00
C959   C     0.52364   0.97826   0.80083   0.00000  Uiso   1.00
C960   C     0.47636   0.68841   0.86584   0.00000  Uiso   1.00
C961   C     0.49948   0.95745   0.83350   0.00000  Uiso   1.00
C962   C     0.50052   0.70922   0.83317   0.00000  Uiso   1.00
C963   C     0.53267   0.85929   0.69497   0.00000  Uiso   1.00
C964   C     0.46733   0.80737   0.97169   0.00000  Uiso   1.00
C965   C     0.53265   0.85928   0.98037   0.00000  Uiso   1.00
C966   C     0.46734   0.80739   0.68629   0.00000  Uiso   1.00
H967   H     0.65803   0.83338   0.78002   0.00000  Uiso   1.00
H968   H     0.34197   0.83329   0.88664   0.00000  Uiso   1.00
H969   H     0.54261   0.96145   0.77602   0.00000  Uiso   1.00
H970   H     0.45739   0.70521   0.89065   0.00000  Uiso   1.00
N971   N     0.49999   0.83332   0.95240   0.00000  Uiso   1.00
N972   N     0.50001   0.83334   0.71427   0.00000  Uiso   1.00
O973   O     0.50000   0.77225   0.87154   0.00000  Uiso   1.00
O974   O     0.50000   0.89442   0.79513   0.00000  Uiso   1.00
O975   O     0.50000   0.77226   0.79510   0.00000  Uiso   1.00
O976   O     0.50000   0.89441   0.87157   0.00000  Uiso   1.00
O977   O     0.42392   0.83333   0.86261   0.00000  Uiso   1.00
O978   O     0.57608   0.83334   0.80405   0.00000  Uiso   1.00
O979   O     0.42392   0.83334   0.78617   0.00000  Uiso   1.00
O980   O     0.57608   0.83333   0.88050   0.00000  Uiso   1.00
Zn981  Zn    0.50000   0.83333   0.88437   0.00000  Uiso   1.00
Zn982  Zn    0.50000   0.83334   0.78229   0.00000  Uiso   1.00
F983   F     0.54912   0.70780   0.76956   0.00000  Uiso   1.00
F984   F     0.45088   0.95887   0.89711   0.00000  Uiso   1.00
F985   F     0.56545   0.88532   0.72196   0.00000  Uiso   1.00
F986   F     0.43455   0.78134   0.94471   0.00000  Uiso   1.00
F987   F     0.56540   0.88530   0.96208   0.00000  Uiso   1.00
F988   F     0.43460   0.78137   0.70458   0.00000  Uiso   1.00
C989   C     0.83374   0.75335   0.83329   0.00000  Uiso   1.00
C990   C     0.83293   0.91332   0.83338   0.00000  Uiso   1.00
C991   C     0.73371   0.83332   0.82136   0.00000  Uiso   1.00
C992   C     0.93295   0.83335   0.84530   0.00000  Uiso   1.00
C993   C     0.67866   0.83334   0.81493   0.00000  Uiso   1.00
C994   C     0.98800   0.83333   0.85173   0.00000  Uiso   1.00
C995   C     0.85764   0.68768   0.80061   0.00000  Uiso   1.00
C996   C     0.80903   0.97899   0.86605   0.00000  Uiso   1.00
C997   C     0.85698   0.97826   0.80083   0.00000  Uiso   1.00
C998   C     0.80969   0.68841   0.86584   0.00000  Uiso   1.00
C999   C     0.83282   0.95745   0.83350   0.00000  Uiso   1.00
C1000  C     0.83385   0.70922   0.83317   0.00000  Uiso   1.00
C1001  C     0.86601   0.85929   0.69497   0.00000  Uiso   1.00
C1002  C     0.80066   0.80737   0.97169   0.00000  Uiso   1.00
C1003  C     0.86599   0.85928   0.98037   0.00000  Uiso   1.00
C1004  C     0.80068   0.80739   0.68629   0.00000  Uiso   1.00
H1005  H     0.99136   0.83338   0.78002   0.00000  Uiso   1.00
H1006  H     0.67530   0.83329   0.88664   0.00000  Uiso   1.00
H1007  H     0.87594   0.96145   0.77602   0.00000  Uiso   1.00
H1008  H     0.79073   0.70521   0.89065   0.00000  Uiso   1.00
N1009  N     0.83332   0.83332   0.95240   0.00000  Uiso   1.00
N1010  N     0.83335   0.83334   0.71427   0.00000  Uiso   1.00
O1011  O     0.83333   0.77225   0.87154   0.00000  Uiso   1.00
O1012  O     0.83334   0.89442   0.79513   0.00000  Uiso   1.00
O1013  O     0.83333   0.77226   0.79510   0.00000  Uiso   1.00
O1014  O     0.83334   0.89441   0.87157   0.00000  Uiso   1.00
O1015  O     0.75725   0.83333   0.86261   0.00000  Uiso   1.00
O1016  O     0.90942   0.83334   0.80405   0.00000  Uiso   1.00
O1017  O     0.75725   0.83334   0.78617   0.00000  Uiso   1.00
O1018  O     0.90942   0.83333   0.88050   0.00000  Uiso   1.00
Zn1019 Zn    0.83333   0.83333   0.88437   0.00000  Uiso   1.00
Zn1020 Zn    0.83333   0.83334   0.78229   0.00000  Uiso   1.00
F1021  F     0.88245   0.70780   0.76956   0.00000  Uiso   1.00
F1022  F     0.78422   0.95887   0.89711   0.00000  Uiso   1.00
F1023  F     0.89879   0.88532   0.72196   0.00000  Uiso   1.00
F1024  F     0.76788   0.78134   0.94471   0.00000  Uiso   1.00
F1025  F     0.89874   0.88530   0.96208   0.00000  Uiso   1.00
F1026  F     0.76793   0.78137   0.70458   0.00000  Uiso   1.00
loop_
_geom_bond_atom_site_label_1
_geom_bond_atom_site_label_2
_geom_bond_distance
_geom_bond_site_symmetry_2
_ccdc_geom_bond_type
C1     O25     1.282   .     A
C1     C12     1.416   .     S
C1     O23     1.284   .     A
C2     O24     1.284   .     A
C2     O26     1.282   .     A
C2     C11     1.416   .     S
C3     O27     1.278   .     A
C3     O29     1.281   .     A
C3     C5      1.403   .     S
C4     C6      1.403   .     S
C4     O28     1.278   .     A
C4     O30     1.281   .     A
C5     C82     1.330   1_455 S
C5     H93     1.088   1_455 S
C6     C43     1.330   .     S
C6     H56     1.088   .     S
C7     F33     1.359   .     S
C7     C12     1.399   .     A
C7     C237    1.371   1_545 S
C8     F34     1.359   .     S
C8     C11     1.399   .     A
C8     C124    1.371   .     S
C9     C11     1.396   .     A
C9     H19     1.084   .     S
C9     C121    1.371   .     S
C10    C12     1.396   .     A
C10    H20     1.084   .     S
C10    C236    1.371   1_545 S
C13    F35     1.355   .     S
C13    N22     1.367   .     A
C13    C699    1.418   1_554 S
C14    N21     1.367   .     A
C14    F36     1.355   .     S
C14    C358    1.418   .     S
C15    N21     1.367   .     A
C15    F37     1.355   .     S
C15    C355    1.418   .     S
C16    F38     1.355   .     S
C16    N22     1.367   .     A
C16    C698    1.418   1_554 S
H17    C43     1.088   .     S
H18    C82     1.088   1_455 S
N21    Zn31    2.012   .     S
N22    Zn32    2.012   .     S
O23    Zn31    1.994   .     S
O24    Zn32    1.994   .     S
O25    Zn32    1.996   .     S
O26    Zn31    1.996   .     S
O27    Zn31    1.970   .     S
O28    Zn32    1.970   .     S
O29    Zn32    1.982   .     S
O30    Zn31    1.982   .     S
C39    O63     1.282   .     A
C39    C50     1.416   .     S
C39    O61     1.284   .     A
C40    O62     1.284   .     A
C40    O64     1.282   .     A
C40    C49     1.416   .     S
C41    O65     1.278   .     A
C41    O67     1.281   .     A
C41    C43     1.403   .     S
C42    C44     1.403   .     S
C42    O66     1.278   .     A
C42    O68     1.281   .     A
C44    C81     1.330   .     S
C44    H94     1.088   .     S
C45    F71     1.359   .     S
C45    C50     1.399   .     A
C45    C275    1.371   1_545 S
C46    F72     1.359   .     S
C46    C49     1.399   .     A
C46    C162    1.371   .     S
C47    C49     1.396   .     A
C47    H57     1.084   .     S
C47    C159    1.371   .     S
C48    C50     1.396   .     A
C48    H58     1.084   .     S
C48    C274    1.371   1_545 S
C51    F73     1.355   .     S
C51    N60     1.367   .     A
C51    C737    1.418   1_554 S
C52    N59     1.367   .     A
C52    F74     1.355   .     S
C52    C396    1.418   .     S
C53    N59     1.367   .     A
C53    F75     1.355   .     S
C53    C393    1.418   .     S
C54    F76     1.355   .     S
C54    N60     1.367   .     A
C54    C736    1.418   1_554 S
H55    C81     1.088   .     S
N59    Zn69    2.012   .     S
N60    Zn70    2.012   .     S
O61    Zn69    1.994   .     S
O62    Zn70    1.994   .     S
O63    Zn70    1.996   .     S
O64    Zn69    1.996   .     S
O65    Zn69    1.970   .     S
O66    Zn70    1.970   .     S
O67    Zn70    1.982   .     S
O68    Zn69    1.982   .     S
C77    O101    1.282   .     A
C77    C88     1.416   .     S
C77    O99     1.284   .     A
C78    O100    1.284   .     A
C78    O102    1.282   .     A
C78    C87     1.416   .     S
C79    O103    1.278   .     A
C79    O105    1.281   .     A
C79    C81     1.403   .     S
C80    C82     1.403   .     S
C80    O104    1.278   .     A
C80    O106    1.281   .     A
C82    C5      1.330   1_655 S
C82    H18     1.088   1_655 S
C83    F109    1.359   .     S
C83    C88     1.399   .     A
C83    C313    1.371   1_545 S
C84    F110    1.359   .     S
C84    C87     1.399   .     A
C84    C200    1.371   .     S
C85    C87     1.396   .     A
C85    H95     1.084   .     S
C85    C197    1.371   .     S
C86    C88     1.396   .     A
C86    H96     1.084   .     S
C86    C312    1.371   1_545 S
C89    F111    1.355   .     S
C89    N98     1.367   .     A
C89    C775    1.418   1_554 S
C90    N97     1.367   .     A
C90    F112    1.355   .     S
C90    C434    1.418   .     S
C91    N97     1.367   .     A
C91    F113    1.355   .     S
C91    C431    1.418   .     S
C92    F114    1.355   .     S
C92    N98     1.367   .     A
C92    C774    1.418   1_554 S
H93    C5      1.088   1_655 S
N97    Zn107   2.012   .     S
N98    Zn108   2.012   .     S
O99    Zn107   1.994   .     S
O100   Zn108   1.994   .     S
O101   Zn108   1.996   .     S
O102   Zn107   1.996   .     S
O103   Zn107   1.970   .     S
O104   Zn108   1.970   .     S
O105   Zn108   1.982   .     S
O106   Zn107   1.982   .     S
C115   O139    1.282   .     A
C115   C126    1.416   .     S
C115   O137    1.284   .     A
C116   O138    1.284   .     A
C116   O140    1.282   .     A
C116   C125    1.416   .     S
C117   O141    1.278   .     A
C117   O143    1.281   .     A
C117   C119    1.403   .     S
C118   C120    1.403   .     S
C118   O142    1.278   .     A
C118   O144    1.281   .     A
C119   C196    1.330   1_455 S
C119   H207    1.088   1_455 S
C120   C157    1.330   .     S
C120   H170    1.088   .     S
C121   F147    1.359   .     S
C121   C126    1.399   .     A
C122   F148    1.359   .     S
C122   C125    1.399   .     A
C122   C238    1.371   .     S
C123   C125    1.396   .     A
C123   H133    1.084   .     S
C123   C235    1.371   .     S
C124   C126    1.396   .     A
C124   H134    1.084   .     S
C127   F149    1.355   .     S
C127   N136    1.367   .     A
C127   C813    1.418   1_554 S
C128   N135    1.367   .     A
C128   F150    1.355   .     S
C128   C472    1.418   .     S
C129   N135    1.367   .     A
C129   F151    1.355   .     S
C129   C469    1.418   .     S
C130   F152    1.355   .     S
C130   N136    1.367   .     A
C130   C812    1.418   1_554 S
H131   C157    1.088   .     S
H132   C196    1.088   1_455 S
N135   Zn145   2.012   .     S
N136   Zn146   2.012   .     S
O137   Zn145   1.994   .     S
O138   Zn146   1.994   .     S
O139   Zn146   1.996   .     S
O140   Zn145   1.996   .     S
O141   Zn145   1.970   .     S
O142   Zn146   1.970   .     S
O143   Zn146   1.982   .     S
O144   Zn145   1.982   .     S
C153   O177    1.282   .     A
C153   C164    1.416   .     S
C153   O175    1.284   .     A
C154   O176    1.284   .     A
C154   O178    1.282   .     A
C154   C163    1.416   .     S
C155   O179    1.278   .     A
C155   O181    1.281   .     A
C155   C157    1.403   .     S
C156   C158    1.403   .     S
C156   O180    1.278   .     A
C156   O182    1.281   .     A
C158   C195    1.330   .     S
C158   H208    1.088   .     S
C159   F185    1.359   .     S
C159   C164    1.399   .     A
C160   F186    1.359   .     S
C160   C163    1.399   .     A
C160   C276    1.371   .     S
C161   C163    1.396   .     A
C161   H171    1.084   .     S
C161   C273    1.371   .     S
C162   C164    1.396   .     A
C162   H172    1.084   .     S
C165   F187    1.355   .     S
C165   N174    1.367   .     A
C165   C851    1.418   1_554 S
C166   N173    1.367   .     A
C166   F188    1.355   .     S
C166   C510    1.418   .     S
C167   N173    1.367   .     A
C167   F189    1.355   .     S
C167   C507    1.418   .     S
C168   F190    1.355   .     S
C168   N174    1.367   .     A
C168   C850    1.418   1_554 S
H169   C195    1.088   .     S
N173   Zn183   2.012   .     S
N174   Zn184   2.012   .     S
O175   Zn183   1.994   .     S
O176   Zn184   1.994   .     S
O177   Zn184   1.996   .     S
O178   Zn183   1.996   .     S
O179   Zn183   1.970   .     S
O180   Zn184   1.970   .     S
O181   Zn184   1.982   .     S
O182   Zn183   1.982   .     S
C191   O215    1.282   .     A
C191   C202    1.416   .     S
C191   O213    1.284   .     A
C192   O214    1.284   .     A
C192   O216    1.282   .     A
C192   C201    1.416   .     S
C193   O217    1.278   .     A
C193   O219    1.281   .     A
C193   C195    1.403   .     S
C194   C196    1.403   .     S
C194   O218    1.278   .     A
C194   O220    1.281   .     A
C196   C119    1.330   1_655 S
C196   H132    1.088   1_655 S
C197   F223    1.359   .     S
C197   C202    1.399   .     A
C198   F224    1.359   .     S
C198   C201    1.399   .     A
C198   C314    1.371   .     S
C199   C201    1.396   .     A
C199   H209    1.084   .     S
C199   C311    1.371   .     S
C200   C202    1.396   .     A
C200   H210    1.084   .     S
C203   F225    1.355   .     S
C203   N212    1.367   .     A
C203   C889    1.418   1_554 S
C204   N211    1.367   .     A
C204   F226    1.355   .     S
C204   C548    1.418   .     S
C205   N211    1.367   .     A
C205   F227    1.355   .     S
C205   C545    1.418   .     S
C206   F228    1.355   .     S
C206   N212    1.367   .     A
C206   C888    1.418   1_554 S
H207   C119    1.088   1_655 S
N211   Zn221   2.012   .     S
N212   Zn222   2.012   .     S
O213   Zn221   1.994   .     S
O214   Zn222   1.994   .     S
O215   Zn222   1.996   .     S
O216   Zn221   1.996   .     S
O217   Zn221   1.970   .     S
O218   Zn222   1.970   .     S
O219   Zn222   1.982   .     S
O220   Zn221   1.982   .     S
C229   O253    1.282   .     A
C229   C240    1.416   .     S
C229   O251    1.284   .     A
C230   O252    1.284   .     A
C230   O254    1.282   .     A
C230   C239    1.416   .     S
C231   O255    1.278   .     A
C231   O257    1.281   .     A
C231   C233    1.403   .     S
C232   C234    1.403   .     S
C232   O256    1.278   .     A
C232   O258    1.281   .     A
C233   C310    1.330   1_455 S
C233   H321    1.088   1_455 S
C234   C271    1.330   .     S
C234   H284    1.088   .     S
C235   F261    1.359   .     S
C235   C240    1.399   .     A
C236   F262    1.359   .     S
C236   C239    1.399   .     A
C236   C10     1.371   1_565 S
C237   C239    1.396   .     A
C237   H247    1.084   .     S
C237   C7      1.371   1_565 S
C238   C240    1.396   .     A
C238   H248    1.084   .     S
C241   F263    1.355   .     S
C241   N250    1.367   .     A
C241   C927    1.418   1_554 S
C242   N249    1.367   .     A
C242   F264    1.355   .     S
C242   C586    1.418   .     S
C243   N249    1.367   .     A
C243   F265    1.355   .     S
C243   C583    1.418   .     S
C244   F266    1.355   .     S
C244   N250    1.367   .     A
C244   C926    1.418   1_554 S
H245   C271    1.088   .     S
H246   C310    1.088   1_455 S
N249   Zn259   2.012   .     S
N250   Zn260   2.012   .     S
O251   Zn259   1.994   .     S
O252   Zn260   1.994   .     S
O253   Zn260   1.996   .     S
O254   Zn259   1.996   .     S
O255   Zn259   1.970   .     S
O256   Zn260   1.970   .     S
O257   Zn260   1.982   .     S
O258   Zn259   1.982   .     S
C267   O291    1.282   .     A
C267   C278    1.416   .     S
C267   O289    1.284   .     A
C268   O290    1.284   .     A
C268   O292    1.282   .     A
C268   C277    1.416   .     S
C269   O293    1.278   .     A
C269   O295    1.281   .     A
C269   C271    1.403   .     S
C270   C272    1.403   .     S
C270   O294    1.278   .     A
C270   O296    1.281   .     A
C272   C309    1.330   .     S
C272   H322    1.088   .     S
C273   F299    1.359   .     S
C273   C278    1.399   .     A
C274   F300    1.359   .     S
C274   C277    1.399   .     A
C274   C48     1.371   1_565 S
C275   C277    1.396   .     A
C275   H285    1.084   .     S
C275   C45     1.371   1_565 S
C276   C278    1.396   .     A
C276   H286    1.084   .     S
C279   F301    1.355   .     S
C279   N288    1.367   .     A
C279   C965    1.418   1_554 S
C280   N287    1.367   .     A
C280   F302    1.355   .     S
C280   C624    1.418   .     S
C281   N287    1.367   .     A
C281   F303    1.355   .     S
C281   C621    1.418   .     S
C282   F304    1.355   .     S
C282   N288    1.367   .     A
C282   C964    1.418   1_554 S
H283   C309    1.088   .     S
N287   Zn297   2.012   .     S
N288   Zn298   2.012   .     S
O289   Zn297   1.994   .     S
O290   Zn298   1.994   .     S
O291   Zn298   1.996   .     S
O292   Zn297   1.996   .     S
O293   Zn297   1.970   .     S
O294   Zn298   1.970   .     S
O295   Zn298   1.982   .     S
O296   Zn297   1.982   .     S
C305   O329    1.282   .     A
C305   C316    1.416   .     S
C305   O327    1.284   .     A
C306   O328    1.284   .     A
C306   O330    1.282   .     A
C306   C315    1.416   .     S
C307   O331    1.278   .     A
C307   O333    1.281   .     A
C307   C309    1.403   .     S
C308   C310    1.403   .     S
C308   O332    1.278   .     A
C308   O334    1.281   .     A
C310   C233    1.330   1_655 S
C310   H246    1.088   1_655 S
C311   F337    1.359   .     S
C311   C316    1.399   .     A
C312   F338    1.359   .     S
C312   C315    1.399   .     A
C312   C86     1.371   1_565 S
C313   C315    1.396   .     A
C313   H323    1.084   .     S
C313   C83     1.371   1_565 S
C314   C316    1.396   .     A
C314   H324    1.084   .     S
C317   F339    1.355   .     S
C317   N326    1.367   .     A
C317   C1003   1.418   1_554 S
C318   N325    1.367   .     A
C318   F340    1.355   .     S
C318   C662    1.418   .     S
C319   N325    1.367   .     A
C319   F341    1.355   .     S
C319   C659    1.418   .     S
C320   F342    1.355   .     S
C320   N326    1.367   .     A
C320   C1002   1.418   1_554 S
H321   C233    1.088   1_655 S
N325   Zn335   2.012   .     S
N326   Zn336   2.012   .     S
O327   Zn335   1.994   .     S
O328   Zn336   1.994   .     S
O329   Zn336   1.996   .     S
O330   Zn335   1.996   .     S
O331   Zn335   1.970   .     S
O332   Zn336   1.970   .     S
O333   Zn336   1.982   .     S
O334   Zn335   1.982   .     S
C343   O367    1.282   .     A
C343   C354    1.416   .     S
C343   O365    1.284   .     A
C344   O366    1.284   .     A
C344   O368    1.282   .     A
C344   C353    1.416   .     S
C345   O369    1.278   .     A
C345   O371    1.281   .     A
C345   C347    1.403   .     S
C346   C348    1.403   .     S
C346   O370    1.278   .     A
C346   O372    1.281   .     A
C347   C424    1.330   1_455 S
C347   H435    1.088   1_455 S
C348   C385    1.330   .     S
C348   H398    1.088   .     S
C349   F375    1.359   .     S
C349   C354    1.399   .     A
C349   C579    1.371   1_545 S
C350   F376    1.359   .     S
C350   C353    1.399   .     A
C350   C466    1.371   .     S
C351   C353    1.396   .     A
C351   H361    1.084   .     S
C351   C463    1.371   .     S
C352   C354    1.396   .     A
C352   H362    1.084   .     S
C352   C578    1.371   1_545 S
C355   F377    1.355   .     S
C355   N364    1.367   .     A
C356   N363    1.367   .     A
C356   F378    1.355   .     S
C356   C700    1.418   .     S
C357   N363    1.367   .     A
C357   F379    1.355   .     S
C357   C697    1.418   .     S
C358   F380    1.355   .     S
C358   N364    1.367   .     A
H359   C385    1.088   .     S
H360   C424    1.088   1_455 S
N363   Zn373   2.012   .     S
N364   Zn374   2.012   .     S
O365   Zn373   1.994   .     S
O366   Zn374   1.994   .     S
O367   Zn374   1.996   .     S
O368   Zn373   1.996   .     S
O369   Zn373   1.970   .     S
O370   Zn374   1.970   .     S
O371   Zn374   1.982   .     S
O372   Zn373   1.982   .     S
C381   O405    1.282   .     A
C381   C392    1.416   .     S
C381   O403    1.284   .     A
C382   O404    1.284   .     A
C382   O406    1.282   .     A
C382   C391    1.416   .     S
C383   O407    1.278   .     A
C383   O409    1.281   .     A
C383   C385    1.403   .     S
C384   C386    1.403   .     S
C384   O408    1.278   .     A
C384   O410    1.281   .     A
C386   C423    1.330   .     S
C386   H436    1.088   .     S
C387   F413    1.359   .     S
C387   C392    1.399   .     A
C387   C617    1.371   1_545 S
C388   F414    1.359   .     S
C388   C391    1.399   .     A
C388   C504    1.371   .     S
C389   C391    1.396   .     A
C389   H399    1.084   .     S
C389   C501    1.371   .     S
C390   C392    1.396   .     A
C390   H400    1.084   .     S
C390   C616    1.371   1_545 S
C393   F415    1.355   .     S
C393   N402    1.367   .     A
C394   N401    1.367   .     A
C394   F416    1.355   .     S
C394   C738    1.418   .     S
C395   N401    1.367   .     A
C395   F417    1.355   .     S
C395   C735    1.418   .     S
C396   F418    1.355   .     S
C396   N402    1.367   .     A
H397   C423    1.088   .     S
N401   Zn411   2.012   .     S
N402   Zn412   2.012   .     S
O403   Zn411   1.994   .     S
O404   Zn412   1.994   .     S
O405   Zn412   1.996   .     S
O406   Zn411   1.996   .     S
O407   Zn411   1.970   .     S
O408   Zn412   1.970   .     S
O409   Zn412   1.982   .     S
O410   Zn411   1.982   .     S
C419   O443    1.282   .     A
C419   C430    1.416   .     S
C419   O441    1.284   .     A
C420   O442    1.284   .     A
C420   O444    1.282   .     A
C420   C429    1.416   .     S
C421   O445    1.278   .     A
C421   O447    1.281   .     A
C421   C423    1.403   .     S
C422   C424    1.403   .     S
C422   O446    1.278   .     A
C422   O448    1.281   .     A
C424   C347    1.330   1_655 S
C424   H360    1.088   1_655 S
C425   F451    1.359   .     S
C425   C430    1.399   .     A
C425   C655    1.371   1_545 S
C426   F452    1.359   .     S
C426   C429    1.399   .     A
C426   C542    1.371   .     S
C427   C429    1.396   .     A
C427   H437    1.084   .     S
C427   C539    1.371   .     S
C428   C430    1.396   .     A
C428   H438    1.084   .     S
C428   C654    1.371   1_545 S
C431   F453    1.355   .     S
C431   N440    1.367   .     A
C432   N439    1.367   .     A
C432   F454    1.355   .     S
C432   C776    1.418   .     S
C433   N439    1.367   .     A
C433   F455    1.355   .     S
C433   C773    1.418   .     S
C434   F456    1.355   .     S
C434   N440    1.367   .     A
H435   C347    1.088   1_655 S
N439   Zn449   2.012   .     S
N440   Zn450   2.012   .     S
O441   Zn449   1.994   .     S
O442   Zn450   1.994   .     S
O443   Zn450   1.996   .     S
O444   Zn449   1.996   .     S
O445   Zn449   1.970   .     S
O446   Zn450   1.970   .     S
O447   Zn450   1.982   .     S
O448   Zn449   1.982   .     S
C457   O481    1.282   .     A
C457   C468    1.416   .     S
C457   O479    1.284   .     A
C458   O480    1.284   .     A
C458   O482    1.282   .     A
C458   C467    1.416   .     S
C459   O483    1.278   .     A
C459   O485    1.281   .     A
C459   C461    1.403   .     S
C460   C462    1.403   .     S
C460   O484    1.278   .     A
C460   O486    1.281   .     A
C461   C538    1.330   1_455 S
C461   H549    1.088   1_455 S
C462   C499    1.330   .     S
C462   H512    1.088   .     S
C463   F489    1.359   .     S
C463   C468    1.399   .     A
C464   F490    1.359   .     S
C464   C467    1.399   .     A
C464   C580    1.371   .     S
C465   C467    1.396   .     A
C465   H475    1.084   .     S
C465   C577    1.371   .     S
C466   C468    1.396   .     A
C466   H476    1.084   .     S
C469   F491    1.355   .     S
C469   N478    1.367   .     A
C470   N477    1.367   .     A
C470   F492    1.355   .     S
C470   C814    1.418   .     S
C471   N477    1.367   .     A
C471   F493    1.355   .     S
C471   C811    1.418   .     S
C472   F494    1.355   .     S
C472   N478    1.367   .     A
H473   C499    1.088   .     S
H474   C538    1.088   1_455 S
N477   Zn487   2.012   .     S
N478   Zn488   2.012   .     S
O479   Zn487   1.994   .     S
O480   Zn488   1.994   .     S
O481   Zn488   1.996   .     S
O482   Zn487   1.996   .     S
O483   Zn487   1.970   .     S
O484   Zn488   1.970   .     S
O485   Zn488   1.982   .     S
O486   Zn487   1.982   .     S
C495   O519    1.282   .     A
C495   C506    1.416   .     S
C495   O517    1.284   .     A
C496   O518    1.284   .     A
C496   O520    1.282   .     A
C496   C505    1.416   .     S
C497   O521    1.278   .     A
C497   O523    1.281   .     A
C497   C499    1.403   .     S
C498   C500    1.403   .     S
C498   O522    1.278   .     A
C498   O524    1.281   .     A
C500   C537    1.330   .     S
C500   H550    1.088   .     S
C501   F527    1.359   .     S
C501   C506    1.399   .     A
C502   F528    1.359   .     S
C502   C505    1.399   .     A
C502   C618    1.371   .     S
C503   C505    1.396   .     A
C503   H513    1.084   .     S
C503   C615    1.371   .     S
C504   C506    1.396   .     A
C504   H514    1.084   .     S
C507   F529    1.355   .     S
C507   N516    1.367   .     A
C508   N515    1.367   .     A
C508   F530    1.355   .     S
C508   C852    1.418   .     S
C509   N515    1.367   .     A
C509   F531    1.355   .     S
C509   C849    1.418   .     S
C510   F532    1.355   .     S
C510   N516    1.367   .     A
H511   C537    1.088   .     S
N515   Zn525   2.012   .     S
N516   Zn526   2.012   .     S
O517   Zn525   1.994   .     S
O518   Zn526   1.994   .     S
O519   Zn526   1.996   .     S
O520   Zn525   1.996   .     S
O521   Zn525   1.970   .     S
O522   Zn526   1.970   .     S
O523   Zn526   1.982   .     S
O524   Zn525   1.982   .     S
C533   O557    1.282   .     A
C533   C544    1.416   .     S
C533   O555    1.284   .     A
C534   O556    1.284   .     A
C534   O558    1.282   .     A
C534   C543    1.416   .     S
C535   O559    1.278   .     A
C535   O561    1.281   .     A
C535   C537    1.403   .     S
C536   C538    1.403   .     S
C536   O560    1.278   .     A
C536   O562    1.281   .     A
C538   C461    1.330   1_655 S
C538   H474    1.088   1_655 S
C539   F565    1.359   .     S
C539   C544    1.399   .     A
C540   F566    1.359   .     S
C540   C543    1.399   .     A
C540   C656    1.371   .     S
C541   C543    1.396   .     A
C541   H551    1.084   .     S
C541   C653    1.371   .     S
C542   C544    1.396   .     A
C542   H552    1.084   .     S
C545   F567    1.355   .     S
C545   N554    1.367   .     A
C546   N553    1.367   .     A
C546   F568    1.355   .     S
C546   C890    1.418   .     S
C547   N553    1.367   .     A
C547   F569    1.355   .     S
C547   C887    1.418   .     S
C548   F570    1.355   .     S
C548   N554    1.367   .     A
H549   C461    1.088   1_655 S
N553   Zn563   2.012   .     S
N554   Zn564   2.012   .     S
O555   Zn563   1.994   .     S
O556   Zn564   1.994   .     S
O557   Zn564   1.996   .     S
O558   Zn563   1.996   .     S
O559   Zn563   1.970   .     S
O560   Zn564   1.970   .     S
O561   Zn564   1.982   .     S
O562   Zn563   1.982   .     S
C571   O595    1.282   .     A
C571   C582    1.416   .     S
C571   O593    1.284   .     A
C572   O594    1.284   .     A
C572   O596    1.282   .     A
C572   C581    1.416   .     S
C573   O597    1.278   .     A
C573   O599    1.281   .     A
C573   C575    1.403   .     S
C574   C576    1.403   .     S
C574   O598    1.278   .     A
C574   O600    1.281   .     A
C575   C652    1.330   1_455 S
C575   H663    1.088   1_455 S
C576   C613    1.330   .     S
C576   H626    1.088   .     S
C577   F603    1.359   .     S
C577   C582    1.399   .     A
C578   F604    1.359   .     S
C578   C581    1.399   .     A
C578   C352    1.371   1_565 S
C579   C581    1.396   .     A
C579   H589    1.084   .     S
C579   C349    1.371   1_565 S
C580   C582    1.396   .     A
C580   H590    1.084   .     S
C583   F605    1.355   .     S
C583   N592    1.367   .     A
C584   N591    1.367   .     A
C584   F606    1.355   .     S
C584   C928    1.418   .     S
C585   N591    1.367   .     A
C585   F607    1.355   .     S
C585   C925    1.418   .     S
C586   F608    1.355   .     S
C586   N592    1.367   .     A
H587   C613    1.088   .     S
H588   C652    1.088   1_455 S
N591   Zn601   2.012   .     S
N592   Zn602   2.012   .     S
O593   Zn601   1.994   .     S
O594   Zn602   1.994   .     S
O595   Zn602   1.996   .     S
O596   Zn601   1.996   .     S
O597   Zn601   1.970   .     S
O598   Zn602   1.970   .     S
O599   Zn602   1.982   .     S
O600   Zn601   1.982   .     S
C609   O633    1.282   .     A
C609   C620    1.416   .     S
C609   O631    1.284   .     A
C610   O632    1.284   .     A
C610   O634    1.282   .     A
C610   C619    1.416   .     S
C611   O635    1.278   .     A
C611   O637    1.281   .     A
C611   C613    1.403   .     S
C612   C614    1.403   .     S
C612   O636    1.278   .     A
C612   O638    1.281   .     A
C614   C651    1.330   .     S
C614   H664    1.088   .     S
C615   F641    1.359   .     S
C615   C620    1.399   .     A
C616   F642    1.359   .     S
C616   C619    1.399   .     A
C616   C390    1.371   1_565 S
C617   C619    1.396   .     A
C617   H627    1.084   .     S
C617   C387    1.371   1_565 S
C618   C620    1.396   .     A
C618   H628    1.084   .     S
C621   F643    1.355   .     S
C621   N630    1.367   .     A
C622   N629    1.367   .     A
C622   F644    1.355   .     S
C622   C966    1.418   .     S
C623   N629    1.367   .     A
C623   F645    1.355   .     S
C623   C963    1.418   .     S
C624   F646    1.355   .     S
C624   N630    1.367   .     A
H625   C651    1.088   .     S
N629   Zn639   2.012   .     S
N630   Zn640   2.012   .     S
O631   Zn639   1.994   .     S
O632   Zn640   1.994   .     S
O633   Zn640   1.996   .     S
O634   Zn639   1.996   .     S
O635   Zn639   1.970   .     S
O636   Zn640   1.970   .     S
O637   Zn640   1.982   .     S
O638   Zn639   1.982   .     S
C647   O671    1.282   .     A
C647   C658    1.416   .     S
C647   O669    1.284   .     A
C648   O670    1.284   .     A
C648   O672    1.282   .     A
C648   C657    1.416   .     S
C649   O673    1.278   .     A
C649   O675    1.281   .     A
C649   C651    1.403   .     S
C650   C652    1.403   .     S
C650   O674    1.278   .     A
C650   O676    1.281   .     A
C652   C575    1.330   1_655 S
C652   H588    1.088   1_655 S
C653   F679    1.359   .     S
C653   C658    1.399   .     A
C654   F680    1.359   .     S
C654   C657    1.399   .     A
C654   C428    1.371   1_565 S
C655   C657    1.396   .     A
C655   H665    1.084   .     S
C655   C425    1.371   1_565 S
C656   C658    1.396   .     A
C656   H666    1.084   .     S
C659   F681    1.355   .     S
C659   N668    1.367   .     A
C660   N667    1.367   .     A
C660   F682    1.355   .     S
C660   C1004   1.418   .     S
C661   N667    1.367   .     A
C661   F683    1.355   .     S
C661   C1001   1.418   .     S
C662   F684    1.355   .     S
C662   N668    1.367   .     A
H663   C575    1.088   1_655 S
N667   Zn677   2.012   .     S
N668   Zn678   2.012   .     S
O669   Zn677   1.994   .     S
O670   Zn678   1.994   .     S
O671   Zn678   1.996   .     S
O672   Zn677   1.996   .     S
O673   Zn677   1.970   .     S
O674   Zn678   1.970   .     S
O675   Zn678   1.982   .     S
O676   Zn677   1.982   .     S
C685   O709    1.282   .     A
C685   C696    1.416   .     S
C685   O707    1.284   .     A
C686   O708    1.284   .     A
C686   O710    1.282   .     A
C686   C695    1.416   .     S
C687   O711    1.278   .     A
C687   O713    1.281   .     A
C687   C689    1.403   .     S
C688   C690    1.403   .     S
C688   O712    1.278   .     A
C688   O714    1.281   .     A
C689   C766    1.330   1_455 S
C689   H777    1.088   1_455 S
C690   C727    1.330   .     S
C690   H740    1.088   .     S
C691   F717    1.359   .     S
C691   C696    1.399   .     A
C691   C921    1.371   1_545 S
C692   F718    1.359   .     S
C692   C695    1.399   .     A
C692   C808    1.371   .     S
C693   C695    1.396   .     A
C693   H703    1.084   .     S
C693   C805    1.371   .     S
C694   C696    1.396   .     A
C694   H704    1.084   .     S
C694   C920    1.371   1_545 S
C697   F719    1.355   .     S
C697   N706    1.367   .     A
C698   N705    1.367   .     A
C698   F720    1.355   .     S
C698   C16     1.418   1_556 S
C699   N705    1.367   .     A
C699   F721    1.355   .     S
C699   C13     1.418   1_556 S
C700   F722    1.355   .     S
C700   N706    1.367   .     A
H701   C727    1.088   .     S
H702   C766    1.088   1_455 S
N705   Zn715   2.012   .     S
N706   Zn716   2.012   .     S
O707   Zn715   1.994   .     S
O708   Zn716   1.994   .     S
O709   Zn716   1.996   .     S
O710   Zn715   1.996   .     S
O711   Zn715   1.970   .     S
O712   Zn716   1.970   .     S
O713   Zn716   1.982   .     S
O714   Zn715   1.982   .     S
C723   O747    1.282   .     A
C723   C734    1.416   .     S
C723   O745    1.284   .     A
C724   O746    1.284   .     A
C724   O748    1.282   .     A
C724   C733    1.416   .     S
C725   O749    1.278   .     A
C725   O751    1.281   .     A
C725   C727    1.403   .     S
C726   C728    1.403   .     S
C726   O750    1.278   .     A
C726   O752    1.281   .     A
C728   C765    1.330   .     S
C728   H778    1.088   .     S
C729   F755    1.359   .     S
C729   C734    1.399   .     A
C729   C959    1.371   1_545 S
C730   F756    1.359   .     S
C730   C733    1.399   .     A
C730   C846    1.371   .     S
C731   C733    1.396   .     A
C731   H741    1.084   .     S
C731   C843    1.371   .     S
C732   C734    1.396   .     A
C732   H742    1.084   .     S
C732   C958    1.371   1_545 S
C735   F757    1.355   .     S
C735   N744    1.367   .     A
C736   N743    1.367   .     A
C736   F758    1.355   .     S
C736   C54     1.418   1_556 S
C737   N743    1.367   .     A
C737   F759    1.355   .     S
C737   C51     1.418   1_556 S
C738   F760    1.355   .     S
C738   N744    1.367   .     A
H739   C765    1.088   .     S
N743   Zn753   2.012   .     S
N744   Zn754   2.012   .     S
O745   Zn753   1.994   .     S
O746   Zn754   1.994   .     S
O747   Zn754   1.996   .     S
O748   Zn753   1.996   .     S
O749   Zn753   1.970   .     S
O750   Zn754   1.970   .     S
O751   Zn754   1.982   .     S
O752   Zn753   1.982   .     S
C761   O785    1.282   .     A
C761   C772    1.416   .     S
C761   O783    1.284   .     A
C762   O784    1.284   .     A
C762   O786    1.282   .     A
C762   C771    1.416   .     S
C763   O787    1.278   .     A
C763   O789    1.281   .     A
C763   C765    1.403   .     S
C764   C766    1.403   .     S
C764   O788    1.278   .     A
C764   O790    1.281   .     A
C766   C689    1.330   1_655 S
C766   H702    1.088   1_655 S
C767   F793    1.359   .     S
C767   C772    1.399   .     A
C767   C997    1.371   1_545 S
C768   F794    1.359   .     S
C768   C771    1.399   .     A
C768   C884    1.371   .     S
C769   C771    1.396   .     A
C769   H779    1.084   .     S
C769   C881    1.371   .     S
C770   C772    1.396   .     A
C770   H780    1.084   .     S
C770   C996    1.371   1_545 S
C773   F795    1.355   .     S
C773   N782    1.367   .     A
C774   N781    1.367   .     A
C774   F796    1.355   .     S
C774   C92     1.418   1_556 S
C775   N781    1.367   .     A
C775   F797    1.355   .     S
C775   C89     1.418   1_556 S
C776   F798    1.355   .     S
C776   N782    1.367   .     A
H777   C689    1.088   1_655 S
N781   Zn791   2.012   .     S
N782   Zn792   2.012   .     S
O783   Zn791   1.994   .     S
O784   Zn792   1.994   .     S
O785   Zn792   1.996   .     S
O786   Zn791   1.996   .     S
O787   Zn791   1.970   .     S
O788   Zn792   1.970   .     S
O789   Zn792   1.982   .     S
O790   Zn791   1.982   .     S
C799   O823    1.282   .     A
C799   C810    1.416   .     S
C799   O821    1.284   .     A
C800   O822    1.284   .     A
C800   O824    1.282   .     A
C800   C809    1.416   .     S
C801   O825    1.278   .     A
C801   O827    1.281   .     A
C801   C803    1.403   .     S
C802   C804    1.403   .     S
C802   O826    1.278   .     A
C802   O828    1.281   .     A
C803   C880    1.330   1_455 S
C803   H891    1.088   1_455 S
C804   C841    1.330   .     S
C804   H854    1.088   .     S
C805   F831    1.359   .     S
C805   C810    1.399   .     A
C806   F832    1.359   .     S
C806   C809    1.399   .     A
C806   C922    1.371   .     S
C807   C809    1.396   .     A
C807   H817    1.084   .     S
C807   C919    1.371   .     S
C808   C810    1.396   .     A
C808   H818    1.084   .     S
C811   F833    1.355   .     S
C811   N820    1.367   .     A
C812   N819    1.367   .     A
C812   F834    1.355   .     S
C812   C130    1.418   1_556 S
C813   N819    1.367   .     A
C813   F835    1.355   .     S
C813   C127    1.418   1_556 S
C814   F836    1.355   .     S
C814   N820    1.367   .     A
H815   C841    1.088   .     S
H816   C880    1.088   1_455 S
N819   Zn829   2.012   .     S
N820   Zn830   2.012   .     S
O821   Zn829   1.994   .     S
O822   Zn830   1.994   .     S
O823   Zn830   1.996   .     S
O824   Zn829   1.996   .     S
O825   Zn829   1.970   .     S
O826   Zn830   1.970   .     S
O827   Zn830   1.982   .     S
O828   Zn829   1.982   .     S
C837   O861    1.282   .     A
C837   C848    1.416   .     S
C837   O859    1.284   .     A
C838   O860    1.284   .     A
C838   O862    1.282   .     A
C838   C847    1.416   .     S
C839   O863    1.278   .     A
C839   O865    1.281   .     A
C839   C841    1.403   .     S
C840   C842    1.403   .     S
C840   O864    1.278   .     A
C840   O866    1.281   .     A
C842   C879    1.330   .     S
C842   H892    1.088   .     S
C843   F869    1.359   .     S
C843   C848    1.399   .     A
C844   F870    1.359   .     S
C844   C847    1.399   .     A
C844   C960    1.371   .     S
C845   C847    1.396   .     A
C845   H855    1.084   .     S
C845   C957    1.371   .     S
C846   C848    1.396   .     A
C846   H856    1.084   .     S
C849   F871    1.355   .     S
C849   N858    1.367   .     A
C850   N857    1.367   .     A
C850   F872    1.355   .     S
C850   C168    1.418   1_556 S
C851   N857    1.367   .     A
C851   F873    1.355   .     S
C851   C165    1.418   1_556 S
C852   F874    1.355   .     S
C852   N858    1.367   .     A
H853   C879    1.088   .     S
N857   Zn867   2.012   .     S
N858   Zn868   2.012   .     S
O859   Zn867   1.994   .     S
O860   Zn868   1.994   .     S
O861   Zn868   1.996   .     S
O862   Zn867   1.996   .     S
O863   Zn867   1.970   .     S
O864   Zn868   1.970   .     S
O865   Zn868   1.982   .     S
O866   Zn867   1.982   .     S
C875   O899    1.282   .     A
C875   C886    1.416   .     S
C875   O897    1.284   .     A
C876   O898    1.284   .     A
C876   O900    1.282   .     A
C876   C885    1.416   .     S
C877   O901    1.278   .     A
C877   O903    1.281   .     A
C877   C879    1.403   .     S
C878   C880    1.403   .     S
C878   O902    1.278   .     A
C878   O904    1.281   .     A
C880   C803    1.330   1_655 S
C880   H816    1.088   1_655 S
C881   F907    1.359   .     S
C881   C886    1.399   .     A
C882   F908    1.359   .     S
C882   C885    1.399   .     A
C882   C998    1.371   .     S
C883   C885    1.396   .     A
C883   H893    1.084   .     S
C883   C995    1.371   .     S
C884   C886    1.396   .     A
C884   H894    1.084   .     S
C887   F909    1.355   .     S
C887   N896    1.367   .     A
C888   N895    1.367   .     A
C888   F910    1.355   .     S
C888   C206    1.418   1_556 S
C889   N895    1.367   .     A
C889   F911    1.355   .     S
C889   C203    1.418   1_556 S
C890   F912    1.355   .     S
C890   N896    1.367   .     A
H891   C803    1.088   1_655 S
N895   Zn905   2.012   .     S
N896   Zn906   2.012   .     S
O897   Zn905   1.994   .     S
O898   Zn906   1.994   .     S
O899   Zn906   1.996   .     S
O900   Zn905   1.996   .     S
O901   Zn905   1.970   .     S
O902   Zn906   1.970   .     S
O903   Zn906   1.982   .     S
O904   Zn905   1.982   .     S
C913   O937    1.282   .     A
C913   C924    1.416   .     S
C913   O935    1.284   .     A
C914   O936    1.284   .     A
C914   O938    1.282   .     A
C914   C923    1.416   .     S
C915   O939    1.278   .     A
C915   O941    1.281   .     A
C915   C917    1.403   .     S
C916   C918    1.403   .     S
C916   O940    1.278   .     A
C916   O942    1.281   .     A
C917   C994    1.330   1_455 S
C917   H1005   1.088   1_455 S
C918   C955    1.330   .     S
C918   H968    1.088   .     S
C919   F945    1.359   .     S
C919   C924    1.399   .     A
C920   F946    1.359   .     S
C920   C923    1.399   .     A
C920   C694    1.371   1_565 S
C921   C923    1.396   .     A
C921   H931    1.084   .     S
C921   C691    1.371   1_565 S
C922   C924    1.396   .     A
C922   H932    1.084   .     S
C925   F947    1.355   .     S
C925   N934    1.367   .     A
C926   N933    1.367   .     A
C926   F948    1.355   .     S
C926   C244    1.418   1_556 S
C927   N933    1.367   .     A
C927   F949    1.355   .     S
C927   C241    1.418   1_556 S
C928   F950    1.355   .     S
C928   N934    1.367   .     A
H929   C955    1.088   .     S
H930   C994    1.088   1_455 S
N933   Zn943   2.012   .     S
N934   Zn944   2.012   .     S
O935   Zn943   1.994   .     S
O936   Zn944   1.994   .     S
O937   Zn944   1.996   .     S
O938   Zn943   1.996   .     S
O939   Zn943   1.970   .     S
O940   Zn944   1.970   .     S
O941   Zn944   1.982   .     S
O942   Zn943   1.982   .     S
C951   O975    1.282   .     A
C951   C962    1.416   .     S
C951   O973    1.284   .     A
C952   O974    1.284   .     A
C952   O976    1.282   .     A
C952   C961    1.416   .     S
C953   O977    1.278   .     A
C953   O979    1.281   .     A
C953   C955    1.403   .     S
C954   C956    1.403   .     S
C954   O978    1.278   .     A
C954   O980    1.281   .     A
C956   C993    1.330   .     S
C956   H1006   1.088   .     S
C957   F983    1.359   .     S
C957   C962    1.399   .     A
C958   F984    1.359   .     S
C958   C961    1.399   .     A
C958   C732    1.371   1_565 S
C959   C961    1.396   .     A
C959   H969    1.084   .     S
C959   C729    1.371   1_565 S
C960   C962    1.396   .     A
C960   H970    1.084   .     S
C963   F985    1.355   .     S
C963   N972    1.367   .     A
C964   N971    1.367   .     A
C964   F986    1.355   .     S
C964   C282    1.418   1_556 S
C965   N971    1.367   .     A
C965   F987    1.355   .     S
C965   C279    1.418   1_556 S
C966   F988    1.355   .     S
C966   N972    1.367   .     A
H967   C993    1.088   .     S
N971   Zn981   2.012   .     S
N972   Zn982   2.012   .     S
O973   Zn981   1.994   .     S
O974   Zn982   1.994   .     S
O975   Zn982   1.996   .     S
O976   Zn981   1.996   .     S
O977   Zn981   1.970   .     S
O978   Zn982   1.970   .     S
O979   Zn982   1.982   .     S
O980   Zn981   1.982   .     S
C989   O1013   1.282   .     A
C989   C1000   1.416   .     S
C989   O1011   1.284   .     A
C990   O1012   1.284   .     A
C990   O1014   1.282   .     A
C990   C999    1.416   .     S
C991   O1015   1.278   .     A
C991   O1017   1.281   .     A
C991   C993    1.403   .     S
C992   C994    1.403   .     S
C992   O1016   1.278   .     A
C992   O1018   1.281   .     A
C994   C917    1.330   1_655 S
C994   H930    1.088   1_655 S
C995   F1021   1.359   .     S
C995   C1000   1.399   .     A
C996   F1022   1.359   .     S
C996   C999    1.399   .     A
C996   C770    1.371   1_565 S
C997   C999    1.396   .     A
C997   H1007   1.084   .     S
C997   C767    1.371   1_565 S
C998   C1000   1.396   .     A
C998   H1008   1.084   .     S
C1001  F1023   1.355   .     S
C1001  N1010   1.367   .     A
C1002  N1009   1.367   .     A
C1002  F1024   1.355   .     S
C1002  C320    1.418   1_556 S
C1003  N1009   1.367   .     A
C1003  F1025   1.355   .     S
C1003  C317    1.418   1_556 S
C1004  F1026   1.355   .     S
C1004  N1010   1.367   .     A
H1005  C917    1.088   1_655 S
N1009  Zn1019  2.012   .     S
N1010  Zn1020  2.012   .     S
O1011  Zn1019  1.994   .     S
O1012  Zn1020  1.994   .     S
O1013  Zn1020  1.996   .     S
O1014  Zn1019  1.996   .     S
O1015  Zn1019  1.970   .     S
O1016  Zn1020  1.970   .     S
O1017  Zn1020  1.982   .     S
O1018  Zn1019  1.982   .     S
