data_str_m3_o1_o16_pcu_sym.109
_audit_creation_date              2020-01-03
_audit_creation_method            'Materials Studio'
_symmetry_space_group_name_H-M    'P1'
_symmetry_Int_Tables_number       1
_symmetry_cell_setting            triclinic
loop_
_symmetry_equiv_pos_as_xyz
  x,y,z
_cell_length_a                    29.6264
_cell_length_b                    32.1638
_cell_length_c                    26.3544
_cell_angle_alpha                 89.9915
_cell_angle_beta                  69.6201
_cell_angle_gamma                 89.4191
loop_
_atom_site_label
_atom_site_type_symbol
_atom_site_fract_x
_atom_site_fract_y
_atom_site_fract_z
_atom_site_U_iso_or_equiv
_atom_site_adp_type
_atom_site_occupancy
C1     C     0.16658   0.24667   0.24981   0.00000  Uiso   1.00
C2     C     0.15125   0.17971   0.48597   0.00000  Uiso   1.00
C3     C     0.15520   0.15720   0.43838   0.00000  Uiso   1.00
C4     C     0.18652   0.17169   0.00992   0.00000  Uiso   1.00
C5     C     0.22998   0.15059   0.48050   0.00000  Uiso   1.00
C6     C     0.23345   0.12935   0.43341   0.00000  Uiso   1.00
C7     C     0.19361   0.12784   0.41679   0.00000  Uiso   1.00
C8     C     0.17658   0.17822   0.06485   0.00000  Uiso   1.00
C9     C     0.25664   0.15506   0.05723   0.00000  Uiso   1.00
C10    C     0.12276   0.16686   0.41137   0.00000  Uiso   1.00
C11    C     0.20494   0.31164   0.25683   0.00000  Uiso   1.00
C12    C     0.13987   0.16531   0.35220   0.00000  Uiso   1.00
C13    C     0.20533   0.02082   0.25610   0.00000  Uiso   1.00
C14    C     0.16751   0.04245   0.24772   0.00000  Uiso   1.00
C15    C     0.12958   0.02164   0.23903   0.00000  Uiso   1.00
C16    C     0.12920   0.31235   0.23965   0.00000  Uiso   1.00
C17    C     0.16677   0.29081   0.24887   0.00000  Uiso   1.00
C18    C     0.31811   0.13505   0.22537   0.00000  Uiso   1.00
C19    C     0.03237   0.13536   0.22588   0.00000  Uiso   1.00
C20    C     0.01584   0.19787   0.27479   0.00000  Uiso   1.00
C21    C     0.30128   0.19784   0.27485   0.00000  Uiso   1.00
C22    C     0.16704   0.08665   0.24913   0.00000  Uiso   1.00
C23    C     0.19346   0.16762   0.14786   0.00000  Uiso   1.00
C24    C     0.26632   0.14554   0.00287   0.00000  Uiso   1.00
C25    C     0.21028   0.16833   0.08903   0.00000  Uiso   1.00
C26    C     0.08022   0.18888   0.43818   0.00000  Uiso   1.00
C27    C     0.07467   0.20926   0.48633   0.00000  Uiso   1.00
C28    C     0.11198   0.20865   0.00753   0.00000  Uiso   1.00
H29    H     0.28371   0.14848   0.07509   0.00000  Uiso   1.00
H30    H     0.23458   0.03656   0.26322   0.00000  Uiso   1.00
H31    H     0.10026   0.03815   0.23198   0.00000  Uiso   1.00
H32    H     0.02742   0.22288   0.29466   0.00000  Uiso   1.00
H33    H     0.27678   0.22278   0.29481   0.00000  Uiso   1.00
H34    H     0.26444   0.10933   0.41434   0.00000  Uiso   1.00
H35    H     0.30050   0.13098   0.47985   0.00000  Uiso   1.00
H36    H     0.14056   0.18698   0.09036   0.00000  Uiso   1.00
N37    N     0.04760   0.16668   0.25001   0.00000  Uiso   1.00
N38    N     0.28573   0.16665   0.25000   0.00000  Uiso   1.00
O39    O     0.12846   0.22775   0.25000   0.00000  Uiso   1.00
O40    O     0.20490   0.22774   0.25000   0.00000  Uiso   1.00
O41    O     0.10947   0.16666   0.32681   0.00000  Uiso   1.00
O42    O     0.18591   0.16665   0.32681   0.00000  Uiso   1.00
O43    O     0.12843   0.10559   0.24999   0.00000  Uiso   1.00
O44    O     0.20488   0.10558   0.24999   0.00000  Uiso   1.00
O45    O     0.14742   0.16668   0.17319   0.00000  Uiso   1.00
O46    O     0.22387   0.16667   0.17319   0.00000  Uiso   1.00
Zn47   Zn    0.11562   0.16667   0.25000   0.00000  Uiso   1.00
Zn48   Zn    0.21771   0.16666   0.25000   0.00000  Uiso   1.00
H49    H     0.09973   0.29640   0.23290   0.00000  Uiso   1.00
C50    C     0.30568   0.09959   0.19747   0.00000  Uiso   1.00
O51    O     0.31725   0.06436   0.20594   0.00000  Uiso   1.00
O52    O     0.28466   0.10606   0.15835   0.00000  Uiso   1.00
H53    H     0.27883   0.07917   0.14163   0.00000  Uiso   1.00
H54    H     0.05757   0.11072   0.20621   0.00000  Uiso   1.00
H55    H     0.05417   0.19499   0.41861   0.00000  Uiso   1.00
C56    C     0.11188   0.24299   0.04533   0.00000  Uiso   1.00
O57    O     0.07396   0.25508   0.07896   0.00000  Uiso   1.00
O58    O     0.15501   0.26244   0.04128   0.00000  Uiso   1.00
H59    H     0.15027   0.28537   0.06911   0.00000  Uiso   1.00
H60    H     0.04383   0.22982   0.00314   0.00000  Uiso   1.00
C61    C     0.19033   0.09230   0.38220   0.00000  Uiso   1.00
O62    O     0.22693   0.07490   0.35262   0.00000  Uiso   1.00
O63    O     0.14518   0.07742   0.38557   0.00000  Uiso   1.00
H64    H     0.14743   0.05179   0.36247   0.00000  Uiso   1.00
H65    H     0.23421   0.29524   0.26416   0.00000  Uiso   1.00
C66    C     0.49991   0.24667   0.24981   0.00000  Uiso   1.00
C67    C     0.48458   0.17971   0.48597   0.00000  Uiso   1.00
C68    C     0.48853   0.15720   0.43838   0.00000  Uiso   1.00
C69    C     0.51986   0.17169   0.00992   0.00000  Uiso   1.00
C70    C     0.56332   0.15059   0.48050   0.00000  Uiso   1.00
C71    C     0.56679   0.12935   0.43341   0.00000  Uiso   1.00
C72    C     0.52694   0.12784   0.41679   0.00000  Uiso   1.00
C73    C     0.50991   0.17822   0.06485   0.00000  Uiso   1.00
C74    C     0.58997   0.15506   0.05723   0.00000  Uiso   1.00
C75    C     0.45610   0.16686   0.41137   0.00000  Uiso   1.00
C76    C     0.53828   0.31164   0.25683   0.00000  Uiso   1.00
C77    C     0.47320   0.16531   0.35220   0.00000  Uiso   1.00
C78    C     0.53866   0.02082   0.25610   0.00000  Uiso   1.00
C79    C     0.50084   0.04245   0.24772   0.00000  Uiso   1.00
C80    C     0.46292   0.02164   0.23903   0.00000  Uiso   1.00
C81    C     0.46253   0.31235   0.23965   0.00000  Uiso   1.00
C82    C     0.50010   0.29081   0.24887   0.00000  Uiso   1.00
C83    C     0.65144   0.13505   0.22537   0.00000  Uiso   1.00
C84    C     0.36570   0.13536   0.22588   0.00000  Uiso   1.00
C85    C     0.34917   0.19787   0.27479   0.00000  Uiso   1.00
C86    C     0.63462   0.19784   0.27485   0.00000  Uiso   1.00
C87    C     0.50038   0.08665   0.24913   0.00000  Uiso   1.00
C88    C     0.52679   0.16762   0.14786   0.00000  Uiso   1.00
C89    C     0.59966   0.14554   0.00287   0.00000  Uiso   1.00
C90    C     0.54361   0.16833   0.08903   0.00000  Uiso   1.00
C91    C     0.41356   0.18888   0.43818   0.00000  Uiso   1.00
C92    C     0.40801   0.20926   0.48633   0.00000  Uiso   1.00
C93    C     0.44531   0.20865   0.00753   0.00000  Uiso   1.00
H94    H     0.61704   0.14848   0.07509   0.00000  Uiso   1.00
H95    H     0.56792   0.03656   0.26322   0.00000  Uiso   1.00
H96    H     0.43360   0.03815   0.23198   0.00000  Uiso   1.00
H97    H     0.36075   0.22288   0.29466   0.00000  Uiso   1.00
H98    H     0.61011   0.22278   0.29481   0.00000  Uiso   1.00
H99    H     0.59778   0.10933   0.41434   0.00000  Uiso   1.00
H100   H     0.63383   0.13098   0.47985   0.00000  Uiso   1.00
H101   H     0.47389   0.18698   0.09036   0.00000  Uiso   1.00
N102   N     0.38093   0.16668   0.25001   0.00000  Uiso   1.00
N103   N     0.61906   0.16665   0.25000   0.00000  Uiso   1.00
O104   O     0.46179   0.22775   0.25000   0.00000  Uiso   1.00
O105   O     0.53823   0.22774   0.25000   0.00000  Uiso   1.00
O106   O     0.44280   0.16666   0.32681   0.00000  Uiso   1.00
O107   O     0.51924   0.16665   0.32681   0.00000  Uiso   1.00
O108   O     0.46177   0.10559   0.24999   0.00000  Uiso   1.00
O109   O     0.53821   0.10558   0.24999   0.00000  Uiso   1.00
O110   O     0.48076   0.16668   0.17319   0.00000  Uiso   1.00
O111   O     0.55720   0.16667   0.17319   0.00000  Uiso   1.00
Zn112  Zn    0.44896   0.16667   0.25000   0.00000  Uiso   1.00
Zn113  Zn    0.55104   0.16666   0.25000   0.00000  Uiso   1.00
H114   H     0.43306   0.29640   0.23290   0.00000  Uiso   1.00
C115   C     0.63901   0.09959   0.19747   0.00000  Uiso   1.00
O116   O     0.65059   0.06436   0.20594   0.00000  Uiso   1.00
O117   O     0.61799   0.10606   0.15835   0.00000  Uiso   1.00
H118   H     0.61216   0.07917   0.14163   0.00000  Uiso   1.00
H119   H     0.39091   0.11072   0.20621   0.00000  Uiso   1.00
H120   H     0.38751   0.19499   0.41861   0.00000  Uiso   1.00
C121   C     0.44521   0.24299   0.04533   0.00000  Uiso   1.00
O122   O     0.40729   0.25508   0.07896   0.00000  Uiso   1.00
O123   O     0.48834   0.26244   0.04128   0.00000  Uiso   1.00
H124   H     0.48360   0.28537   0.06911   0.00000  Uiso   1.00
H125   H     0.37716   0.22982   0.00314   0.00000  Uiso   1.00
C126   C     0.52367   0.09230   0.38220   0.00000  Uiso   1.00
O127   O     0.56027   0.07490   0.35262   0.00000  Uiso   1.00
O128   O     0.47851   0.07742   0.38557   0.00000  Uiso   1.00
H129   H     0.48077   0.05179   0.36247   0.00000  Uiso   1.00
H130   H     0.56754   0.29524   0.26416   0.00000  Uiso   1.00
C131   C     0.83324   0.24667   0.24981   0.00000  Uiso   1.00
C132   C     0.81791   0.17971   0.48597   0.00000  Uiso   1.00
C133   C     0.82187   0.15720   0.43838   0.00000  Uiso   1.00
C134   C     0.85319   0.17169   0.00992   0.00000  Uiso   1.00
C135   C     0.89665   0.15059   0.48050   0.00000  Uiso   1.00
C136   C     0.90012   0.12935   0.43341   0.00000  Uiso   1.00
C137   C     0.86028   0.12784   0.41679   0.00000  Uiso   1.00
C138   C     0.84325   0.17822   0.06485   0.00000  Uiso   1.00
C139   C     0.92331   0.15506   0.05723   0.00000  Uiso   1.00
C140   C     0.78943   0.16686   0.41137   0.00000  Uiso   1.00
C141   C     0.87161   0.31164   0.25683   0.00000  Uiso   1.00
C142   C     0.80653   0.16531   0.35220   0.00000  Uiso   1.00
C143   C     0.87199   0.02082   0.25610   0.00000  Uiso   1.00
C144   C     0.83418   0.04245   0.24772   0.00000  Uiso   1.00
C145   C     0.79625   0.02164   0.23903   0.00000  Uiso   1.00
C146   C     0.79587   0.31235   0.23965   0.00000  Uiso   1.00
C147   C     0.83344   0.29081   0.24887   0.00000  Uiso   1.00
C148   C     0.98478   0.13505   0.22537   0.00000  Uiso   1.00
C149   C     0.69904   0.13536   0.22588   0.00000  Uiso   1.00
C150   C     0.68251   0.19787   0.27479   0.00000  Uiso   1.00
C151   C     0.96795   0.19784   0.27485   0.00000  Uiso   1.00
C152   C     0.83371   0.08665   0.24913   0.00000  Uiso   1.00
C153   C     0.86012   0.16762   0.14786   0.00000  Uiso   1.00
C154   C     0.93299   0.14554   0.00287   0.00000  Uiso   1.00
C155   C     0.87695   0.16833   0.08903   0.00000  Uiso   1.00
C156   C     0.74689   0.18888   0.43818   0.00000  Uiso   1.00
C157   C     0.74134   0.20926   0.48633   0.00000  Uiso   1.00
C158   C     0.77865   0.20865   0.00753   0.00000  Uiso   1.00
H159   H     0.95038   0.14848   0.07509   0.00000  Uiso   1.00
H160   H     0.90125   0.03656   0.26322   0.00000  Uiso   1.00
H161   H     0.76693   0.03815   0.23198   0.00000  Uiso   1.00
H162   H     0.69409   0.22288   0.29466   0.00000  Uiso   1.00
H163   H     0.94344   0.22278   0.29481   0.00000  Uiso   1.00
H164   H     0.93111   0.10933   0.41434   0.00000  Uiso   1.00
H165   H     0.96716   0.13098   0.47985   0.00000  Uiso   1.00
H166   H     0.80723   0.18698   0.09036   0.00000  Uiso   1.00
N167   N     0.71426   0.16668   0.25001   0.00000  Uiso   1.00
N168   N     0.95239   0.16665   0.25000   0.00000  Uiso   1.00
O169   O     0.79512   0.22775   0.25000   0.00000  Uiso   1.00
O170   O     0.87157   0.22774   0.25000   0.00000  Uiso   1.00
O171   O     0.77613   0.16666   0.32681   0.00000  Uiso   1.00
O172   O     0.85258   0.16665   0.32681   0.00000  Uiso   1.00
O173   O     0.79510   0.10559   0.24999   0.00000  Uiso   1.00
O174   O     0.87154   0.10558   0.24999   0.00000  Uiso   1.00
O175   O     0.81409   0.16668   0.17319   0.00000  Uiso   1.00
O176   O     0.89053   0.16667   0.17319   0.00000  Uiso   1.00
Zn177  Zn    0.78229   0.16667   0.25000   0.00000  Uiso   1.00
Zn178  Zn    0.88438   0.16666   0.25000   0.00000  Uiso   1.00
H179   H     0.76639   0.29640   0.23290   0.00000  Uiso   1.00
C180   C     0.97234   0.09959   0.19747   0.00000  Uiso   1.00
O181   O     0.98392   0.06436   0.20594   0.00000  Uiso   1.00
O182   O     0.95133   0.10606   0.15835   0.00000  Uiso   1.00
H183   H     0.94550   0.07917   0.14163   0.00000  Uiso   1.00
H184   H     0.72424   0.11072   0.20621   0.00000  Uiso   1.00
H185   H     0.72084   0.19499   0.41861   0.00000  Uiso   1.00
C186   C     0.77855   0.24299   0.04533   0.00000  Uiso   1.00
O187   O     0.74062   0.25508   0.07896   0.00000  Uiso   1.00
O188   O     0.82168   0.26244   0.04128   0.00000  Uiso   1.00
H189   H     0.81693   0.28537   0.06911   0.00000  Uiso   1.00
H190   H     0.71049   0.22982   0.00314   0.00000  Uiso   1.00
C191   C     0.85700   0.09230   0.38220   0.00000  Uiso   1.00
O192   O     0.89360   0.07490   0.35262   0.00000  Uiso   1.00
O193   O     0.81185   0.07742   0.38557   0.00000  Uiso   1.00
H194   H     0.81410   0.05179   0.36247   0.00000  Uiso   1.00
H195   H     0.90088   0.29524   0.26416   0.00000  Uiso   1.00
C196   C     0.16658   0.58000   0.24981   0.00000  Uiso   1.00
C197   C     0.15125   0.51304   0.48597   0.00000  Uiso   1.00
C198   C     0.15520   0.49053   0.43838   0.00000  Uiso   1.00
C199   C     0.18652   0.50502   0.00992   0.00000  Uiso   1.00
C200   C     0.22998   0.48392   0.48050   0.00000  Uiso   1.00
C201   C     0.23345   0.46268   0.43341   0.00000  Uiso   1.00
C202   C     0.19361   0.46118   0.41679   0.00000  Uiso   1.00
C203   C     0.17658   0.51155   0.06485   0.00000  Uiso   1.00
C204   C     0.25664   0.48839   0.05723   0.00000  Uiso   1.00
C205   C     0.12276   0.50020   0.41137   0.00000  Uiso   1.00
C206   C     0.20494   0.64497   0.25683   0.00000  Uiso   1.00
C207   C     0.13987   0.49864   0.35220   0.00000  Uiso   1.00
C208   C     0.20533   0.35415   0.25610   0.00000  Uiso   1.00
C209   C     0.16751   0.37578   0.24772   0.00000  Uiso   1.00
C210   C     0.12958   0.35498   0.23903   0.00000  Uiso   1.00
C211   C     0.12920   0.64568   0.23965   0.00000  Uiso   1.00
C212   C     0.16677   0.62415   0.24887   0.00000  Uiso   1.00
C213   C     0.31811   0.46839   0.22537   0.00000  Uiso   1.00
C214   C     0.03237   0.46869   0.22588   0.00000  Uiso   1.00
C215   C     0.01584   0.53120   0.27479   0.00000  Uiso   1.00
C216   C     0.30128   0.53117   0.27485   0.00000  Uiso   1.00
C217   C     0.16704   0.41998   0.24913   0.00000  Uiso   1.00
C218   C     0.19346   0.50095   0.14786   0.00000  Uiso   1.00
C219   C     0.26632   0.47887   0.00287   0.00000  Uiso   1.00
C220   C     0.21028   0.50167   0.08903   0.00000  Uiso   1.00
C221   C     0.08022   0.52222   0.43818   0.00000  Uiso   1.00
C222   C     0.07467   0.54260   0.48633   0.00000  Uiso   1.00
C223   C     0.11198   0.54199   0.00753   0.00000  Uiso   1.00
H224   H     0.28371   0.48181   0.07509   0.00000  Uiso   1.00
H225   H     0.23458   0.36990   0.26322   0.00000  Uiso   1.00
H226   H     0.10026   0.37149   0.23198   0.00000  Uiso   1.00
H227   H     0.02742   0.55621   0.29466   0.00000  Uiso   1.00
H228   H     0.27678   0.55612   0.29481   0.00000  Uiso   1.00
H229   H     0.26444   0.44266   0.41434   0.00000  Uiso   1.00
H230   H     0.30050   0.46431   0.47985   0.00000  Uiso   1.00
H231   H     0.14056   0.52031   0.09036   0.00000  Uiso   1.00
N232   N     0.04760   0.50001   0.25001   0.00000  Uiso   1.00
N233   N     0.28573   0.49998   0.25000   0.00000  Uiso   1.00
O234   O     0.12846   0.56108   0.25000   0.00000  Uiso   1.00
O235   O     0.20490   0.56107   0.25000   0.00000  Uiso   1.00
O236   O     0.10947   0.50000   0.32681   0.00000  Uiso   1.00
O237   O     0.18591   0.49999   0.32681   0.00000  Uiso   1.00
O238   O     0.12843   0.43893   0.24999   0.00000  Uiso   1.00
O239   O     0.20488   0.43892   0.24999   0.00000  Uiso   1.00
O240   O     0.14742   0.50001   0.17319   0.00000  Uiso   1.00
O241   O     0.22387   0.50000   0.17319   0.00000  Uiso   1.00
Zn242  Zn    0.11562   0.50001   0.25000   0.00000  Uiso   1.00
Zn243  Zn    0.21771   0.49999   0.25000   0.00000  Uiso   1.00
H244   H     0.09973   0.62974   0.23290   0.00000  Uiso   1.00
C245   C     0.30568   0.43292   0.19747   0.00000  Uiso   1.00
O246   O     0.31725   0.39770   0.20594   0.00000  Uiso   1.00
O247   O     0.28466   0.43940   0.15835   0.00000  Uiso   1.00
H248   H     0.27883   0.41251   0.14163   0.00000  Uiso   1.00
H249   H     0.05757   0.44406   0.20621   0.00000  Uiso   1.00
H250   H     0.05417   0.52832   0.41861   0.00000  Uiso   1.00
C251   C     0.11188   0.57633   0.04533   0.00000  Uiso   1.00
O252   O     0.07396   0.58841   0.07896   0.00000  Uiso   1.00
O253   O     0.15501   0.59577   0.04128   0.00000  Uiso   1.00
H254   H     0.15027   0.61871   0.06911   0.00000  Uiso   1.00
H255   H     0.04383   0.56316   0.00314   0.00000  Uiso   1.00
C256   C     0.19033   0.42563   0.38220   0.00000  Uiso   1.00
O257   O     0.22693   0.40824   0.35262   0.00000  Uiso   1.00
O258   O     0.14518   0.41076   0.38557   0.00000  Uiso   1.00
H259   H     0.14743   0.38512   0.36247   0.00000  Uiso   1.00
H260   H     0.23421   0.62858   0.26416   0.00000  Uiso   1.00
C261   C     0.49991   0.58000   0.24981   0.00000  Uiso   1.00
C262   C     0.48458   0.51304   0.48597   0.00000  Uiso   1.00
C263   C     0.48853   0.49053   0.43838   0.00000  Uiso   1.00
C264   C     0.51986   0.50502   0.00992   0.00000  Uiso   1.00
C265   C     0.56332   0.48392   0.48050   0.00000  Uiso   1.00
C266   C     0.56679   0.46268   0.43341   0.00000  Uiso   1.00
C267   C     0.52694   0.46118   0.41679   0.00000  Uiso   1.00
C268   C     0.50991   0.51155   0.06485   0.00000  Uiso   1.00
C269   C     0.58997   0.48839   0.05723   0.00000  Uiso   1.00
C270   C     0.45610   0.50020   0.41137   0.00000  Uiso   1.00
C271   C     0.53828   0.64497   0.25683   0.00000  Uiso   1.00
C272   C     0.47320   0.49864   0.35220   0.00000  Uiso   1.00
C273   C     0.53866   0.35415   0.25610   0.00000  Uiso   1.00
C274   C     0.50084   0.37578   0.24772   0.00000  Uiso   1.00
C275   C     0.46292   0.35498   0.23903   0.00000  Uiso   1.00
C276   C     0.46253   0.64568   0.23965   0.00000  Uiso   1.00
C277   C     0.50010   0.62415   0.24887   0.00000  Uiso   1.00
C278   C     0.65144   0.46839   0.22537   0.00000  Uiso   1.00
C279   C     0.36570   0.46869   0.22588   0.00000  Uiso   1.00
C280   C     0.34917   0.53120   0.27479   0.00000  Uiso   1.00
C281   C     0.63462   0.53117   0.27485   0.00000  Uiso   1.00
C282   C     0.50038   0.41998   0.24913   0.00000  Uiso   1.00
C283   C     0.52679   0.50095   0.14786   0.00000  Uiso   1.00
C284   C     0.59966   0.47887   0.00287   0.00000  Uiso   1.00
C285   C     0.54361   0.50167   0.08903   0.00000  Uiso   1.00
C286   C     0.41356   0.52222   0.43818   0.00000  Uiso   1.00
C287   C     0.40801   0.54260   0.48633   0.00000  Uiso   1.00
C288   C     0.44531   0.54199   0.00753   0.00000  Uiso   1.00
H289   H     0.61704   0.48181   0.07509   0.00000  Uiso   1.00
H290   H     0.56792   0.36990   0.26322   0.00000  Uiso   1.00
H291   H     0.43360   0.37149   0.23198   0.00000  Uiso   1.00
H292   H     0.36075   0.55621   0.29466   0.00000  Uiso   1.00
H293   H     0.61011   0.55612   0.29481   0.00000  Uiso   1.00
H294   H     0.59778   0.44266   0.41434   0.00000  Uiso   1.00
H295   H     0.63383   0.46431   0.47985   0.00000  Uiso   1.00
H296   H     0.47389   0.52031   0.09036   0.00000  Uiso   1.00
N297   N     0.38093   0.50001   0.25001   0.00000  Uiso   1.00
N298   N     0.61906   0.49998   0.25000   0.00000  Uiso   1.00
O299   O     0.46179   0.56108   0.25000   0.00000  Uiso   1.00
O300   O     0.53823   0.56107   0.25000   0.00000  Uiso   1.00
O301   O     0.44280   0.50000   0.32681   0.00000  Uiso   1.00
O302   O     0.51924   0.49999   0.32681   0.00000  Uiso   1.00
O303   O     0.46177   0.43893   0.24999   0.00000  Uiso   1.00
O304   O     0.53821   0.43892   0.24999   0.00000  Uiso   1.00
O305   O     0.48076   0.50001   0.17319   0.00000  Uiso   1.00
O306   O     0.55720   0.50000   0.17319   0.00000  Uiso   1.00
Zn307  Zn    0.44896   0.50001   0.25000   0.00000  Uiso   1.00
Zn308  Zn    0.55104   0.49999   0.25000   0.00000  Uiso   1.00
H309   H     0.43306   0.62974   0.23290   0.00000  Uiso   1.00
C310   C     0.63901   0.43292   0.19747   0.00000  Uiso   1.00
O311   O     0.65059   0.39770   0.20594   0.00000  Uiso   1.00
O312   O     0.61799   0.43940   0.15835   0.00000  Uiso   1.00
H313   H     0.61216   0.41251   0.14163   0.00000  Uiso   1.00
H314   H     0.39091   0.44406   0.20621   0.00000  Uiso   1.00
H315   H     0.38751   0.52832   0.41861   0.00000  Uiso   1.00
C316   C     0.44521   0.57633   0.04533   0.00000  Uiso   1.00
O317   O     0.40729   0.58841   0.07896   0.00000  Uiso   1.00
O318   O     0.48834   0.59577   0.04128   0.00000  Uiso   1.00
H319   H     0.48360   0.61871   0.06911   0.00000  Uiso   1.00
H320   H     0.37716   0.56316   0.00314   0.00000  Uiso   1.00
C321   C     0.52367   0.42563   0.38220   0.00000  Uiso   1.00
O322   O     0.56027   0.40824   0.35262   0.00000  Uiso   1.00
O323   O     0.47851   0.41076   0.38557   0.00000  Uiso   1.00
H324   H     0.48077   0.38512   0.36247   0.00000  Uiso   1.00
H325   H     0.56754   0.62858   0.26416   0.00000  Uiso   1.00
C326   C     0.83324   0.58000   0.24981   0.00000  Uiso   1.00
C327   C     0.81791   0.51304   0.48597   0.00000  Uiso   1.00
C328   C     0.82187   0.49053   0.43838   0.00000  Uiso   1.00
C329   C     0.85319   0.50502   0.00992   0.00000  Uiso   1.00
C330   C     0.89665   0.48392   0.48050   0.00000  Uiso   1.00
C331   C     0.90012   0.46268   0.43341   0.00000  Uiso   1.00
C332   C     0.86028   0.46118   0.41679   0.00000  Uiso   1.00
C333   C     0.84325   0.51155   0.06485   0.00000  Uiso   1.00
C334   C     0.92331   0.48839   0.05723   0.00000  Uiso   1.00
C335   C     0.78943   0.50020   0.41137   0.00000  Uiso   1.00
C336   C     0.87161   0.64497   0.25683   0.00000  Uiso   1.00
C337   C     0.80653   0.49864   0.35220   0.00000  Uiso   1.00
C338   C     0.87199   0.35415   0.25610   0.00000  Uiso   1.00
C339   C     0.83418   0.37578   0.24772   0.00000  Uiso   1.00
C340   C     0.79625   0.35498   0.23903   0.00000  Uiso   1.00
C341   C     0.79587   0.64568   0.23965   0.00000  Uiso   1.00
C342   C     0.83344   0.62415   0.24887   0.00000  Uiso   1.00
C343   C     0.98478   0.46839   0.22537   0.00000  Uiso   1.00
C344   C     0.69904   0.46869   0.22588   0.00000  Uiso   1.00
C345   C     0.68251   0.53120   0.27479   0.00000  Uiso   1.00
C346   C     0.96795   0.53117   0.27485   0.00000  Uiso   1.00
C347   C     0.83371   0.41998   0.24913   0.00000  Uiso   1.00
C348   C     0.86012   0.50095   0.14786   0.00000  Uiso   1.00
C349   C     0.93299   0.47887   0.00287   0.00000  Uiso   1.00
C350   C     0.87695   0.50167   0.08903   0.00000  Uiso   1.00
C351   C     0.74689   0.52222   0.43818   0.00000  Uiso   1.00
C352   C     0.74134   0.54260   0.48633   0.00000  Uiso   1.00
C353   C     0.77865   0.54199   0.00753   0.00000  Uiso   1.00
H354   H     0.95038   0.48181   0.07509   0.00000  Uiso   1.00
H355   H     0.90125   0.36990   0.26322   0.00000  Uiso   1.00
H356   H     0.76693   0.37149   0.23198   0.00000  Uiso   1.00
H357   H     0.69409   0.55621   0.29466   0.00000  Uiso   1.00
H358   H     0.94344   0.55612   0.29481   0.00000  Uiso   1.00
H359   H     0.93111   0.44266   0.41434   0.00000  Uiso   1.00
H360   H     0.96716   0.46431   0.47985   0.00000  Uiso   1.00
H361   H     0.80723   0.52031   0.09036   0.00000  Uiso   1.00
N362   N     0.71426   0.50001   0.25001   0.00000  Uiso   1.00
N363   N     0.95239   0.49998   0.25000   0.00000  Uiso   1.00
O364   O     0.79512   0.56108   0.25000   0.00000  Uiso   1.00
O365   O     0.87157   0.56107   0.25000   0.00000  Uiso   1.00
O366   O     0.77613   0.50000   0.32681   0.00000  Uiso   1.00
O367   O     0.85258   0.49999   0.32681   0.00000  Uiso   1.00
O368   O     0.79510   0.43893   0.24999   0.00000  Uiso   1.00
O369   O     0.87154   0.43892   0.24999   0.00000  Uiso   1.00
O370   O     0.81409   0.50001   0.17319   0.00000  Uiso   1.00
O371   O     0.89053   0.50000   0.17319   0.00000  Uiso   1.00
Zn372  Zn    0.78229   0.50001   0.25000   0.00000  Uiso   1.00
Zn373  Zn    0.88438   0.49999   0.25000   0.00000  Uiso   1.00
H374   H     0.76639   0.62974   0.23290   0.00000  Uiso   1.00
C375   C     0.97234   0.43292   0.19747   0.00000  Uiso   1.00
O376   O     0.98392   0.39770   0.20594   0.00000  Uiso   1.00
O377   O     0.95133   0.43940   0.15835   0.00000  Uiso   1.00
H378   H     0.94550   0.41251   0.14163   0.00000  Uiso   1.00
H379   H     0.72424   0.44406   0.20621   0.00000  Uiso   1.00
H380   H     0.72084   0.52832   0.41861   0.00000  Uiso   1.00
C381   C     0.77855   0.57633   0.04533   0.00000  Uiso   1.00
O382   O     0.74062   0.58841   0.07896   0.00000  Uiso   1.00
O383   O     0.82168   0.59577   0.04128   0.00000  Uiso   1.00
H384   H     0.81693   0.61871   0.06911   0.00000  Uiso   1.00
H385   H     0.71049   0.56316   0.00314   0.00000  Uiso   1.00
C386   C     0.85700   0.42563   0.38220   0.00000  Uiso   1.00
O387   O     0.89360   0.40824   0.35262   0.00000  Uiso   1.00
O388   O     0.81185   0.41076   0.38557   0.00000  Uiso   1.00
H389   H     0.81410   0.38512   0.36247   0.00000  Uiso   1.00
H390   H     0.90088   0.62858   0.26416   0.00000  Uiso   1.00
C391   C     0.16658   0.91334   0.24981   0.00000  Uiso   1.00
C392   C     0.15125   0.84637   0.48597   0.00000  Uiso   1.00
C393   C     0.15520   0.82386   0.43838   0.00000  Uiso   1.00
C394   C     0.18652   0.83835   0.00992   0.00000  Uiso   1.00
C395   C     0.22998   0.81726   0.48050   0.00000  Uiso   1.00
C396   C     0.23345   0.79601   0.43341   0.00000  Uiso   1.00
C397   C     0.19361   0.79451   0.41679   0.00000  Uiso   1.00
C398   C     0.17658   0.84488   0.06485   0.00000  Uiso   1.00
C399   C     0.25664   0.82172   0.05723   0.00000  Uiso   1.00
C400   C     0.12276   0.83353   0.41137   0.00000  Uiso   1.00
C401   C     0.20494   0.97830   0.25683   0.00000  Uiso   1.00
C402   C     0.13987   0.83198   0.35220   0.00000  Uiso   1.00
C403   C     0.20533   0.68748   0.25610   0.00000  Uiso   1.00
C404   C     0.16751   0.70912   0.24772   0.00000  Uiso   1.00
C405   C     0.12958   0.68831   0.23903   0.00000  Uiso   1.00
C406   C     0.12920   0.97901   0.23965   0.00000  Uiso   1.00
C407   C     0.16677   0.95748   0.24887   0.00000  Uiso   1.00
C408   C     0.31811   0.80172   0.22537   0.00000  Uiso   1.00
C409   C     0.03237   0.80203   0.22588   0.00000  Uiso   1.00
C410   C     0.01584   0.86453   0.27479   0.00000  Uiso   1.00
C411   C     0.30128   0.86451   0.27485   0.00000  Uiso   1.00
C412   C     0.16704   0.75331   0.24913   0.00000  Uiso   1.00
C413   C     0.19346   0.83428   0.14786   0.00000  Uiso   1.00
C414   C     0.26632   0.81220   0.00287   0.00000  Uiso   1.00
C415   C     0.21028   0.83500   0.08903   0.00000  Uiso   1.00
C416   C     0.08022   0.85555   0.43818   0.00000  Uiso   1.00
C417   C     0.07467   0.87593   0.48633   0.00000  Uiso   1.00
C418   C     0.11198   0.87532   0.00753   0.00000  Uiso   1.00
H419   H     0.28371   0.81514   0.07509   0.00000  Uiso   1.00
H420   H     0.23458   0.70323   0.26322   0.00000  Uiso   1.00
H421   H     0.10026   0.70482   0.23198   0.00000  Uiso   1.00
H422   H     0.02742   0.88955   0.29466   0.00000  Uiso   1.00
H423   H     0.27678   0.88945   0.29481   0.00000  Uiso   1.00
H424   H     0.26444   0.77600   0.41434   0.00000  Uiso   1.00
H425   H     0.30050   0.79765   0.47985   0.00000  Uiso   1.00
H426   H     0.14056   0.85364   0.09036   0.00000  Uiso   1.00
N427   N     0.04760   0.83334   0.25001   0.00000  Uiso   1.00
N428   N     0.28573   0.83331   0.25000   0.00000  Uiso   1.00
O429   O     0.12846   0.89442   0.25000   0.00000  Uiso   1.00
O430   O     0.20490   0.89441   0.25000   0.00000  Uiso   1.00
O431   O     0.10947   0.83333   0.32681   0.00000  Uiso   1.00
O432   O     0.18591   0.83332   0.32681   0.00000  Uiso   1.00
O433   O     0.12843   0.77226   0.24999   0.00000  Uiso   1.00
O434   O     0.20488   0.77225   0.24999   0.00000  Uiso   1.00
O435   O     0.14742   0.83335   0.17319   0.00000  Uiso   1.00
O436   O     0.22387   0.83334   0.17319   0.00000  Uiso   1.00
Zn437  Zn    0.11562   0.83334   0.25000   0.00000  Uiso   1.00
Zn438  Zn    0.21771   0.83333   0.25000   0.00000  Uiso   1.00
H439   H     0.09973   0.96307   0.23290   0.00000  Uiso   1.00
C440   C     0.30568   0.76625   0.19747   0.00000  Uiso   1.00
O441   O     0.31725   0.73103   0.20594   0.00000  Uiso   1.00
O442   O     0.28466   0.77273   0.15835   0.00000  Uiso   1.00
H443   H     0.27883   0.74584   0.14163   0.00000  Uiso   1.00
H444   H     0.05757   0.77739   0.20621   0.00000  Uiso   1.00
H445   H     0.05417   0.86165   0.41861   0.00000  Uiso   1.00
C446   C     0.11188   0.90966   0.04533   0.00000  Uiso   1.00
O447   O     0.07396   0.92174   0.07896   0.00000  Uiso   1.00
O448   O     0.15501   0.92911   0.04128   0.00000  Uiso   1.00
H449   H     0.15027   0.95204   0.06911   0.00000  Uiso   1.00
H450   H     0.04383   0.89649   0.00314   0.00000  Uiso   1.00
C451   C     0.19033   0.75896   0.38220   0.00000  Uiso   1.00
O452   O     0.22693   0.74157   0.35262   0.00000  Uiso   1.00
O453   O     0.14518   0.74409   0.38557   0.00000  Uiso   1.00
H454   H     0.14743   0.71845   0.36247   0.00000  Uiso   1.00
H455   H     0.23421   0.96191   0.26416   0.00000  Uiso   1.00
C456   C     0.49991   0.91334   0.24981   0.00000  Uiso   1.00
C457   C     0.48458   0.84637   0.48597   0.00000  Uiso   1.00
C458   C     0.48853   0.82386   0.43838   0.00000  Uiso   1.00
C459   C     0.51986   0.83835   0.00992   0.00000  Uiso   1.00
C460   C     0.56332   0.81726   0.48050   0.00000  Uiso   1.00
C461   C     0.56679   0.79601   0.43341   0.00000  Uiso   1.00
C462   C     0.52694   0.79451   0.41679   0.00000  Uiso   1.00
C463   C     0.50991   0.84488   0.06485   0.00000  Uiso   1.00
C464   C     0.58997   0.82172   0.05723   0.00000  Uiso   1.00
C465   C     0.45610   0.83353   0.41137   0.00000  Uiso   1.00
C466   C     0.53828   0.97830   0.25683   0.00000  Uiso   1.00
C467   C     0.47320   0.83198   0.35220   0.00000  Uiso   1.00
C468   C     0.53866   0.68748   0.25610   0.00000  Uiso   1.00
C469   C     0.50084   0.70912   0.24772   0.00000  Uiso   1.00
C470   C     0.46292   0.68831   0.23903   0.00000  Uiso   1.00
C471   C     0.46253   0.97901   0.23965   0.00000  Uiso   1.00
C472   C     0.50010   0.95748   0.24887   0.00000  Uiso   1.00
C473   C     0.65144   0.80172   0.22537   0.00000  Uiso   1.00
C474   C     0.36570   0.80203   0.22588   0.00000  Uiso   1.00
C475   C     0.34917   0.86453   0.27479   0.00000  Uiso   1.00
C476   C     0.63462   0.86451   0.27485   0.00000  Uiso   1.00
C477   C     0.50038   0.75331   0.24913   0.00000  Uiso   1.00
C478   C     0.52679   0.83428   0.14786   0.00000  Uiso   1.00
C479   C     0.59966   0.81220   0.00287   0.00000  Uiso   1.00
C480   C     0.54361   0.83500   0.08903   0.00000  Uiso   1.00
C481   C     0.41356   0.85555   0.43818   0.00000  Uiso   1.00
C482   C     0.40801   0.87593   0.48633   0.00000  Uiso   1.00
C483   C     0.44531   0.87532   0.00753   0.00000  Uiso   1.00
H484   H     0.61704   0.81514   0.07509   0.00000  Uiso   1.00
H485   H     0.56792   0.70323   0.26322   0.00000  Uiso   1.00
H486   H     0.43360   0.70482   0.23198   0.00000  Uiso   1.00
H487   H     0.36075   0.88955   0.29466   0.00000  Uiso   1.00
H488   H     0.61011   0.88945   0.29481   0.00000  Uiso   1.00
H489   H     0.59778   0.77600   0.41434   0.00000  Uiso   1.00
H490   H     0.63383   0.79765   0.47985   0.00000  Uiso   1.00
H491   H     0.47389   0.85364   0.09036   0.00000  Uiso   1.00
N492   N     0.38093   0.83334   0.25001   0.00000  Uiso   1.00
N493   N     0.61906   0.83331   0.25000   0.00000  Uiso   1.00
O494   O     0.46179   0.89442   0.25000   0.00000  Uiso   1.00
O495   O     0.53823   0.89441   0.25000   0.00000  Uiso   1.00
O496   O     0.44280   0.83333   0.32681   0.00000  Uiso   1.00
O497   O     0.51924   0.83332   0.32681   0.00000  Uiso   1.00
O498   O     0.46177   0.77226   0.24999   0.00000  Uiso   1.00
O499   O     0.53821   0.77225   0.24999   0.00000  Uiso   1.00
O500   O     0.48076   0.83335   0.17319   0.00000  Uiso   1.00
O501   O     0.55720   0.83334   0.17319   0.00000  Uiso   1.00
Zn502  Zn    0.44896   0.83334   0.25000   0.00000  Uiso   1.00
Zn503  Zn    0.55104   0.83333   0.25000   0.00000  Uiso   1.00
H504   H     0.43306   0.96307   0.23290   0.00000  Uiso   1.00
C505   C     0.63901   0.76625   0.19747   0.00000  Uiso   1.00
O506   O     0.65059   0.73103   0.20594   0.00000  Uiso   1.00
O507   O     0.61799   0.77273   0.15835   0.00000  Uiso   1.00
H508   H     0.61216   0.74584   0.14163   0.00000  Uiso   1.00
H509   H     0.39091   0.77739   0.20621   0.00000  Uiso   1.00
H510   H     0.38751   0.86165   0.41861   0.00000  Uiso   1.00
C511   C     0.44521   0.90966   0.04533   0.00000  Uiso   1.00
O512   O     0.40729   0.92174   0.07896   0.00000  Uiso   1.00
O513   O     0.48834   0.92911   0.04128   0.00000  Uiso   1.00
H514   H     0.48360   0.95204   0.06911   0.00000  Uiso   1.00
H515   H     0.37716   0.89649   0.00314   0.00000  Uiso   1.00
C516   C     0.52367   0.75896   0.38220   0.00000  Uiso   1.00
O517   O     0.56027   0.74157   0.35262   0.00000  Uiso   1.00
O518   O     0.47851   0.74409   0.38557   0.00000  Uiso   1.00
H519   H     0.48077   0.71845   0.36247   0.00000  Uiso   1.00
H520   H     0.56754   0.96191   0.26416   0.00000  Uiso   1.00
C521   C     0.83324   0.91334   0.24981   0.00000  Uiso   1.00
C522   C     0.81791   0.84637   0.48597   0.00000  Uiso   1.00
C523   C     0.82187   0.82386   0.43838   0.00000  Uiso   1.00
C524   C     0.85319   0.83835   0.00992   0.00000  Uiso   1.00
C525   C     0.89665   0.81726   0.48050   0.00000  Uiso   1.00
C526   C     0.90012   0.79601   0.43341   0.00000  Uiso   1.00
C527   C     0.86028   0.79451   0.41679   0.00000  Uiso   1.00
C528   C     0.84325   0.84488   0.06485   0.00000  Uiso   1.00
C529   C     0.92331   0.82172   0.05723   0.00000  Uiso   1.00
C530   C     0.78943   0.83353   0.41137   0.00000  Uiso   1.00
C531   C     0.87161   0.97830   0.25683   0.00000  Uiso   1.00
C532   C     0.80653   0.83198   0.35220   0.00000  Uiso   1.00
C533   C     0.87199   0.68748   0.25610   0.00000  Uiso   1.00
C534   C     0.83418   0.70912   0.24772   0.00000  Uiso   1.00
C535   C     0.79625   0.68831   0.23903   0.00000  Uiso   1.00
C536   C     0.79587   0.97901   0.23965   0.00000  Uiso   1.00
C537   C     0.83344   0.95748   0.24887   0.00000  Uiso   1.00
C538   C     0.98478   0.80172   0.22537   0.00000  Uiso   1.00
C539   C     0.69904   0.80203   0.22588   0.00000  Uiso   1.00
C540   C     0.68251   0.86453   0.27479   0.00000  Uiso   1.00
C541   C     0.96795   0.86451   0.27485   0.00000  Uiso   1.00
C542   C     0.83371   0.75331   0.24913   0.00000  Uiso   1.00
C543   C     0.86012   0.83428   0.14786   0.00000  Uiso   1.00
C544   C     0.93299   0.81220   0.00287   0.00000  Uiso   1.00
C545   C     0.87695   0.83500   0.08903   0.00000  Uiso   1.00
C546   C     0.74689   0.85555   0.43818   0.00000  Uiso   1.00
C547   C     0.74134   0.87593   0.48633   0.00000  Uiso   1.00
C548   C     0.77865   0.87532   0.00753   0.00000  Uiso   1.00
H549   H     0.95038   0.81514   0.07509   0.00000  Uiso   1.00
H550   H     0.90125   0.70323   0.26322   0.00000  Uiso   1.00
H551   H     0.76693   0.70482   0.23198   0.00000  Uiso   1.00
H552   H     0.69409   0.88955   0.29466   0.00000  Uiso   1.00
H553   H     0.94344   0.88945   0.29481   0.00000  Uiso   1.00
H554   H     0.93111   0.77600   0.41434   0.00000  Uiso   1.00
H555   H     0.96716   0.79765   0.47985   0.00000  Uiso   1.00
H556   H     0.80723   0.85364   0.09036   0.00000  Uiso   1.00
N557   N     0.71426   0.83334   0.25001   0.00000  Uiso   1.00
N558   N     0.95239   0.83331   0.25000   0.00000  Uiso   1.00
O559   O     0.79512   0.89442   0.25000   0.00000  Uiso   1.00
O560   O     0.87157   0.89441   0.25000   0.00000  Uiso   1.00
O561   O     0.77613   0.83333   0.32681   0.00000  Uiso   1.00
O562   O     0.85258   0.83332   0.32681   0.00000  Uiso   1.00
O563   O     0.79510   0.77226   0.24999   0.00000  Uiso   1.00
O564   O     0.87154   0.77225   0.24999   0.00000  Uiso   1.00
O565   O     0.81409   0.83335   0.17319   0.00000  Uiso   1.00
O566   O     0.89053   0.83334   0.17319   0.00000  Uiso   1.00
Zn567  Zn    0.78229   0.83334   0.25000   0.00000  Uiso   1.00
Zn568  Zn    0.88438   0.83333   0.25000   0.00000  Uiso   1.00
H569   H     0.76639   0.96307   0.23290   0.00000  Uiso   1.00
C570   C     0.97234   0.76625   0.19747   0.00000  Uiso   1.00
O571   O     0.98392   0.73103   0.20594   0.00000  Uiso   1.00
O572   O     0.95133   0.77273   0.15835   0.00000  Uiso   1.00
H573   H     0.94550   0.74584   0.14163   0.00000  Uiso   1.00
H574   H     0.72424   0.77739   0.20621   0.00000  Uiso   1.00
H575   H     0.72084   0.86165   0.41861   0.00000  Uiso   1.00
C576   C     0.77855   0.90966   0.04533   0.00000  Uiso   1.00
O577   O     0.74062   0.92174   0.07896   0.00000  Uiso   1.00
O578   O     0.82168   0.92911   0.04128   0.00000  Uiso   1.00
H579   H     0.81693   0.95204   0.06911   0.00000  Uiso   1.00
H580   H     0.71049   0.89649   0.00314   0.00000  Uiso   1.00
C581   C     0.85700   0.75896   0.38220   0.00000  Uiso   1.00
O582   O     0.89360   0.74157   0.35262   0.00000  Uiso   1.00
O583   O     0.81185   0.74409   0.38557   0.00000  Uiso   1.00
H584   H     0.81410   0.71845   0.36247   0.00000  Uiso   1.00
H585   H     0.90088   0.96191   0.26416   0.00000  Uiso   1.00
C586   C     0.16658   0.24667   0.74981   0.00000  Uiso   1.00
C587   C     0.15125   0.17971   0.98597   0.00000  Uiso   1.00
C588   C     0.15520   0.15720   0.93838   0.00000  Uiso   1.00
C589   C     0.18652   0.17169   0.50992   0.00000  Uiso   1.00
C590   C     0.22998   0.15059   0.98050   0.00000  Uiso   1.00
C591   C     0.23345   0.12935   0.93341   0.00000  Uiso   1.00
C592   C     0.19361   0.12784   0.91679   0.00000  Uiso   1.00
C593   C     0.17658   0.17822   0.56485   0.00000  Uiso   1.00
C594   C     0.25664   0.15506   0.55723   0.00000  Uiso   1.00
C595   C     0.12276   0.16686   0.91137   0.00000  Uiso   1.00
C596   C     0.20494   0.31164   0.75683   0.00000  Uiso   1.00
C597   C     0.13987   0.16531   0.85220   0.00000  Uiso   1.00
C598   C     0.20533   0.02082   0.75610   0.00000  Uiso   1.00
C599   C     0.16751   0.04245   0.74772   0.00000  Uiso   1.00
C600   C     0.12958   0.02164   0.73903   0.00000  Uiso   1.00
C601   C     0.12920   0.31235   0.73965   0.00000  Uiso   1.00
C602   C     0.16677   0.29081   0.74887   0.00000  Uiso   1.00
C603   C     0.31811   0.13505   0.72537   0.00000  Uiso   1.00
C604   C     0.03237   0.13536   0.72588   0.00000  Uiso   1.00
C605   C     0.01584   0.19787   0.77479   0.00000  Uiso   1.00
C606   C     0.30128   0.19784   0.77485   0.00000  Uiso   1.00
C607   C     0.16704   0.08665   0.74913   0.00000  Uiso   1.00
C608   C     0.19346   0.16762   0.64786   0.00000  Uiso   1.00
C609   C     0.26632   0.14554   0.50287   0.00000  Uiso   1.00
C610   C     0.21028   0.16833   0.58903   0.00000  Uiso   1.00
C611   C     0.08022   0.18888   0.93818   0.00000  Uiso   1.00
C612   C     0.07467   0.20926   0.98633   0.00000  Uiso   1.00
C613   C     0.11198   0.20865   0.50753   0.00000  Uiso   1.00
H614   H     0.28371   0.14848   0.57509   0.00000  Uiso   1.00
H615   H     0.23458   0.03656   0.76322   0.00000  Uiso   1.00
H616   H     0.10026   0.03815   0.73198   0.00000  Uiso   1.00
H617   H     0.02742   0.22288   0.79466   0.00000  Uiso   1.00
H618   H     0.27678   0.22278   0.79481   0.00000  Uiso   1.00
H619   H     0.26444   0.10933   0.91434   0.00000  Uiso   1.00
H620   H     0.30050   0.13098   0.97985   0.00000  Uiso   1.00
H621   H     0.14056   0.18698   0.59036   0.00000  Uiso   1.00
N622   N     0.04760   0.16668   0.75001   0.00000  Uiso   1.00
N623   N     0.28573   0.16665   0.75000   0.00000  Uiso   1.00
O624   O     0.12846   0.22775   0.75000   0.00000  Uiso   1.00
O625   O     0.20490   0.22774   0.75000   0.00000  Uiso   1.00
O626   O     0.10947   0.16666   0.82681   0.00000  Uiso   1.00
O627   O     0.18591   0.16665   0.82681   0.00000  Uiso   1.00
O628   O     0.12843   0.10559   0.74999   0.00000  Uiso   1.00
O629   O     0.20488   0.10558   0.74999   0.00000  Uiso   1.00
O630   O     0.14742   0.16668   0.67319   0.00000  Uiso   1.00
O631   O     0.22387   0.16667   0.67319   0.00000  Uiso   1.00
Zn632  Zn    0.11562   0.16667   0.75000   0.00000  Uiso   1.00
Zn633  Zn    0.21771   0.16666   0.75000   0.00000  Uiso   1.00
H634   H     0.09973   0.29640   0.73290   0.00000  Uiso   1.00
C635   C     0.30568   0.09959   0.69747   0.00000  Uiso   1.00
O636   O     0.31725   0.06436   0.70594   0.00000  Uiso   1.00
O637   O     0.28466   0.10606   0.65835   0.00000  Uiso   1.00
H638   H     0.27883   0.07917   0.64163   0.00000  Uiso   1.00
H639   H     0.05757   0.11072   0.70621   0.00000  Uiso   1.00
H640   H     0.05417   0.19499   0.91861   0.00000  Uiso   1.00
C641   C     0.11188   0.24299   0.54533   0.00000  Uiso   1.00
O642   O     0.07396   0.25508   0.57896   0.00000  Uiso   1.00
O643   O     0.15501   0.26244   0.54128   0.00000  Uiso   1.00
H644   H     0.15027   0.28537   0.56911   0.00000  Uiso   1.00
H645   H     0.04383   0.22982   0.50314   0.00000  Uiso   1.00
C646   C     0.19033   0.09230   0.88220   0.00000  Uiso   1.00
O647   O     0.22693   0.07490   0.85262   0.00000  Uiso   1.00
O648   O     0.14518   0.07742   0.88557   0.00000  Uiso   1.00
H649   H     0.14743   0.05179   0.86247   0.00000  Uiso   1.00
H650   H     0.23421   0.29524   0.76416   0.00000  Uiso   1.00
C651   C     0.49991   0.24667   0.74981   0.00000  Uiso   1.00
C652   C     0.48458   0.17971   0.98597   0.00000  Uiso   1.00
C653   C     0.48853   0.15720   0.93838   0.00000  Uiso   1.00
C654   C     0.51986   0.17169   0.50992   0.00000  Uiso   1.00
C655   C     0.56332   0.15059   0.98050   0.00000  Uiso   1.00
C656   C     0.56679   0.12935   0.93341   0.00000  Uiso   1.00
C657   C     0.52694   0.12784   0.91679   0.00000  Uiso   1.00
C658   C     0.50991   0.17822   0.56485   0.00000  Uiso   1.00
C659   C     0.58997   0.15506   0.55723   0.00000  Uiso   1.00
C660   C     0.45610   0.16686   0.91137   0.00000  Uiso   1.00
C661   C     0.53828   0.31164   0.75683   0.00000  Uiso   1.00
C662   C     0.47320   0.16531   0.85220   0.00000  Uiso   1.00
C663   C     0.53866   0.02082   0.75610   0.00000  Uiso   1.00
C664   C     0.50084   0.04245   0.74772   0.00000  Uiso   1.00
C665   C     0.46292   0.02164   0.73903   0.00000  Uiso   1.00
C666   C     0.46253   0.31235   0.73965   0.00000  Uiso   1.00
C667   C     0.50010   0.29081   0.74887   0.00000  Uiso   1.00
C668   C     0.65144   0.13505   0.72537   0.00000  Uiso   1.00
C669   C     0.36570   0.13536   0.72588   0.00000  Uiso   1.00
C670   C     0.34917   0.19787   0.77479   0.00000  Uiso   1.00
C671   C     0.63462   0.19784   0.77485   0.00000  Uiso   1.00
C672   C     0.50038   0.08665   0.74913   0.00000  Uiso   1.00
C673   C     0.52679   0.16762   0.64786   0.00000  Uiso   1.00
C674   C     0.59966   0.14554   0.50287   0.00000  Uiso   1.00
C675   C     0.54361   0.16833   0.58903   0.00000  Uiso   1.00
C676   C     0.41356   0.18888   0.93818   0.00000  Uiso   1.00
C677   C     0.40801   0.20926   0.98633   0.00000  Uiso   1.00
C678   C     0.44531   0.20865   0.50753   0.00000  Uiso   1.00
H679   H     0.61704   0.14848   0.57509   0.00000  Uiso   1.00
H680   H     0.56792   0.03656   0.76322   0.00000  Uiso   1.00
H681   H     0.43360   0.03815   0.73198   0.00000  Uiso   1.00
H682   H     0.36075   0.22288   0.79466   0.00000  Uiso   1.00
H683   H     0.61011   0.22278   0.79481   0.00000  Uiso   1.00
H684   H     0.59778   0.10933   0.91434   0.00000  Uiso   1.00
H685   H     0.63383   0.13098   0.97985   0.00000  Uiso   1.00
H686   H     0.47389   0.18698   0.59036   0.00000  Uiso   1.00
N687   N     0.38093   0.16668   0.75001   0.00000  Uiso   1.00
N688   N     0.61906   0.16665   0.75000   0.00000  Uiso   1.00
O689   O     0.46179   0.22775   0.75000   0.00000  Uiso   1.00
O690   O     0.53823   0.22774   0.75000   0.00000  Uiso   1.00
O691   O     0.44280   0.16666   0.82681   0.00000  Uiso   1.00
O692   O     0.51924   0.16665   0.82681   0.00000  Uiso   1.00
O693   O     0.46177   0.10559   0.74999   0.00000  Uiso   1.00
O694   O     0.53821   0.10558   0.74999   0.00000  Uiso   1.00
O695   O     0.48076   0.16668   0.67319   0.00000  Uiso   1.00
O696   O     0.55720   0.16667   0.67319   0.00000  Uiso   1.00
Zn697  Zn    0.44896   0.16667   0.75000   0.00000  Uiso   1.00
Zn698  Zn    0.55104   0.16666   0.75000   0.00000  Uiso   1.00
H699   H     0.43306   0.29640   0.73290   0.00000  Uiso   1.00
C700   C     0.63901   0.09959   0.69747   0.00000  Uiso   1.00
O701   O     0.65059   0.06436   0.70594   0.00000  Uiso   1.00
O702   O     0.61799   0.10606   0.65835   0.00000  Uiso   1.00
H703   H     0.61216   0.07917   0.64163   0.00000  Uiso   1.00
H704   H     0.39091   0.11072   0.70621   0.00000  Uiso   1.00
H705   H     0.38751   0.19499   0.91861   0.00000  Uiso   1.00
C706   C     0.44521   0.24299   0.54533   0.00000  Uiso   1.00
O707   O     0.40729   0.25508   0.57896   0.00000  Uiso   1.00
O708   O     0.48834   0.26244   0.54128   0.00000  Uiso   1.00
H709   H     0.48360   0.28537   0.56911   0.00000  Uiso   1.00
H710   H     0.37716   0.22982   0.50314   0.00000  Uiso   1.00
C711   C     0.52367   0.09230   0.88220   0.00000  Uiso   1.00
O712   O     0.56027   0.07490   0.85262   0.00000  Uiso   1.00
O713   O     0.47851   0.07742   0.88557   0.00000  Uiso   1.00
H714   H     0.48077   0.05179   0.86247   0.00000  Uiso   1.00
H715   H     0.56754   0.29524   0.76416   0.00000  Uiso   1.00
C716   C     0.83324   0.24667   0.74981   0.00000  Uiso   1.00
C717   C     0.81791   0.17971   0.98597   0.00000  Uiso   1.00
C718   C     0.82187   0.15720   0.93838   0.00000  Uiso   1.00
C719   C     0.85319   0.17169   0.50992   0.00000  Uiso   1.00
C720   C     0.89665   0.15059   0.98050   0.00000  Uiso   1.00
C721   C     0.90012   0.12935   0.93341   0.00000  Uiso   1.00
C722   C     0.86028   0.12784   0.91679   0.00000  Uiso   1.00
C723   C     0.84325   0.17822   0.56485   0.00000  Uiso   1.00
C724   C     0.92331   0.15506   0.55723   0.00000  Uiso   1.00
C725   C     0.78943   0.16686   0.91137   0.00000  Uiso   1.00
C726   C     0.87161   0.31164   0.75683   0.00000  Uiso   1.00
C727   C     0.80653   0.16531   0.85220   0.00000  Uiso   1.00
C728   C     0.87199   0.02082   0.75610   0.00000  Uiso   1.00
C729   C     0.83418   0.04245   0.74772   0.00000  Uiso   1.00
C730   C     0.79625   0.02164   0.73903   0.00000  Uiso   1.00
C731   C     0.79587   0.31235   0.73965   0.00000  Uiso   1.00
C732   C     0.83344   0.29081   0.74887   0.00000  Uiso   1.00
C733   C     0.98478   0.13505   0.72537   0.00000  Uiso   1.00
C734   C     0.69904   0.13536   0.72588   0.00000  Uiso   1.00
C735   C     0.68251   0.19787   0.77479   0.00000  Uiso   1.00
C736   C     0.96795   0.19784   0.77485   0.00000  Uiso   1.00
C737   C     0.83371   0.08665   0.74913   0.00000  Uiso   1.00
C738   C     0.86012   0.16762   0.64786   0.00000  Uiso   1.00
C739   C     0.93299   0.14554   0.50287   0.00000  Uiso   1.00
C740   C     0.87695   0.16833   0.58903   0.00000  Uiso   1.00
C741   C     0.74689   0.18888   0.93818   0.00000  Uiso   1.00
C742   C     0.74134   0.20926   0.98633   0.00000  Uiso   1.00
C743   C     0.77865   0.20865   0.50753   0.00000  Uiso   1.00
H744   H     0.95038   0.14848   0.57509   0.00000  Uiso   1.00
H745   H     0.90125   0.03656   0.76322   0.00000  Uiso   1.00
H746   H     0.76693   0.03815   0.73198   0.00000  Uiso   1.00
H747   H     0.69409   0.22288   0.79466   0.00000  Uiso   1.00
H748   H     0.94344   0.22278   0.79481   0.00000  Uiso   1.00
H749   H     0.93111   0.10933   0.91434   0.00000  Uiso   1.00
H750   H     0.96716   0.13098   0.97985   0.00000  Uiso   1.00
H751   H     0.80723   0.18698   0.59036   0.00000  Uiso   1.00
N752   N     0.71426   0.16668   0.75001   0.00000  Uiso   1.00
N753   N     0.95239   0.16665   0.75000   0.00000  Uiso   1.00
O754   O     0.79512   0.22775   0.75000   0.00000  Uiso   1.00
O755   O     0.87157   0.22774   0.75000   0.00000  Uiso   1.00
O756   O     0.77613   0.16666   0.82681   0.00000  Uiso   1.00
O757   O     0.85258   0.16665   0.82681   0.00000  Uiso   1.00
O758   O     0.79510   0.10559   0.74999   0.00000  Uiso   1.00
O759   O     0.87154   0.10558   0.74999   0.00000  Uiso   1.00
O760   O     0.81409   0.16668   0.67319   0.00000  Uiso   1.00
O761   O     0.89053   0.16667   0.67319   0.00000  Uiso   1.00
Zn762  Zn    0.78229   0.16667   0.75000   0.00000  Uiso   1.00
Zn763  Zn    0.88438   0.16666   0.75000   0.00000  Uiso   1.00
H764   H     0.76639   0.29640   0.73290   0.00000  Uiso   1.00
C765   C     0.97234   0.09959   0.69747   0.00000  Uiso   1.00
O766   O     0.98392   0.06436   0.70594   0.00000  Uiso   1.00
O767   O     0.95133   0.10606   0.65835   0.00000  Uiso   1.00
H768   H     0.94550   0.07917   0.64163   0.00000  Uiso   1.00
H769   H     0.72424   0.11072   0.70621   0.00000  Uiso   1.00
H770   H     0.72084   0.19499   0.91861   0.00000  Uiso   1.00
C771   C     0.77855   0.24299   0.54533   0.00000  Uiso   1.00
O772   O     0.74062   0.25508   0.57896   0.00000  Uiso   1.00
O773   O     0.82168   0.26244   0.54128   0.00000  Uiso   1.00
H774   H     0.81693   0.28537   0.56911   0.00000  Uiso   1.00
H775   H     0.71049   0.22982   0.50314   0.00000  Uiso   1.00
C776   C     0.85700   0.09230   0.88220   0.00000  Uiso   1.00
O777   O     0.89360   0.07490   0.85262   0.00000  Uiso   1.00
O778   O     0.81185   0.07742   0.88557   0.00000  Uiso   1.00
H779   H     0.81410   0.05179   0.86247   0.00000  Uiso   1.00
H780   H     0.90088   0.29524   0.76416   0.00000  Uiso   1.00
C781   C     0.16658   0.58000   0.74981   0.00000  Uiso   1.00
C782   C     0.15125   0.51304   0.98597   0.00000  Uiso   1.00
C783   C     0.15520   0.49053   0.93838   0.00000  Uiso   1.00
C784   C     0.18652   0.50502   0.50992   0.00000  Uiso   1.00
C785   C     0.22998   0.48392   0.98050   0.00000  Uiso   1.00
C786   C     0.23345   0.46268   0.93341   0.00000  Uiso   1.00
C787   C     0.19361   0.46118   0.91679   0.00000  Uiso   1.00
C788   C     0.17658   0.51155   0.56485   0.00000  Uiso   1.00
C789   C     0.25664   0.48839   0.55723   0.00000  Uiso   1.00
C790   C     0.12276   0.50020   0.91137   0.00000  Uiso   1.00
C791   C     0.20494   0.64497   0.75683   0.00000  Uiso   1.00
C792   C     0.13987   0.49864   0.85220   0.00000  Uiso   1.00
C793   C     0.20533   0.35415   0.75610   0.00000  Uiso   1.00
C794   C     0.16751   0.37578   0.74772   0.00000  Uiso   1.00
C795   C     0.12958   0.35498   0.73903   0.00000  Uiso   1.00
C796   C     0.12920   0.64568   0.73965   0.00000  Uiso   1.00
C797   C     0.16677   0.62415   0.74887   0.00000  Uiso   1.00
C798   C     0.31811   0.46839   0.72537   0.00000  Uiso   1.00
C799   C     0.03237   0.46869   0.72588   0.00000  Uiso   1.00
C800   C     0.01584   0.53120   0.77479   0.00000  Uiso   1.00
C801   C     0.30128   0.53117   0.77485   0.00000  Uiso   1.00
C802   C     0.16704   0.41998   0.74913   0.00000  Uiso   1.00
C803   C     0.19346   0.50095   0.64786   0.00000  Uiso   1.00
C804   C     0.26632   0.47887   0.50287   0.00000  Uiso   1.00
C805   C     0.21028   0.50167   0.58903   0.00000  Uiso   1.00
C806   C     0.08022   0.52222   0.93818   0.00000  Uiso   1.00
C807   C     0.07467   0.54260   0.98633   0.00000  Uiso   1.00
C808   C     0.11198   0.54199   0.50753   0.00000  Uiso   1.00
H809   H     0.28371   0.48181   0.57509   0.00000  Uiso   1.00
H810   H     0.23458   0.36990   0.76322   0.00000  Uiso   1.00
H811   H     0.10026   0.37149   0.73198   0.00000  Uiso   1.00
H812   H     0.02742   0.55621   0.79466   0.00000  Uiso   1.00
H813   H     0.27678   0.55612   0.79481   0.00000  Uiso   1.00
H814   H     0.26444   0.44266   0.91434   0.00000  Uiso   1.00
H815   H     0.30050   0.46431   0.97985   0.00000  Uiso   1.00
H816   H     0.14056   0.52031   0.59036   0.00000  Uiso   1.00
N817   N     0.04760   0.50001   0.75001   0.00000  Uiso   1.00
N818   N     0.28573   0.49998   0.75000   0.00000  Uiso   1.00
O819   O     0.12846   0.56108   0.75000   0.00000  Uiso   1.00
O820   O     0.20490   0.56107   0.75000   0.00000  Uiso   1.00
O821   O     0.10947   0.50000   0.82681   0.00000  Uiso   1.00
O822   O     0.18591   0.49999   0.82681   0.00000  Uiso   1.00
O823   O     0.12843   0.43893   0.74999   0.00000  Uiso   1.00
O824   O     0.20488   0.43892   0.74999   0.00000  Uiso   1.00
O825   O     0.14742   0.50001   0.67319   0.00000  Uiso   1.00
O826   O     0.22387   0.50000   0.67319   0.00000  Uiso   1.00
Zn827  Zn    0.11562   0.50001   0.75000   0.00000  Uiso   1.00
Zn828  Zn    0.21771   0.49999   0.75000   0.00000  Uiso   1.00
H829   H     0.09973   0.62974   0.73290   0.00000  Uiso   1.00
C830   C     0.30568   0.43292   0.69747   0.00000  Uiso   1.00
O831   O     0.31725   0.39770   0.70594   0.00000  Uiso   1.00
O832   O     0.28466   0.43940   0.65835   0.00000  Uiso   1.00
H833   H     0.27883   0.41251   0.64163   0.00000  Uiso   1.00
H834   H     0.05757   0.44406   0.70621   0.00000  Uiso   1.00
H835   H     0.05417   0.52832   0.91861   0.00000  Uiso   1.00
C836   C     0.11188   0.57633   0.54533   0.00000  Uiso   1.00
O837   O     0.07396   0.58841   0.57896   0.00000  Uiso   1.00
O838   O     0.15501   0.59577   0.54128   0.00000  Uiso   1.00
H839   H     0.15027   0.61871   0.56911   0.00000  Uiso   1.00
H840   H     0.04383   0.56316   0.50314   0.00000  Uiso   1.00
C841   C     0.19033   0.42563   0.88220   0.00000  Uiso   1.00
O842   O     0.22693   0.40824   0.85262   0.00000  Uiso   1.00
O843   O     0.14518   0.41076   0.88557   0.00000  Uiso   1.00
H844   H     0.14743   0.38512   0.86247   0.00000  Uiso   1.00
H845   H     0.23421   0.62858   0.76416   0.00000  Uiso   1.00
C846   C     0.49991   0.58000   0.74981   0.00000  Uiso   1.00
C847   C     0.48458   0.51304   0.98597   0.00000  Uiso   1.00
C848   C     0.48853   0.49053   0.93838   0.00000  Uiso   1.00
C849   C     0.51986   0.50502   0.50992   0.00000  Uiso   1.00
C850   C     0.56332   0.48392   0.98050   0.00000  Uiso   1.00
C851   C     0.56679   0.46268   0.93341   0.00000  Uiso   1.00
C852   C     0.52694   0.46118   0.91679   0.00000  Uiso   1.00
C853   C     0.50991   0.51155   0.56485   0.00000  Uiso   1.00
C854   C     0.58997   0.48839   0.55723   0.00000  Uiso   1.00
C855   C     0.45610   0.50020   0.91137   0.00000  Uiso   1.00
C856   C     0.53828   0.64497   0.75683   0.00000  Uiso   1.00
C857   C     0.47320   0.49864   0.85220   0.00000  Uiso   1.00
C858   C     0.53866   0.35415   0.75610   0.00000  Uiso   1.00
C859   C     0.50084   0.37578   0.74772   0.00000  Uiso   1.00
C860   C     0.46292   0.35498   0.73903   0.00000  Uiso   1.00
C861   C     0.46253   0.64568   0.73965   0.00000  Uiso   1.00
C862   C     0.50010   0.62415   0.74887   0.00000  Uiso   1.00
C863   C     0.65144   0.46839   0.72537   0.00000  Uiso   1.00
C864   C     0.36570   0.46869   0.72588   0.00000  Uiso   1.00
C865   C     0.34917   0.53120   0.77479   0.00000  Uiso   1.00
C866   C     0.63462   0.53117   0.77485   0.00000  Uiso   1.00
C867   C     0.50038   0.41998   0.74913   0.00000  Uiso   1.00
C868   C     0.52679   0.50095   0.64786   0.00000  Uiso   1.00
C869   C     0.59966   0.47887   0.50287   0.00000  Uiso   1.00
C870   C     0.54361   0.50167   0.58903   0.00000  Uiso   1.00
C871   C     0.41356   0.52222   0.93818   0.00000  Uiso   1.00
C872   C     0.40801   0.54260   0.98633   0.00000  Uiso   1.00
C873   C     0.44531   0.54199   0.50753   0.00000  Uiso   1.00
H874   H     0.61704   0.48181   0.57509   0.00000  Uiso   1.00
H875   H     0.56792   0.36990   0.76322   0.00000  Uiso   1.00
H876   H     0.43360   0.37149   0.73198   0.00000  Uiso   1.00
H877   H     0.36075   0.55621   0.79466   0.00000  Uiso   1.00
H878   H     0.61011   0.55612   0.79481   0.00000  Uiso   1.00
H879   H     0.59778   0.44266   0.91434   0.00000  Uiso   1.00
H880   H     0.63383   0.46431   0.97985   0.00000  Uiso   1.00
H881   H     0.47389   0.52031   0.59036   0.00000  Uiso   1.00
N882   N     0.38093   0.50001   0.75001   0.00000  Uiso   1.00
N883   N     0.61906   0.49998   0.75000   0.00000  Uiso   1.00
O884   O     0.46179   0.56108   0.75000   0.00000  Uiso   1.00
O885   O     0.53823   0.56107   0.75000   0.00000  Uiso   1.00
O886   O     0.44280   0.50000   0.82681   0.00000  Uiso   1.00
O887   O     0.51924   0.49999   0.82681   0.00000  Uiso   1.00
O888   O     0.46177   0.43893   0.74999   0.00000  Uiso   1.00
O889   O     0.53821   0.43892   0.74999   0.00000  Uiso   1.00
O890   O     0.48076   0.50001   0.67319   0.00000  Uiso   1.00
O891   O     0.55720   0.50000   0.67319   0.00000  Uiso   1.00
Zn892  Zn    0.44896   0.50001   0.75000   0.00000  Uiso   1.00
Zn893  Zn    0.55104   0.49999   0.75000   0.00000  Uiso   1.00
H894   H     0.43306   0.62974   0.73290   0.00000  Uiso   1.00
C895   C     0.63901   0.43292   0.69747   0.00000  Uiso   1.00
O896   O     0.65059   0.39770   0.70594   0.00000  Uiso   1.00
O897   O     0.61799   0.43940   0.65835   0.00000  Uiso   1.00
H898   H     0.61216   0.41251   0.64163   0.00000  Uiso   1.00
H899   H     0.39091   0.44406   0.70621   0.00000  Uiso   1.00
H900   H     0.38751   0.52832   0.91861   0.00000  Uiso   1.00
C901   C     0.44521   0.57633   0.54533   0.00000  Uiso   1.00
O902   O     0.40729   0.58841   0.57896   0.00000  Uiso   1.00
O903   O     0.48834   0.59577   0.54128   0.00000  Uiso   1.00
H904   H     0.48360   0.61871   0.56911   0.00000  Uiso   1.00
H905   H     0.37716   0.56316   0.50314   0.00000  Uiso   1.00
C906   C     0.52367   0.42563   0.88220   0.00000  Uiso   1.00
O907   O     0.56027   0.40824   0.85262   0.00000  Uiso   1.00
O908   O     0.47851   0.41076   0.88557   0.00000  Uiso   1.00
H909   H     0.48077   0.38512   0.86247   0.00000  Uiso   1.00
H910   H     0.56754   0.62858   0.76416   0.00000  Uiso   1.00
C911   C     0.83324   0.58000   0.74981   0.00000  Uiso   1.00
C912   C     0.81791   0.51304   0.98597   0.00000  Uiso   1.00
C913   C     0.82187   0.49053   0.93838   0.00000  Uiso   1.00
C914   C     0.85319   0.50502   0.50992   0.00000  Uiso   1.00
C915   C     0.89665   0.48392   0.98050   0.00000  Uiso   1.00
C916   C     0.90012   0.46268   0.93341   0.00000  Uiso   1.00
C917   C     0.86028   0.46118   0.91679   0.00000  Uiso   1.00
C918   C     0.84325   0.51155   0.56485   0.00000  Uiso   1.00
C919   C     0.92331   0.48839   0.55723   0.00000  Uiso   1.00
C920   C     0.78943   0.50020   0.91137   0.00000  Uiso   1.00
C921   C     0.87161   0.64497   0.75683   0.00000  Uiso   1.00
C922   C     0.80653   0.49864   0.85220   0.00000  Uiso   1.00
C923   C     0.87199   0.35415   0.75610   0.00000  Uiso   1.00
C924   C     0.83418   0.37578   0.74772   0.00000  Uiso   1.00
C925   C     0.79625   0.35498   0.73903   0.00000  Uiso   1.00
C926   C     0.79587   0.64568   0.73965   0.00000  Uiso   1.00
C927   C     0.83344   0.62415   0.74887   0.00000  Uiso   1.00
C928   C     0.98478   0.46839   0.72537   0.00000  Uiso   1.00
C929   C     0.69904   0.46869   0.72588   0.00000  Uiso   1.00
C930   C     0.68251   0.53120   0.77479   0.00000  Uiso   1.00
C931   C     0.96795   0.53117   0.77485   0.00000  Uiso   1.00
C932   C     0.83371   0.41998   0.74913   0.00000  Uiso   1.00
C933   C     0.86012   0.50095   0.64786   0.00000  Uiso   1.00
C934   C     0.93299   0.47887   0.50287   0.00000  Uiso   1.00
C935   C     0.87695   0.50167   0.58903   0.00000  Uiso   1.00
C936   C     0.74689   0.52222   0.93818   0.00000  Uiso   1.00
C937   C     0.74134   0.54260   0.98633   0.00000  Uiso   1.00
C938   C     0.77865   0.54199   0.50753   0.00000  Uiso   1.00
H939   H     0.95038   0.48181   0.57509   0.00000  Uiso   1.00
H940   H     0.90125   0.36990   0.76322   0.00000  Uiso   1.00
H941   H     0.76693   0.37149   0.73198   0.00000  Uiso   1.00
H942   H     0.69409   0.55621   0.79466   0.00000  Uiso   1.00
H943   H     0.94344   0.55612   0.79481   0.00000  Uiso   1.00
H944   H     0.93111   0.44266   0.91434   0.00000  Uiso   1.00
H945   H     0.96716   0.46431   0.97985   0.00000  Uiso   1.00
H946   H     0.80723   0.52031   0.59036   0.00000  Uiso   1.00
N947   N     0.71426   0.50001   0.75001   0.00000  Uiso   1.00
N948   N     0.95239   0.49998   0.75000   0.00000  Uiso   1.00
O949   O     0.79512   0.56108   0.75000   0.00000  Uiso   1.00
O950   O     0.87157   0.56107   0.75000   0.00000  Uiso   1.00
O951   O     0.77613   0.50000   0.82681   0.00000  Uiso   1.00
O952   O     0.85258   0.49999   0.82681   0.00000  Uiso   1.00
O953   O     0.79510   0.43893   0.74999   0.00000  Uiso   1.00
O954   O     0.87154   0.43892   0.74999   0.00000  Uiso   1.00
O955   O     0.81409   0.50001   0.67319   0.00000  Uiso   1.00
O956   O     0.89053   0.50000   0.67319   0.00000  Uiso   1.00
Zn957  Zn    0.78229   0.50001   0.75000   0.00000  Uiso   1.00
Zn958  Zn    0.88438   0.49999   0.75000   0.00000  Uiso   1.00
H959   H     0.76639   0.62974   0.73290   0.00000  Uiso   1.00
C960   C     0.97234   0.43292   0.69747   0.00000  Uiso   1.00
O961   O     0.98392   0.39770   0.70594   0.00000  Uiso   1.00
O962   O     0.95133   0.43940   0.65835   0.00000  Uiso   1.00
H963   H     0.94550   0.41251   0.64163   0.00000  Uiso   1.00
H964   H     0.72424   0.44406   0.70621   0.00000  Uiso   1.00
H965   H     0.72084   0.52832   0.91861   0.00000  Uiso   1.00
C966   C     0.77855   0.57633   0.54533   0.00000  Uiso   1.00
O967   O     0.74062   0.58841   0.57896   0.00000  Uiso   1.00
O968   O     0.82168   0.59577   0.54128   0.00000  Uiso   1.00
H969   H     0.81693   0.61871   0.56911   0.00000  Uiso   1.00
H970   H     0.71049   0.56316   0.50314   0.00000  Uiso   1.00
C971   C     0.85700   0.42563   0.88220   0.00000  Uiso   1.00
O972   O     0.89360   0.40824   0.85262   0.00000  Uiso   1.00
O973   O     0.81185   0.41076   0.88557   0.00000  Uiso   1.00
H974   H     0.81410   0.38512   0.86247   0.00000  Uiso   1.00
H975   H     0.90088   0.62858   0.76416   0.00000  Uiso   1.00
C976   C     0.16658   0.91334   0.74981   0.00000  Uiso   1.00
C977   C     0.15125   0.84637   0.98597   0.00000  Uiso   1.00
C978   C     0.15520   0.82386   0.93838   0.00000  Uiso   1.00
C979   C     0.18652   0.83835   0.50992   0.00000  Uiso   1.00
C980   C     0.22998   0.81726   0.98050   0.00000  Uiso   1.00
C981   C     0.23345   0.79601   0.93341   0.00000  Uiso   1.00
C982   C     0.19361   0.79451   0.91679   0.00000  Uiso   1.00
C983   C     0.17658   0.84488   0.56485   0.00000  Uiso   1.00
C984   C     0.25664   0.82172   0.55723   0.00000  Uiso   1.00
C985   C     0.12276   0.83353   0.91137   0.00000  Uiso   1.00
C986   C     0.20494   0.97830   0.75683   0.00000  Uiso   1.00
C987   C     0.13987   0.83198   0.85220   0.00000  Uiso   1.00
C988   C     0.20533   0.68748   0.75610   0.00000  Uiso   1.00
C989   C     0.16751   0.70912   0.74772   0.00000  Uiso   1.00
C990   C     0.12958   0.68831   0.73903   0.00000  Uiso   1.00
C991   C     0.12920   0.97901   0.73965   0.00000  Uiso   1.00
C992   C     0.16677   0.95748   0.74887   0.00000  Uiso   1.00
C993   C     0.31811   0.80172   0.72537   0.00000  Uiso   1.00
C994   C     0.03237   0.80203   0.72588   0.00000  Uiso   1.00
C995   C     0.01584   0.86453   0.77479   0.00000  Uiso   1.00
C996   C     0.30128   0.86451   0.77485   0.00000  Uiso   1.00
C997   C     0.16704   0.75331   0.74913   0.00000  Uiso   1.00
C998   C     0.19346   0.83428   0.64786   0.00000  Uiso   1.00
C999   C     0.26632   0.81220   0.50287   0.00000  Uiso   1.00
C1000  C     0.21028   0.83500   0.58903   0.00000  Uiso   1.00
C1001  C     0.08022   0.85555   0.93818   0.00000  Uiso   1.00
C1002  C     0.07467   0.87593   0.98633   0.00000  Uiso   1.00
C1003  C     0.11198   0.87532   0.50753   0.00000  Uiso   1.00
H1004  H     0.28371   0.81514   0.57509   0.00000  Uiso   1.00
H1005  H     0.23458   0.70323   0.76322   0.00000  Uiso   1.00
H1006  H     0.10026   0.70482   0.73198   0.00000  Uiso   1.00
H1007  H     0.02742   0.88955   0.79466   0.00000  Uiso   1.00
H1008  H     0.27678   0.88945   0.79481   0.00000  Uiso   1.00
H1009  H     0.26444   0.77600   0.91434   0.00000  Uiso   1.00
H1010  H     0.30050   0.79765   0.97985   0.00000  Uiso   1.00
H1011  H     0.14056   0.85364   0.59036   0.00000  Uiso   1.00
N1012  N     0.04760   0.83334   0.75001   0.00000  Uiso   1.00
N1013  N     0.28573   0.83331   0.75000   0.00000  Uiso   1.00
O1014  O     0.12846   0.89442   0.75000   0.00000  Uiso   1.00
O1015  O     0.20490   0.89441   0.75000   0.00000  Uiso   1.00
O1016  O     0.10947   0.83333   0.82681   0.00000  Uiso   1.00
O1017  O     0.18591   0.83332   0.82681   0.00000  Uiso   1.00
O1018  O     0.12843   0.77226   0.74999   0.00000  Uiso   1.00
O1019  O     0.20488   0.77225   0.74999   0.00000  Uiso   1.00
O1020  O     0.14742   0.83335   0.67319   0.00000  Uiso   1.00
O1021  O     0.22387   0.83334   0.67319   0.00000  Uiso   1.00
Zn1022 Zn    0.11562   0.83334   0.75000   0.00000  Uiso   1.00
Zn1023 Zn    0.21771   0.83333   0.75000   0.00000  Uiso   1.00
H1024  H     0.09973   0.96307   0.73290   0.00000  Uiso   1.00
C1025  C     0.30568   0.76625   0.69747   0.00000  Uiso   1.00
O1026  O     0.31725   0.73103   0.70594   0.00000  Uiso   1.00
O1027  O     0.28466   0.77273   0.65835   0.00000  Uiso   1.00
H1028  H     0.27883   0.74584   0.64163   0.00000  Uiso   1.00
H1029  H     0.05757   0.77739   0.70621   0.00000  Uiso   1.00
H1030  H     0.05417   0.86165   0.91861   0.00000  Uiso   1.00
C1031  C     0.11188   0.90966   0.54533   0.00000  Uiso   1.00
O1032  O     0.07396   0.92174   0.57896   0.00000  Uiso   1.00
O1033  O     0.15501   0.92911   0.54128   0.00000  Uiso   1.00
H1034  H     0.15027   0.95204   0.56911   0.00000  Uiso   1.00
H1035  H     0.04383   0.89649   0.50314   0.00000  Uiso   1.00
C1036  C     0.19033   0.75896   0.88220   0.00000  Uiso   1.00
O1037  O     0.22693   0.74157   0.85262   0.00000  Uiso   1.00
O1038  O     0.14518   0.74409   0.88557   0.00000  Uiso   1.00
H1039  H     0.14743   0.71845   0.86247   0.00000  Uiso   1.00
H1040  H     0.23421   0.96191   0.76416   0.00000  Uiso   1.00
C1041  C     0.49991   0.91334   0.74981   0.00000  Uiso   1.00
C1042  C     0.48458   0.84637   0.98597   0.00000  Uiso   1.00
C1043  C     0.48853   0.82386   0.93838   0.00000  Uiso   1.00
C1044  C     0.51986   0.83835   0.50992   0.00000  Uiso   1.00
C1045  C     0.56332   0.81726   0.98050   0.00000  Uiso   1.00
C1046  C     0.56679   0.79601   0.93341   0.00000  Uiso   1.00
C1047  C     0.52694   0.79451   0.91679   0.00000  Uiso   1.00
C1048  C     0.50991   0.84488   0.56485   0.00000  Uiso   1.00
C1049  C     0.58997   0.82172   0.55723   0.00000  Uiso   1.00
C1050  C     0.45610   0.83353   0.91137   0.00000  Uiso   1.00
C1051  C     0.53828   0.97830   0.75683   0.00000  Uiso   1.00
C1052  C     0.47320   0.83198   0.85220   0.00000  Uiso   1.00
C1053  C     0.53866   0.68748   0.75610   0.00000  Uiso   1.00
C1054  C     0.50084   0.70912   0.74772   0.00000  Uiso   1.00
C1055  C     0.46292   0.68831   0.73903   0.00000  Uiso   1.00
C1056  C     0.46253   0.97901   0.73965   0.00000  Uiso   1.00
C1057  C     0.50010   0.95748   0.74887   0.00000  Uiso   1.00
C1058  C     0.65144   0.80172   0.72537   0.00000  Uiso   1.00
C1059  C     0.36570   0.80203   0.72588   0.00000  Uiso   1.00
C1060  C     0.34917   0.86453   0.77479   0.00000  Uiso   1.00
C1061  C     0.63462   0.86451   0.77485   0.00000  Uiso   1.00
C1062  C     0.50038   0.75331   0.74913   0.00000  Uiso   1.00
C1063  C     0.52679   0.83428   0.64786   0.00000  Uiso   1.00
C1064  C     0.59966   0.81220   0.50287   0.00000  Uiso   1.00
C1065  C     0.54361   0.83500   0.58903   0.00000  Uiso   1.00
C1066  C     0.41356   0.85555   0.93818   0.00000  Uiso   1.00
C1067  C     0.40801   0.87593   0.98633   0.00000  Uiso   1.00
C1068  C     0.44531   0.87532   0.50753   0.00000  Uiso   1.00
H1069  H     0.61704   0.81514   0.57509   0.00000  Uiso   1.00
H1070  H     0.56792   0.70323   0.76322   0.00000  Uiso   1.00
H1071  H     0.43360   0.70482   0.73198   0.00000  Uiso   1.00
H1072  H     0.36075   0.88955   0.79466   0.00000  Uiso   1.00
H1073  H     0.61011   0.88945   0.79481   0.00000  Uiso   1.00
H1074  H     0.59778   0.77600   0.91434   0.00000  Uiso   1.00
H1075  H     0.63383   0.79765   0.97985   0.00000  Uiso   1.00
H1076  H     0.47389   0.85364   0.59036   0.00000  Uiso   1.00
N1077  N     0.38093   0.83334   0.75001   0.00000  Uiso   1.00
N1078  N     0.61906   0.83331   0.75000   0.00000  Uiso   1.00
O1079  O     0.46179   0.89442   0.75000   0.00000  Uiso   1.00
O1080  O     0.53823   0.89441   0.75000   0.00000  Uiso   1.00
O1081  O     0.44280   0.83333   0.82681   0.00000  Uiso   1.00
O1082  O     0.51924   0.83332   0.82681   0.00000  Uiso   1.00
O1083  O     0.46177   0.77226   0.74999   0.00000  Uiso   1.00
O1084  O     0.53821   0.77225   0.74999   0.00000  Uiso   1.00
O1085  O     0.48076   0.83335   0.67319   0.00000  Uiso   1.00
O1086  O     0.55720   0.83334   0.67319   0.00000  Uiso   1.00
Zn1087 Zn    0.44896   0.83334   0.75000   0.00000  Uiso   1.00
Zn1088 Zn    0.55104   0.83333   0.75000   0.00000  Uiso   1.00
H1089  H     0.43306   0.96307   0.73290   0.00000  Uiso   1.00
C1090  C     0.63901   0.76625   0.69747   0.00000  Uiso   1.00
O1091  O     0.65059   0.73103   0.70594   0.00000  Uiso   1.00
O1092  O     0.61799   0.77273   0.65835   0.00000  Uiso   1.00
H1093  H     0.61216   0.74584   0.64163   0.00000  Uiso   1.00
H1094  H     0.39091   0.77739   0.70621   0.00000  Uiso   1.00
H1095  H     0.38751   0.86165   0.91861   0.00000  Uiso   1.00
C1096  C     0.44521   0.90966   0.54533   0.00000  Uiso   1.00
O1097  O     0.40729   0.92174   0.57896   0.00000  Uiso   1.00
O1098  O     0.48834   0.92911   0.54128   0.00000  Uiso   1.00
H1099  H     0.48360   0.95204   0.56911   0.00000  Uiso   1.00
H1100  H     0.37716   0.89649   0.50314   0.00000  Uiso   1.00
C1101  C     0.52367   0.75896   0.88220   0.00000  Uiso   1.00
O1102  O     0.56027   0.74157   0.85262   0.00000  Uiso   1.00
O1103  O     0.47851   0.74409   0.88557   0.00000  Uiso   1.00
H1104  H     0.48077   0.71845   0.86247   0.00000  Uiso   1.00
H1105  H     0.56754   0.96191   0.76416   0.00000  Uiso   1.00
C1106  C     0.83324   0.91334   0.74981   0.00000  Uiso   1.00
C1107  C     0.81791   0.84637   0.98597   0.00000  Uiso   1.00
C1108  C     0.82187   0.82386   0.93838   0.00000  Uiso   1.00
C1109  C     0.85319   0.83835   0.50992   0.00000  Uiso   1.00
C1110  C     0.89665   0.81726   0.98050   0.00000  Uiso   1.00
C1111  C     0.90012   0.79601   0.93341   0.00000  Uiso   1.00
C1112  C     0.86028   0.79451   0.91679   0.00000  Uiso   1.00
C1113  C     0.84325   0.84488   0.56485   0.00000  Uiso   1.00
C1114  C     0.92331   0.82172   0.55723   0.00000  Uiso   1.00
C1115  C     0.78943   0.83353   0.91137   0.00000  Uiso   1.00
C1116  C     0.87161   0.97830   0.75683   0.00000  Uiso   1.00
C1117  C     0.80653   0.83198   0.85220   0.00000  Uiso   1.00
C1118  C     0.87199   0.68748   0.75610   0.00000  Uiso   1.00
C1119  C     0.83418   0.70912   0.74772   0.00000  Uiso   1.00
C1120  C     0.79625   0.68831   0.73903   0.00000  Uiso   1.00
C1121  C     0.79587   0.97901   0.73965   0.00000  Uiso   1.00
C1122  C     0.83344   0.95748   0.74887   0.00000  Uiso   1.00
C1123  C     0.98478   0.80172   0.72537   0.00000  Uiso   1.00
C1124  C     0.69904   0.80203   0.72588   0.00000  Uiso   1.00
C1125  C     0.68251   0.86453   0.77479   0.00000  Uiso   1.00
C1126  C     0.96795   0.86451   0.77485   0.00000  Uiso   1.00
C1127  C     0.83371   0.75331   0.74913   0.00000  Uiso   1.00
C1128  C     0.86012   0.83428   0.64786   0.00000  Uiso   1.00
C1129  C     0.93299   0.81220   0.50287   0.00000  Uiso   1.00
C1130  C     0.87695   0.83500   0.58903   0.00000  Uiso   1.00
C1131  C     0.74689   0.85555   0.93818   0.00000  Uiso   1.00
C1132  C     0.74134   0.87593   0.98633   0.00000  Uiso   1.00
C1133  C     0.77865   0.87532   0.50753   0.00000  Uiso   1.00
H1134  H     0.95038   0.81514   0.57509   0.00000  Uiso   1.00
H1135  H     0.90125   0.70323   0.76322   0.00000  Uiso   1.00
H1136  H     0.76693   0.70482   0.73198   0.00000  Uiso   1.00
H1137  H     0.69409   0.88955   0.79466   0.00000  Uiso   1.00
H1138  H     0.94344   0.88945   0.79481   0.00000  Uiso   1.00
H1139  H     0.93111   0.77600   0.91434   0.00000  Uiso   1.00
H1140  H     0.96716   0.79765   0.97985   0.00000  Uiso   1.00
H1141  H     0.80723   0.85364   0.59036   0.00000  Uiso   1.00
N1142  N     0.71426   0.83334   0.75001   0.00000  Uiso   1.00
N1143  N     0.95239   0.83331   0.75000   0.00000  Uiso   1.00
O1144  O     0.79512   0.89442   0.75000   0.00000  Uiso   1.00
O1145  O     0.87157   0.89441   0.75000   0.00000  Uiso   1.00
O1146  O     0.77613   0.83333   0.82681   0.00000  Uiso   1.00
O1147  O     0.85258   0.83332   0.82681   0.00000  Uiso   1.00
O1148  O     0.79510   0.77226   0.74999   0.00000  Uiso   1.00
O1149  O     0.87154   0.77225   0.74999   0.00000  Uiso   1.00
O1150  O     0.81409   0.83335   0.67319   0.00000  Uiso   1.00
O1151  O     0.89053   0.83334   0.67319   0.00000  Uiso   1.00
Zn1152 Zn    0.78229   0.83334   0.75000   0.00000  Uiso   1.00
Zn1153 Zn    0.88438   0.83333   0.75000   0.00000  Uiso   1.00
H1154  H     0.76639   0.96307   0.73290   0.00000  Uiso   1.00
C1155  C     0.97234   0.76625   0.69747   0.00000  Uiso   1.00
O1156  O     0.98392   0.73103   0.70594   0.00000  Uiso   1.00
O1157  O     0.95133   0.77273   0.65835   0.00000  Uiso   1.00
H1158  H     0.94550   0.74584   0.64163   0.00000  Uiso   1.00
H1159  H     0.72424   0.77739   0.70621   0.00000  Uiso   1.00
H1160  H     0.72084   0.86165   0.91861   0.00000  Uiso   1.00
C1161  C     0.77855   0.90966   0.54533   0.00000  Uiso   1.00
O1162  O     0.74062   0.92174   0.57896   0.00000  Uiso   1.00
O1163  O     0.82168   0.92911   0.54128   0.00000  Uiso   1.00
H1164  H     0.81693   0.95204   0.56911   0.00000  Uiso   1.00
H1165  H     0.71049   0.89649   0.50314   0.00000  Uiso   1.00
C1166  C     0.85700   0.75896   0.88220   0.00000  Uiso   1.00
O1167  O     0.89360   0.74157   0.85262   0.00000  Uiso   1.00
O1168  O     0.81185   0.74409   0.88557   0.00000  Uiso   1.00
H1169  H     0.81410   0.71845   0.86247   0.00000  Uiso   1.00
H1170  H     0.90088   0.96191   0.76416   0.00000  Uiso   1.00
loop_
_geom_bond_atom_site_label_1
_geom_bond_atom_site_label_2
_geom_bond_distance
_geom_bond_site_symmetry_2
_ccdc_geom_bond_type
C1     C17     1.420   .     S
C1     O39     1.287   .     A
C1     O40     1.284   .     A
C2     C3      1.417   .     A
C2     C589    1.418   .     S
C2     C613    1.436   .     S
C3     C7      1.427   .     A
C3     C10     1.413   .     A
C4     C8      1.389   .     A
C4     C587    1.418   1_554 S
C4     C590    1.416   1_554 S
C5     C6      1.388   .     A
C5     C589    1.416   .     S
C5     C609    1.404   .     S
C6     C7      1.396   .     A
C6     H34     1.085   .     S
C7     C61     1.487   .     S
C8     H36     1.079   .     S
C8     C25     1.393   .     A
C9     C24     1.393   .     A
C9     H29     1.081   .     S
C9     C25     1.399   .     A
C10    C26     1.397   .     A
C10    C12     1.463   .     S
C11    H65     1.084   .     S
C11    C17     1.397   .     A
C11    C208    1.368   .     S
C12    O42     1.295   .     A
C12    O41     1.296   .     A
C13    C14     1.395   .     A
C13    H30     1.079   .     S
C13    C401    1.368   1_545 S
C14    C22     1.422   .     S
C14    C15     1.399   .     A
C15    H31     1.084   .     S
C15    C406    1.371   1_545 S
C16    H49     1.084   .     S
C16    C17     1.397   .     A
C16    C210    1.371   .     S
C18    N38     1.386   .     A
C18    C50     1.475   .     S
C18    C84     1.415   .     S
C19    H54     1.083   .     S
C19    N37     1.353   .     A
C19    C148    1.415   1_455 S
C20    N37     1.368   .     A
C20    H32     1.082   .     S
C20    C151    1.418   1_455 S
C21    H33     1.082   .     S
C21    N38     1.366   .     A
C21    C85     1.418   .     S
C22    O43     1.284   .     A
C22    O44     1.288   .     A
C23    O45     1.293   .     A
C23    O46     1.295   .     A
C23    C25     1.454   .     S
C24    C590    1.404   1_554 S
C24    H620    1.084   1_554 S
C26    H55     1.084   .     S
C26    C27     1.386   .     A
C27    C613    1.401   .     S
C27    H645    1.084   .     S
C28    C56     1.487   .     S
C28    C587    1.436   1_554 S
C28    C612    1.401   1_554 S
H35    C609    1.084   .     S
N37    Zn47    2.015   .     S
N38    Zn48    2.015   .     S
O39    Zn47    2.005   .     S
O40    Zn48    1.997   .     S
O41    Zn47    1.968   .     S
O42    Zn48    1.912   .     S
O43    Zn47    1.997   .     S
O44    Zn48    2.005   .     S
O45    Zn47    1.912   .     S
O46    Zn48    1.968   .     S
C50    O52     1.392   .     S
C50    O51     1.223   .     D
O52    H53     1.014   .     S
C56    O58     1.399   .     S
C56    O57     1.223   .     D
O58    H59     1.014   .     S
H60    C612    1.084   1_554 S
C61    O62     1.223   .     D
C61    O63     1.399   .     S
O63    H64     1.013   .     S
C66    C82     1.420   .     S
C66    O104    1.287   .     A
C66    O105    1.284   .     A
C67    C68     1.417   .     A
C67    C654    1.418   .     S
C67    C678    1.436   .     S
C68    C72     1.427   .     A
C68    C75     1.413   .     A
C69    C73     1.389   .     A
C69    C652    1.418   1_554 S
C69    C655    1.416   1_554 S
C70    C71     1.388   .     A
C70    C654    1.416   .     S
C70    C674    1.404   .     S
C71    C72     1.396   .     A
C71    H99     1.085   .     S
C72    C126    1.487   .     S
C73    H101    1.079   .     S
C73    C90     1.393   .     A
C74    C89     1.393   .     A
C74    H94     1.081   .     S
C74    C90     1.399   .     A
C75    C91     1.397   .     A
C75    C77     1.463   .     S
C76    H130    1.084   .     S
C76    C82     1.397   .     A
C76    C273    1.368   .     S
C77    O107    1.295   .     A
C77    O106    1.296   .     A
C78    C79     1.395   .     A
C78    H95     1.079   .     S
C78    C466    1.368   1_545 S
C79    C87     1.422   .     S
C79    C80     1.399   .     A
C80    H96     1.084   .     S
C80    C471    1.371   1_545 S
C81    H114    1.084   .     S
C81    C82     1.397   .     A
C81    C275    1.371   .     S
C83    N103    1.386   .     A
C83    C115    1.475   .     S
C83    C149    1.415   .     S
C84    H119    1.083   .     S
C84    N102    1.353   .     A
C85    N102    1.368   .     A
C85    H97     1.082   .     S
C86    H98     1.082   .     S
C86    N103    1.366   .     A
C86    C150    1.418   .     S
C87    O108    1.284   .     A
C87    O109    1.288   .     A
C88    O110    1.293   .     A
C88    O111    1.295   .     A
C88    C90     1.454   .     S
C89    C655    1.404   1_554 S
C89    H685    1.084   1_554 S
C91    H120    1.084   .     S
C91    C92     1.386   .     A
C92    C678    1.401   .     S
C92    H710    1.084   .     S
C93    C121    1.487   .     S
C93    C652    1.436   1_554 S
C93    C677    1.401   1_554 S
H100   C674    1.084   .     S
N102   Zn112   2.015   .     S
N103   Zn113   2.015   .     S
O104   Zn112   2.005   .     S
O105   Zn113   1.997   .     S
O106   Zn112   1.968   .     S
O107   Zn113   1.912   .     S
O108   Zn112   1.997   .     S
O109   Zn113   2.005   .     S
O110   Zn112   1.912   .     S
O111   Zn113   1.968   .     S
C115   O117    1.392   .     S
C115   O116    1.223   .     D
O117   H118    1.014   .     S
C121   O123    1.399   .     S
C121   O122    1.223   .     D
O123   H124    1.014   .     S
H125   C677    1.084   1_554 S
C126   O127    1.223   .     D
C126   O128    1.399   .     S
O128   H129    1.013   .     S
C131   C147    1.420   .     S
C131   O169    1.287   .     A
C131   O170    1.284   .     A
C132   C133    1.417   .     A
C132   C719    1.418   .     S
C132   C743    1.436   .     S
C133   C137    1.427   .     A
C133   C140    1.413   .     A
C134   C138    1.389   .     A
C134   C717    1.418   1_554 S
C134   C720    1.416   1_554 S
C135   C136    1.388   .     A
C135   C719    1.416   .     S
C135   C739    1.404   .     S
C136   C137    1.396   .     A
C136   H164    1.085   .     S
C137   C191    1.487   .     S
C138   H166    1.079   .     S
C138   C155    1.393   .     A
C139   C154    1.393   .     A
C139   H159    1.081   .     S
C139   C155    1.399   .     A
C140   C156    1.397   .     A
C140   C142    1.463   .     S
C141   H195    1.084   .     S
C141   C147    1.397   .     A
C141   C338    1.368   .     S
C142   O172    1.295   .     A
C142   O171    1.296   .     A
C143   C144    1.395   .     A
C143   H160    1.079   .     S
C143   C531    1.368   1_545 S
C144   C152    1.422   .     S
C144   C145    1.399   .     A
C145   H161    1.084   .     S
C145   C536    1.371   1_545 S
C146   H179    1.084   .     S
C146   C147    1.397   .     A
C146   C340    1.371   .     S
C148   N168    1.386   .     A
C148   C180    1.475   .     S
C148   C19     1.415   1_655 S
C149   H184    1.083   .     S
C149   N167    1.353   .     A
C150   N167    1.368   .     A
C150   H162    1.082   .     S
C151   H163    1.082   .     S
C151   N168    1.366   .     A
C151   C20     1.418   1_655 S
C152   O173    1.284   .     A
C152   O174    1.288   .     A
C153   O175    1.293   .     A
C153   O176    1.295   .     A
C153   C155    1.454   .     S
C154   C720    1.404   1_554 S
C154   H750    1.084   1_554 S
C156   H185    1.084   .     S
C156   C157    1.386   .     A
C157   C743    1.401   .     S
C157   H775    1.084   .     S
C158   C186    1.487   .     S
C158   C717    1.436   1_554 S
C158   C742    1.401   1_554 S
H165   C739    1.084   .     S
N167   Zn177   2.015   .     S
N168   Zn178   2.015   .     S
O169   Zn177   2.005   .     S
O170   Zn178   1.997   .     S
O171   Zn177   1.968   .     S
O172   Zn178   1.912   .     S
O173   Zn177   1.997   .     S
O174   Zn178   2.005   .     S
O175   Zn177   1.912   .     S
O176   Zn178   1.968   .     S
C180   O182    1.392   .     S
C180   O181    1.223   .     D
O182   H183    1.014   .     S
C186   O188    1.399   .     S
C186   O187    1.223   .     D
O188   H189    1.014   .     S
H190   C742    1.084   1_554 S
C191   O192    1.223   .     D
C191   O193    1.399   .     S
O193   H194    1.013   .     S
C196   C212    1.420   .     S
C196   O234    1.287   .     A
C196   O235    1.284   .     A
C197   C198    1.417   .     A
C197   C784    1.418   .     S
C197   C808    1.436   .     S
C198   C202    1.427   .     A
C198   C205    1.413   .     A
C199   C203    1.389   .     A
C199   C782    1.418   1_554 S
C199   C785    1.416   1_554 S
C200   C201    1.388   .     A
C200   C784    1.416   .     S
C200   C804    1.404   .     S
C201   C202    1.396   .     A
C201   H229    1.085   .     S
C202   C256    1.487   .     S
C203   H231    1.079   .     S
C203   C220    1.393   .     A
C204   C219    1.393   .     A
C204   H224    1.081   .     S
C204   C220    1.399   .     A
C205   C221    1.397   .     A
C205   C207    1.463   .     S
C206   H260    1.084   .     S
C206   C212    1.397   .     A
C206   C403    1.368   .     S
C207   O237    1.295   .     A
C207   O236    1.296   .     A
C208   C209    1.395   .     A
C208   H225    1.079   .     S
C209   C217    1.422   .     S
C209   C210    1.399   .     A
C210   H226    1.084   .     S
C211   H244    1.084   .     S
C211   C212    1.397   .     A
C211   C405    1.371   .     S
C213   N233    1.386   .     A
C213   C245    1.475   .     S
C213   C279    1.415   .     S
C214   H249    1.083   .     S
C214   N232    1.353   .     A
C214   C343    1.415   1_455 S
C215   N232    1.368   .     A
C215   H227    1.082   .     S
C215   C346    1.418   1_455 S
C216   H228    1.082   .     S
C216   N233    1.366   .     A
C216   C280    1.418   .     S
C217   O238    1.284   .     A
C217   O239    1.288   .     A
C218   O240    1.293   .     A
C218   O241    1.295   .     A
C218   C220    1.454   .     S
C219   C785    1.404   1_554 S
C219   H815    1.084   1_554 S
C221   H250    1.084   .     S
C221   C222    1.386   .     A
C222   C808    1.401   .     S
C222   H840    1.084   .     S
C223   C251    1.487   .     S
C223   C782    1.436   1_554 S
C223   C807    1.401   1_554 S
H230   C804    1.084   .     S
N232   Zn242   2.015   .     S
N233   Zn243   2.015   .     S
O234   Zn242   2.005   .     S
O235   Zn243   1.997   .     S
O236   Zn242   1.968   .     S
O237   Zn243   1.912   .     S
O238   Zn242   1.997   .     S
O239   Zn243   2.005   .     S
O240   Zn242   1.912   .     S
O241   Zn243   1.968   .     S
C245   O247    1.392   .     S
C245   O246    1.223   .     D
O247   H248    1.014   .     S
C251   O253    1.399   .     S
C251   O252    1.223   .     D
O253   H254    1.014   .     S
H255   C807    1.084   1_554 S
C256   O257    1.223   .     D
C256   O258    1.399   .     S
O258   H259    1.013   .     S
C261   C277    1.420   .     S
C261   O299    1.287   .     A
C261   O300    1.284   .     A
C262   C263    1.417   .     A
C262   C849    1.418   .     S
C262   C873    1.436   .     S
C263   C267    1.427   .     A
C263   C270    1.413   .     A
C264   C268    1.389   .     A
C264   C847    1.418   1_554 S
C264   C850    1.416   1_554 S
C265   C266    1.388   .     A
C265   C849    1.416   .     S
C265   C869    1.404   .     S
C266   C267    1.396   .     A
C266   H294    1.085   .     S
C267   C321    1.487   .     S
C268   H296    1.079   .     S
C268   C285    1.393   .     A
C269   C284    1.393   .     A
C269   H289    1.081   .     S
C269   C285    1.399   .     A
C270   C286    1.397   .     A
C270   C272    1.463   .     S
C271   H325    1.084   .     S
C271   C277    1.397   .     A
C271   C468    1.368   .     S
C272   O302    1.295   .     A
C272   O301    1.296   .     A
C273   C274    1.395   .     A
C273   H290    1.079   .     S
C274   C282    1.422   .     S
C274   C275    1.399   .     A
C275   H291    1.084   .     S
C276   H309    1.084   .     S
C276   C277    1.397   .     A
C276   C470    1.371   .     S
C278   N298    1.386   .     A
C278   C310    1.475   .     S
C278   C344    1.415   .     S
C279   H314    1.083   .     S
C279   N297    1.353   .     A
C280   N297    1.368   .     A
C280   H292    1.082   .     S
C281   H293    1.082   .     S
C281   N298    1.366   .     A
C281   C345    1.418   .     S
C282   O303    1.284   .     A
C282   O304    1.288   .     A
C283   O305    1.293   .     A
C283   O306    1.295   .     A
C283   C285    1.454   .     S
C284   C850    1.404   1_554 S
C284   H880    1.084   1_554 S
C286   H315    1.084   .     S
C286   C287    1.386   .     A
C287   C873    1.401   .     S
C287   H905    1.084   .     S
C288   C316    1.487   .     S
C288   C847    1.436   1_554 S
C288   C872    1.401   1_554 S
H295   C869    1.084   .     S
N297   Zn307   2.015   .     S
N298   Zn308   2.015   .     S
O299   Zn307   2.005   .     S
O300   Zn308   1.997   .     S
O301   Zn307   1.968   .     S
O302   Zn308   1.912   .     S
O303   Zn307   1.997   .     S
O304   Zn308   2.005   .     S
O305   Zn307   1.912   .     S
O306   Zn308   1.968   .     S
C310   O312    1.392   .     S
C310   O311    1.223   .     D
O312   H313    1.014   .     S
C316   O318    1.399   .     S
C316   O317    1.223   .     D
O318   H319    1.014   .     S
H320   C872    1.084   1_554 S
C321   O322    1.223   .     D
C321   O323    1.399   .     S
O323   H324    1.013   .     S
C326   C342    1.420   .     S
C326   O364    1.287   .     A
C326   O365    1.284   .     A
C327   C328    1.417   .     A
C327   C914    1.418   .     S
C327   C938    1.436   .     S
C328   C332    1.427   .     A
C328   C335    1.413   .     A
C329   C333    1.389   .     A
C329   C912    1.418   1_554 S
C329   C915    1.416   1_554 S
C330   C331    1.388   .     A
C330   C914    1.416   .     S
C330   C934    1.404   .     S
C331   C332    1.396   .     A
C331   H359    1.085   .     S
C332   C386    1.487   .     S
C333   H361    1.079   .     S
C333   C350    1.393   .     A
C334   C349    1.393   .     A
C334   H354    1.081   .     S
C334   C350    1.399   .     A
C335   C351    1.397   .     A
C335   C337    1.463   .     S
C336   H390    1.084   .     S
C336   C342    1.397   .     A
C336   C533    1.368   .     S
C337   O367    1.295   .     A
C337   O366    1.296   .     A
C338   C339    1.395   .     A
C338   H355    1.079   .     S
C339   C347    1.422   .     S
C339   C340    1.399   .     A
C340   H356    1.084   .     S
C341   H374    1.084   .     S
C341   C342    1.397   .     A
C341   C535    1.371   .     S
C343   N363    1.386   .     A
C343   C375    1.475   .     S
C343   C214    1.415   1_655 S
C344   H379    1.083   .     S
C344   N362    1.353   .     A
C345   N362    1.368   .     A
C345   H357    1.082   .     S
C346   H358    1.082   .     S
C346   N363    1.366   .     A
C346   C215    1.418   1_655 S
C347   O368    1.284   .     A
C347   O369    1.288   .     A
C348   O370    1.293   .     A
C348   O371    1.295   .     A
C348   C350    1.454   .     S
C349   C915    1.404   1_554 S
C349   H945    1.084   1_554 S
C351   H380    1.084   .     S
C351   C352    1.386   .     A
C352   C938    1.401   .     S
C352   H970    1.084   .     S
C353   C381    1.487   .     S
C353   C912    1.436   1_554 S
C353   C937    1.401   1_554 S
H360   C934    1.084   .     S
N362   Zn372   2.015   .     S
N363   Zn373   2.015   .     S
O364   Zn372   2.005   .     S
O365   Zn373   1.997   .     S
O366   Zn372   1.968   .     S
O367   Zn373   1.912   .     S
O368   Zn372   1.997   .     S
O369   Zn373   2.005   .     S
O370   Zn372   1.912   .     S
O371   Zn373   1.968   .     S
C375   O377    1.392   .     S
C375   O376    1.223   .     D
O377   H378    1.014   .     S
C381   O383    1.399   .     S
C381   O382    1.223   .     D
O383   H384    1.014   .     S
H385   C937    1.084   1_554 S
C386   O387    1.223   .     D
C386   O388    1.399   .     S
O388   H389    1.013   .     S
C391   C407    1.420   .     S
C391   O429    1.287   .     A
C391   O430    1.284   .     A
C392   C393    1.417   .     A
C392   C979    1.418   .     S
C392   C1003   1.436   .     S
C393   C397    1.427   .     A
C393   C400    1.413   .     A
C394   C398    1.389   .     A
C394   C977    1.418   1_554 S
C394   C980    1.416   1_554 S
C395   C396    1.388   .     A
C395   C979    1.416   .     S
C395   C999    1.404   .     S
C396   C397    1.396   .     A
C396   H424    1.085   .     S
C397   C451    1.487   .     S
C398   H426    1.079   .     S
C398   C415    1.393   .     A
C399   C414    1.393   .     A
C399   H419    1.081   .     S
C399   C415    1.399   .     A
C400   C416    1.397   .     A
C400   C402    1.463   .     S
C401   H455    1.084   .     S
C401   C407    1.397   .     A
C401   C13     1.368   1_565 S
C402   O432    1.295   .     A
C402   O431    1.296   .     A
C403   C404    1.395   .     A
C403   H420    1.079   .     S
C404   C412    1.422   .     S
C404   C405    1.399   .     A
C405   H421    1.084   .     S
C406   H439    1.084   .     S
C406   C407    1.397   .     A
C406   C15     1.371   1_565 S
C408   N428    1.386   .     A
C408   C440    1.475   .     S
C408   C474    1.415   .     S
C409   H444    1.083   .     S
C409   N427    1.353   .     A
C409   C538    1.415   1_455 S
C410   N427    1.368   .     A
C410   H422    1.082   .     S
C410   C541    1.418   1_455 S
C411   H423    1.082   .     S
C411   N428    1.366   .     A
C411   C475    1.418   .     S
C412   O433    1.284   .     A
C412   O434    1.288   .     A
C413   O435    1.293   .     A
C413   O436    1.295   .     A
C413   C415    1.454   .     S
C414   C980    1.404   1_554 S
C414   H1010   1.084   1_554 S
C416   H445    1.084   .     S
C416   C417    1.386   .     A
C417   C1003   1.401   .     S
C417   H1035   1.084   .     S
C418   C446    1.487   .     S
C418   C977    1.436   1_554 S
C418   C1002   1.401   1_554 S
H425   C999    1.084   .     S
N427   Zn437   2.015   .     S
N428   Zn438   2.015   .     S
O429   Zn437   2.005   .     S
O430   Zn438   1.997   .     S
O431   Zn437   1.968   .     S
O432   Zn438   1.912   .     S
O433   Zn437   1.997   .     S
O434   Zn438   2.005   .     S
O435   Zn437   1.912   .     S
O436   Zn438   1.968   .     S
C440   O442    1.392   .     S
C440   O441    1.223   .     D
O442   H443    1.014   .     S
C446   O448    1.399   .     S
C446   O447    1.223   .     D
O448   H449    1.014   .     S
H450   C1002   1.084   1_554 S
C451   O452    1.223   .     D
C451   O453    1.399   .     S
O453   H454    1.013   .     S
C456   C472    1.420   .     S
C456   O494    1.287   .     A
C456   O495    1.284   .     A
C457   C458    1.417   .     A
C457   C1044   1.418   .     S
C457   C1068   1.436   .     S
C458   C462    1.427   .     A
C458   C465    1.413   .     A
C459   C463    1.389   .     A
C459   C1042   1.418   1_554 S
C459   C1045   1.416   1_554 S
C460   C461    1.388   .     A
C460   C1044   1.416   .     S
C460   C1064   1.404   .     S
C461   C462    1.396   .     A
C461   H489    1.085   .     S
C462   C516    1.487   .     S
C463   H491    1.079   .     S
C463   C480    1.393   .     A
C464   C479    1.393   .     A
C464   H484    1.081   .     S
C464   C480    1.399   .     A
C465   C481    1.397   .     A
C465   C467    1.463   .     S
C466   H520    1.084   .     S
C466   C472    1.397   .     A
C466   C78     1.368   1_565 S
C467   O497    1.295   .     A
C467   O496    1.296   .     A
C468   C469    1.395   .     A
C468   H485    1.079   .     S
C469   C477    1.422   .     S
C469   C470    1.399   .     A
C470   H486    1.084   .     S
C471   H504    1.084   .     S
C471   C472    1.397   .     A
C471   C80     1.371   1_565 S
C473   N493    1.386   .     A
C473   C505    1.475   .     S
C473   C539    1.415   .     S
C474   H509    1.083   .     S
C474   N492    1.353   .     A
C475   N492    1.368   .     A
C475   H487    1.082   .     S
C476   H488    1.082   .     S
C476   N493    1.366   .     A
C476   C540    1.418   .     S
C477   O498    1.284   .     A
C477   O499    1.288   .     A
C478   O500    1.293   .     A
C478   O501    1.295   .     A
C478   C480    1.454   .     S
C479   C1045   1.404   1_554 S
C479   H1075   1.084   1_554 S
C481   H510    1.084   .     S
C481   C482    1.386   .     A
C482   C1068   1.401   .     S
C482   H1100   1.084   .     S
C483   C511    1.487   .     S
C483   C1042   1.436   1_554 S
C483   C1067   1.401   1_554 S
H490   C1064   1.084   .     S
N492   Zn502   2.015   .     S
N493   Zn503   2.015   .     S
O494   Zn502   2.005   .     S
O495   Zn503   1.997   .     S
O496   Zn502   1.968   .     S
O497   Zn503   1.912   .     S
O498   Zn502   1.997   .     S
O499   Zn503   2.005   .     S
O500   Zn502   1.912   .     S
O501   Zn503   1.968   .     S
C505   O507    1.392   .     S
C505   O506    1.223   .     D
O507   H508    1.014   .     S
C511   O513    1.399   .     S
C511   O512    1.223   .     D
O513   H514    1.014   .     S
H515   C1067   1.084   1_554 S
C516   O517    1.223   .     D
C516   O518    1.399   .     S
O518   H519    1.013   .     S
C521   C537    1.420   .     S
C521   O559    1.287   .     A
C521   O560    1.284   .     A
C522   C523    1.417   .     A
C522   C1109   1.418   .     S
C522   C1133   1.436   .     S
C523   C527    1.427   .     A
C523   C530    1.413   .     A
C524   C528    1.389   .     A
C524   C1107   1.418   1_554 S
C524   C1110   1.416   1_554 S
C525   C526    1.388   .     A
C525   C1109   1.416   .     S
C525   C1129   1.404   .     S
C526   C527    1.396   .     A
C526   H554    1.085   .     S
C527   C581    1.487   .     S
C528   H556    1.079   .     S
C528   C545    1.393   .     A
C529   C544    1.393   .     A
C529   H549    1.081   .     S
C529   C545    1.399   .     A
C530   C546    1.397   .     A
C530   C532    1.463   .     S
C531   H585    1.084   .     S
C531   C537    1.397   .     A
C531   C143    1.368   1_565 S
C532   O562    1.295   .     A
C532   O561    1.296   .     A
C533   C534    1.395   .     A
C533   H550    1.079   .     S
C534   C542    1.422   .     S
C534   C535    1.399   .     A
C535   H551    1.084   .     S
C536   H569    1.084   .     S
C536   C537    1.397   .     A
C536   C145    1.371   1_565 S
C538   N558    1.386   .     A
C538   C570    1.475   .     S
C538   C409    1.415   1_655 S
C539   H574    1.083   .     S
C539   N557    1.353   .     A
C540   N557    1.368   .     A
C540   H552    1.082   .     S
C541   H553    1.082   .     S
C541   N558    1.366   .     A
C541   C410    1.418   1_655 S
C542   O563    1.284   .     A
C542   O564    1.288   .     A
C543   O565    1.293   .     A
C543   O566    1.295   .     A
C543   C545    1.454   .     S
C544   C1110   1.404   1_554 S
C544   H1140   1.084   1_554 S
C546   H575    1.084   .     S
C546   C547    1.386   .     A
C547   C1133   1.401   .     S
C547   H1165   1.084   .     S
C548   C576    1.487   .     S
C548   C1107   1.436   1_554 S
C548   C1132   1.401   1_554 S
H555   C1129   1.084   .     S
N557   Zn567   2.015   .     S
N558   Zn568   2.015   .     S
O559   Zn567   2.005   .     S
O560   Zn568   1.997   .     S
O561   Zn567   1.968   .     S
O562   Zn568   1.912   .     S
O563   Zn567   1.997   .     S
O564   Zn568   2.005   .     S
O565   Zn567   1.912   .     S
O566   Zn568   1.968   .     S
C570   O572    1.392   .     S
C570   O571    1.223   .     D
O572   H573    1.014   .     S
C576   O578    1.399   .     S
C576   O577    1.223   .     D
O578   H579    1.014   .     S
H580   C1132   1.084   1_554 S
C581   O582    1.223   .     D
C581   O583    1.399   .     S
O583   H584    1.013   .     S
C586   C602    1.420   .     S
C586   O624    1.287   .     A
C586   O625    1.284   .     A
C587   C588    1.417   .     A
C587   C4      1.418   1_556 S
C587   C28     1.436   1_556 S
C588   C592    1.427   .     A
C588   C595    1.413   .     A
C589   C593    1.389   .     A
C590   C591    1.388   .     A
C590   C4      1.416   1_556 S
C590   C24     1.404   1_556 S
C591   C592    1.396   .     A
C591   H619    1.085   .     S
C592   C646    1.487   .     S
C593   H621    1.079   .     S
C593   C610    1.393   .     A
C594   C609    1.393   .     A
C594   H614    1.081   .     S
C594   C610    1.399   .     A
C595   C611    1.397   .     A
C595   C597    1.463   .     S
C596   H650    1.084   .     S
C596   C602    1.397   .     A
C596   C793    1.368   .     S
C597   O627    1.295   .     A
C597   O626    1.296   .     A
C598   C599    1.395   .     A
C598   H615    1.079   .     S
C598   C986    1.368   1_545 S
C599   C607    1.422   .     S
C599   C600    1.399   .     A
C600   H616    1.084   .     S
C600   C991    1.371   1_545 S
C601   H634    1.084   .     S
C601   C602    1.397   .     A
C601   C795    1.371   .     S
C603   N623    1.386   .     A
C603   C635    1.475   .     S
C603   C669    1.415   .     S
C604   H639    1.083   .     S
C604   N622    1.353   .     A
C604   C733    1.415   1_455 S
C605   N622    1.368   .     A
C605   H617    1.082   .     S
C605   C736    1.418   1_455 S
C606   H618    1.082   .     S
C606   N623    1.366   .     A
C606   C670    1.418   .     S
C607   O628    1.284   .     A
C607   O629    1.288   .     A
C608   O630    1.293   .     A
C608   O631    1.295   .     A
C608   C610    1.454   .     S
C611   H640    1.084   .     S
C611   C612    1.386   .     A
C612   C28     1.401   1_556 S
C612   H60     1.084   1_556 S
C613   C641    1.487   .     S
H620   C24     1.084   1_556 S
N622   Zn632   2.015   .     S
N623   Zn633   2.015   .     S
O624   Zn632   2.005   .     S
O625   Zn633   1.997   .     S
O626   Zn632   1.968   .     S
O627   Zn633   1.912   .     S
O628   Zn632   1.997   .     S
O629   Zn633   2.005   .     S
O630   Zn632   1.912   .     S
O631   Zn633   1.968   .     S
C635   O637    1.392   .     S
C635   O636    1.223   .     D
O637   H638    1.014   .     S
C641   O643    1.399   .     S
C641   O642    1.223   .     D
O643   H644    1.014   .     S
C646   O647    1.223   .     D
C646   O648    1.399   .     S
O648   H649    1.013   .     S
C651   C667    1.420   .     S
C651   O689    1.287   .     A
C651   O690    1.284   .     A
C652   C653    1.417   .     A
C652   C69     1.418   1_556 S
C652   C93     1.436   1_556 S
C653   C657    1.427   .     A
C653   C660    1.413   .     A
C654   C658    1.389   .     A
C655   C656    1.388   .     A
C655   C69     1.416   1_556 S
C655   C89     1.404   1_556 S
C656   C657    1.396   .     A
C656   H684    1.085   .     S
C657   C711    1.487   .     S
C658   H686    1.079   .     S
C658   C675    1.393   .     A
C659   C674    1.393   .     A
C659   H679    1.081   .     S
C659   C675    1.399   .     A
C660   C676    1.397   .     A
C660   C662    1.463   .     S
C661   H715    1.084   .     S
C661   C667    1.397   .     A
C661   C858    1.368   .     S
C662   O692    1.295   .     A
C662   O691    1.296   .     A
C663   C664    1.395   .     A
C663   H680    1.079   .     S
C663   C1051   1.368   1_545 S
C664   C672    1.422   .     S
C664   C665    1.399   .     A
C665   H681    1.084   .     S
C665   C1056   1.371   1_545 S
C666   H699    1.084   .     S
C666   C667    1.397   .     A
C666   C860    1.371   .     S
C668   N688    1.386   .     A
C668   C700    1.475   .     S
C668   C734    1.415   .     S
C669   H704    1.083   .     S
C669   N687    1.353   .     A
C670   N687    1.368   .     A
C670   H682    1.082   .     S
C671   H683    1.082   .     S
C671   N688    1.366   .     A
C671   C735    1.418   .     S
C672   O693    1.284   .     A
C672   O694    1.288   .     A
C673   O695    1.293   .     A
C673   O696    1.295   .     A
C673   C675    1.454   .     S
C676   H705    1.084   .     S
C676   C677    1.386   .     A
C677   C93     1.401   1_556 S
C677   H125    1.084   1_556 S
C678   C706    1.487   .     S
H685   C89     1.084   1_556 S
N687   Zn697   2.015   .     S
N688   Zn698   2.015   .     S
O689   Zn697   2.005   .     S
O690   Zn698   1.997   .     S
O691   Zn697   1.968   .     S
O692   Zn698   1.912   .     S
O693   Zn697   1.997   .     S
O694   Zn698   2.005   .     S
O695   Zn697   1.912   .     S
O696   Zn698   1.968   .     S
C700   O702    1.392   .     S
C700   O701    1.223   .     D
O702   H703    1.014   .     S
C706   O708    1.399   .     S
C706   O707    1.223   .     D
O708   H709    1.014   .     S
C711   O712    1.223   .     D
C711   O713    1.399   .     S
O713   H714    1.013   .     S
C716   C732    1.420   .     S
C716   O754    1.287   .     A
C716   O755    1.284   .     A
C717   C718    1.417   .     A
C717   C134    1.418   1_556 S
C717   C158    1.436   1_556 S
C718   C722    1.427   .     A
C718   C725    1.413   .     A
C719   C723    1.389   .     A
C720   C721    1.388   .     A
C720   C134    1.416   1_556 S
C720   C154    1.404   1_556 S
C721   C722    1.396   .     A
C721   H749    1.085   .     S
C722   C776    1.487   .     S
C723   H751    1.079   .     S
C723   C740    1.393   .     A
C724   C739    1.393   .     A
C724   H744    1.081   .     S
C724   C740    1.399   .     A
C725   C741    1.397   .     A
C725   C727    1.463   .     S
C726   H780    1.084   .     S
C726   C732    1.397   .     A
C726   C923    1.368   .     S
C727   O757    1.295   .     A
C727   O756    1.296   .     A
C728   C729    1.395   .     A
C728   H745    1.079   .     S
C728   C1116   1.368   1_545 S
C729   C737    1.422   .     S
C729   C730    1.399   .     A
C730   H746    1.084   .     S
C730   C1121   1.371   1_545 S
C731   H764    1.084   .     S
C731   C732    1.397   .     A
C731   C925    1.371   .     S
C733   N753    1.386   .     A
C733   C765    1.475   .     S
C733   C604    1.415   1_655 S
C734   H769    1.083   .     S
C734   N752    1.353   .     A
C735   N752    1.368   .     A
C735   H747    1.082   .     S
C736   H748    1.082   .     S
C736   N753    1.366   .     A
C736   C605    1.418   1_655 S
C737   O758    1.284   .     A
C737   O759    1.288   .     A
C738   O760    1.293   .     A
C738   O761    1.295   .     A
C738   C740    1.454   .     S
C741   H770    1.084   .     S
C741   C742    1.386   .     A
C742   C158    1.401   1_556 S
C742   H190    1.084   1_556 S
C743   C771    1.487   .     S
H750   C154    1.084   1_556 S
N752   Zn762   2.015   .     S
N753   Zn763   2.015   .     S
O754   Zn762   2.005   .     S
O755   Zn763   1.997   .     S
O756   Zn762   1.968   .     S
O757   Zn763   1.912   .     S
O758   Zn762   1.997   .     S
O759   Zn763   2.005   .     S
O760   Zn762   1.912   .     S
O761   Zn763   1.968   .     S
C765   O767    1.392   .     S
C765   O766    1.223   .     D
O767   H768    1.014   .     S
C771   O773    1.399   .     S
C771   O772    1.223   .     D
O773   H774    1.014   .     S
C776   O777    1.223   .     D
C776   O778    1.399   .     S
O778   H779    1.013   .     S
C781   C797    1.420   .     S
C781   O819    1.287   .     A
C781   O820    1.284   .     A
C782   C783    1.417   .     A
C782   C199    1.418   1_556 S
C782   C223    1.436   1_556 S
C783   C787    1.427   .     A
C783   C790    1.413   .     A
C784   C788    1.389   .     A
C785   C786    1.388   .     A
C785   C199    1.416   1_556 S
C785   C219    1.404   1_556 S
C786   C787    1.396   .     A
C786   H814    1.085   .     S
C787   C841    1.487   .     S
C788   H816    1.079   .     S
C788   C805    1.393   .     A
C789   C804    1.393   .     A
C789   H809    1.081   .     S
C789   C805    1.399   .     A
C790   C806    1.397   .     A
C790   C792    1.463   .     S
C791   H845    1.084   .     S
C791   C797    1.397   .     A
C791   C988    1.368   .     S
C792   O822    1.295   .     A
C792   O821    1.296   .     A
C793   C794    1.395   .     A
C793   H810    1.079   .     S
C794   C802    1.422   .     S
C794   C795    1.399   .     A
C795   H811    1.084   .     S
C796   H829    1.084   .     S
C796   C797    1.397   .     A
C796   C990    1.371   .     S
C798   N818    1.386   .     A
C798   C830    1.475   .     S
C798   C864    1.415   .     S
C799   H834    1.083   .     S
C799   N817    1.353   .     A
C799   C928    1.415   1_455 S
C800   N817    1.368   .     A
C800   H812    1.082   .     S
C800   C931    1.418   1_455 S
C801   H813    1.082   .     S
C801   N818    1.366   .     A
C801   C865    1.418   .     S
C802   O823    1.284   .     A
C802   O824    1.288   .     A
C803   O825    1.293   .     A
C803   O826    1.295   .     A
C803   C805    1.454   .     S
C806   H835    1.084   .     S
C806   C807    1.386   .     A
C807   C223    1.401   1_556 S
C807   H255    1.084   1_556 S
C808   C836    1.487   .     S
H815   C219    1.084   1_556 S
N817   Zn827   2.015   .     S
N818   Zn828   2.015   .     S
O819   Zn827   2.005   .     S
O820   Zn828   1.997   .     S
O821   Zn827   1.968   .     S
O822   Zn828   1.912   .     S
O823   Zn827   1.997   .     S
O824   Zn828   2.005   .     S
O825   Zn827   1.912   .     S
O826   Zn828   1.968   .     S
C830   O832    1.392   .     S
C830   O831    1.223   .     D
O832   H833    1.014   .     S
C836   O838    1.399   .     S
C836   O837    1.223   .     D
O838   H839    1.014   .     S
C841   O842    1.223   .     D
C841   O843    1.399   .     S
O843   H844    1.013   .     S
C846   C862    1.420   .     S
C846   O884    1.287   .     A
C846   O885    1.284   .     A
C847   C848    1.417   .     A
C847   C264    1.418   1_556 S
C847   C288    1.436   1_556 S
C848   C852    1.427   .     A
C848   C855    1.413   .     A
C849   C853    1.389   .     A
C850   C851    1.388   .     A
C850   C264    1.416   1_556 S
C850   C284    1.404   1_556 S
C851   C852    1.396   .     A
C851   H879    1.085   .     S
C852   C906    1.487   .     S
C853   H881    1.079   .     S
C853   C870    1.393   .     A
C854   C869    1.393   .     A
C854   H874    1.081   .     S
C854   C870    1.399   .     A
C855   C871    1.397   .     A
C855   C857    1.463   .     S
C856   H910    1.084   .     S
C856   C862    1.397   .     A
C856   C1053   1.368   .     S
C857   O887    1.295   .     A
C857   O886    1.296   .     A
C858   C859    1.395   .     A
C858   H875    1.079   .     S
C859   C867    1.422   .     S
C859   C860    1.399   .     A
C860   H876    1.084   .     S
C861   H894    1.084   .     S
C861   C862    1.397   .     A
C861   C1055   1.371   .     S
C863   N883    1.386   .     A
C863   C895    1.475   .     S
C863   C929    1.415   .     S
C864   H899    1.083   .     S
C864   N882    1.353   .     A
C865   N882    1.368   .     A
C865   H877    1.082   .     S
C866   H878    1.082   .     S
C866   N883    1.366   .     A
C866   C930    1.418   .     S
C867   O888    1.284   .     A
C867   O889    1.288   .     A
C868   O890    1.293   .     A
C868   O891    1.295   .     A
C868   C870    1.454   .     S
C871   H900    1.084   .     S
C871   C872    1.386   .     A
C872   C288    1.401   1_556 S
C872   H320    1.084   1_556 S
C873   C901    1.487   .     S
H880   C284    1.084   1_556 S
N882   Zn892   2.015   .     S
N883   Zn893   2.015   .     S
O884   Zn892   2.005   .     S
O885   Zn893   1.997   .     S
O886   Zn892   1.968   .     S
O887   Zn893   1.912   .     S
O888   Zn892   1.997   .     S
O889   Zn893   2.005   .     S
O890   Zn892   1.912   .     S
O891   Zn893   1.968   .     S
C895   O897    1.392   .     S
C895   O896    1.223   .     D
O897   H898    1.014   .     S
C901   O903    1.399   .     S
C901   O902    1.223   .     D
O903   H904    1.014   .     S
C906   O907    1.223   .     D
C906   O908    1.399   .     S
O908   H909    1.013   .     S
C911   C927    1.420   .     S
C911   O949    1.287   .     A
C911   O950    1.284   .     A
C912   C913    1.417   .     A
C912   C329    1.418   1_556 S
C912   C353    1.436   1_556 S
C913   C917    1.427   .     A
C913   C920    1.413   .     A
C914   C918    1.389   .     A
C915   C916    1.388   .     A
C915   C329    1.416   1_556 S
C915   C349    1.404   1_556 S
C916   C917    1.396   .     A
C916   H944    1.085   .     S
C917   C971    1.487   .     S
C918   H946    1.079   .     S
C918   C935    1.393   .     A
C919   C934    1.393   .     A
C919   H939    1.081   .     S
C919   C935    1.399   .     A
C920   C936    1.397   .     A
C920   C922    1.463   .     S
C921   H975    1.084   .     S
C921   C927    1.397   .     A
C921   C1118   1.368   .     S
C922   O952    1.295   .     A
C922   O951    1.296   .     A
C923   C924    1.395   .     A
C923   H940    1.079   .     S
C924   C932    1.422   .     S
C924   C925    1.399   .     A
C925   H941    1.084   .     S
C926   H959    1.084   .     S
C926   C927    1.397   .     A
C926   C1120   1.371   .     S
C928   N948    1.386   .     A
C928   C960    1.475   .     S
C928   C799    1.415   1_655 S
C929   H964    1.083   .     S
C929   N947    1.353   .     A
C930   N947    1.368   .     A
C930   H942    1.082   .     S
C931   H943    1.082   .     S
C931   N948    1.366   .     A
C931   C800    1.418   1_655 S
C932   O953    1.284   .     A
C932   O954    1.288   .     A
C933   O955    1.293   .     A
C933   O956    1.295   .     A
C933   C935    1.454   .     S
C936   H965    1.084   .     S
C936   C937    1.386   .     A
C937   C353    1.401   1_556 S
C937   H385    1.084   1_556 S
C938   C966    1.487   .     S
H945   C349    1.084   1_556 S
N947   Zn957   2.015   .     S
N948   Zn958   2.015   .     S
O949   Zn957   2.005   .     S
O950   Zn958   1.997   .     S
O951   Zn957   1.968   .     S
O952   Zn958   1.912   .     S
O953   Zn957   1.997   .     S
O954   Zn958   2.005   .     S
O955   Zn957   1.912   .     S
O956   Zn958   1.968   .     S
C960   O962    1.392   .     S
C960   O961    1.223   .     D
O962   H963    1.014   .     S
C966   O968    1.399   .     S
C966   O967    1.223   .     D
O968   H969    1.014   .     S
C971   O972    1.223   .     D
C971   O973    1.399   .     S
O973   H974    1.013   .     S
C976   C992    1.420   .     S
C976   O1014   1.287   .     A
C976   O1015   1.284   .     A
C977   C978    1.417   .     A
C977   C394    1.418   1_556 S
C977   C418    1.436   1_556 S
C978   C982    1.427   .     A
C978   C985    1.413   .     A
C979   C983    1.389   .     A
C980   C981    1.388   .     A
C980   C394    1.416   1_556 S
C980   C414    1.404   1_556 S
C981   C982    1.396   .     A
C981   H1009   1.085   .     S
C982   C1036   1.487   .     S
C983   H1011   1.079   .     S
C983   C1000   1.393   .     A
C984   C999    1.393   .     A
C984   H1004   1.081   .     S
C984   C1000   1.399   .     A
C985   C1001   1.397   .     A
C985   C987    1.463   .     S
C986   H1040   1.084   .     S
C986   C992    1.397   .     A
C986   C598    1.368   1_565 S
C987   O1017   1.295   .     A
C987   O1016   1.296   .     A
C988   C989    1.395   .     A
C988   H1005   1.079   .     S
C989   C997    1.422   .     S
C989   C990    1.399   .     A
C990   H1006   1.084   .     S
C991   H1024   1.084   .     S
C991   C992    1.397   .     A
C991   C600    1.371   1_565 S
C993   N1013   1.386   .     A
C993   C1025   1.475   .     S
C993   C1059   1.415   .     S
C994   H1029   1.083   .     S
C994   N1012   1.353   .     A
C994   C1123   1.415   1_455 S
C995   N1012   1.368   .     A
C995   H1007   1.082   .     S
C995   C1126   1.418   1_455 S
C996   H1008   1.082   .     S
C996   N1013   1.366   .     A
C996   C1060   1.418   .     S
C997   O1018   1.284   .     A
C997   O1019   1.288   .     A
C998   O1020   1.293   .     A
C998   O1021   1.295   .     A
C998   C1000   1.454   .     S
C1001  H1030   1.084   .     S
C1001  C1002   1.386   .     A
C1002  C418    1.401   1_556 S
C1002  H450    1.084   1_556 S
C1003  C1031   1.487   .     S
H1010  C414    1.084   1_556 S
N1012  Zn1022  2.015   .     S
N1013  Zn1023  2.015   .     S
O1014  Zn1022  2.005   .     S
O1015  Zn1023  1.997   .     S
O1016  Zn1022  1.968   .     S
O1017  Zn1023  1.912   .     S
O1018  Zn1022  1.997   .     S
O1019  Zn1023  2.005   .     S
O1020  Zn1022  1.912   .     S
O1021  Zn1023  1.968   .     S
C1025  O1027   1.392   .     S
C1025  O1026   1.223   .     D
O1027  H1028   1.014   .     S
C1031  O1033   1.399   .     S
C1031  O1032   1.223   .     D
O1033  H1034   1.014   .     S
C1036  O1037   1.223   .     D
C1036  O1038   1.399   .     S
O1038  H1039   1.013   .     S
C1041  C1057   1.420   .     S
C1041  O1079   1.287   .     A
C1041  O1080   1.284   .     A
C1042  C1043   1.417   .     A
C1042  C459    1.418   1_556 S
C1042  C483    1.436   1_556 S
C1043  C1047   1.427   .     A
C1043  C1050   1.413   .     A
C1044  C1048   1.389   .     A
C1045  C1046   1.388   .     A
C1045  C459    1.416   1_556 S
C1045  C479    1.404   1_556 S
C1046  C1047   1.396   .     A
C1046  H1074   1.085   .     S
C1047  C1101   1.487   .     S
C1048  H1076   1.079   .     S
C1048  C1065   1.393   .     A
C1049  C1064   1.393   .     A
C1049  H1069   1.081   .     S
C1049  C1065   1.399   .     A
C1050  C1066   1.397   .     A
C1050  C1052   1.463   .     S
C1051  H1105   1.084   .     S
C1051  C1057   1.397   .     A
C1051  C663    1.368   1_565 S
C1052  O1082   1.295   .     A
C1052  O1081   1.296   .     A
C1053  C1054   1.395   .     A
C1053  H1070   1.079   .     S
C1054  C1062   1.422   .     S
C1054  C1055   1.399   .     A
C1055  H1071   1.084   .     S
C1056  H1089   1.084   .     S
C1056  C1057   1.397   .     A
C1056  C665    1.371   1_565 S
C1058  N1078   1.386   .     A
C1058  C1090   1.475   .     S
C1058  C1124   1.415   .     S
C1059  H1094   1.083   .     S
C1059  N1077   1.353   .     A
C1060  N1077   1.368   .     A
C1060  H1072   1.082   .     S
C1061  H1073   1.082   .     S
C1061  N1078   1.366   .     A
C1061  C1125   1.418   .     S
C1062  O1083   1.284   .     A
C1062  O1084   1.288   .     A
C1063  O1085   1.293   .     A
C1063  O1086   1.295   .     A
C1063  C1065   1.454   .     S
C1066  H1095   1.084   .     S
C1066  C1067   1.386   .     A
C1067  C483    1.401   1_556 S
C1067  H515    1.084   1_556 S
C1068  C1096   1.487   .     S
H1075  C479    1.084   1_556 S
N1077  Zn1087  2.015   .     S
N1078  Zn1088  2.015   .     S
O1079  Zn1087  2.005   .     S
O1080  Zn1088  1.997   .     S
O1081  Zn1087  1.968   .     S
O1082  Zn1088  1.912   .     S
O1083  Zn1087  1.997   .     S
O1084  Zn1088  2.005   .     S
O1085  Zn1087  1.912   .     S
O1086  Zn1088  1.968   .     S
C1090  O1092   1.392   .     S
C1090  O1091   1.223   .     D
O1092  H1093   1.014   .     S
C1096  O1098   1.399   .     S
C1096  O1097   1.223   .     D
O1098  H1099   1.014   .     S
C1101  O1102   1.223   .     D
C1101  O1103   1.399   .     S
O1103  H1104   1.013   .     S
C1106  C1122   1.420   .     S
C1106  O1144   1.287   .     A
C1106  O1145   1.284   .     A
C1107  C1108   1.417   .     A
C1107  C524    1.418   1_556 S
C1107  C548    1.436   1_556 S
C1108  C1112   1.427   .     A
C1108  C1115   1.413   .     A
C1109  C1113   1.389   .     A
C1110  C1111   1.388   .     A
C1110  C524    1.416   1_556 S
C1110  C544    1.404   1_556 S
C1111  C1112   1.396   .     A
C1111  H1139   1.085   .     S
C1112  C1166   1.487   .     S
C1113  H1141   1.079   .     S
C1113  C1130   1.393   .     A
C1114  C1129   1.393   .     A
C1114  H1134   1.081   .     S
C1114  C1130   1.399   .     A
C1115  C1131   1.397   .     A
C1115  C1117   1.463   .     S
C1116  H1170   1.084   .     S
C1116  C1122   1.397   .     A
C1116  C728    1.368   1_565 S
C1117  O1147   1.295   .     A
C1117  O1146   1.296   .     A
C1118  C1119   1.395   .     A
C1118  H1135   1.079   .     S
C1119  C1127   1.422   .     S
C1119  C1120   1.399   .     A
C1120  H1136   1.084   .     S
C1121  H1154   1.084   .     S
C1121  C1122   1.397   .     A
C1121  C730    1.371   1_565 S
C1123  N1143   1.386   .     A
C1123  C1155   1.475   .     S
C1123  C994    1.415   1_655 S
C1124  H1159   1.083   .     S
C1124  N1142   1.353   .     A
C1125  N1142   1.368   .     A
C1125  H1137   1.082   .     S
C1126  H1138   1.082   .     S
C1126  N1143   1.366   .     A
C1126  C995    1.418   1_655 S
C1127  O1148   1.284   .     A
C1127  O1149   1.288   .     A
C1128  O1150   1.293   .     A
C1128  O1151   1.295   .     A
C1128  C1130   1.454   .     S
C1131  H1160   1.084   .     S
C1131  C1132   1.386   .     A
C1132  C548    1.401   1_556 S
C1132  H580    1.084   1_556 S
C1133  C1161   1.487   .     S
H1140  C544    1.084   1_556 S
N1142  Zn1152  2.015   .     S
N1143  Zn1153  2.015   .     S
O1144  Zn1152  2.005   .     S
O1145  Zn1153  1.997   .     S
O1146  Zn1152  1.968   .     S
O1147  Zn1153  1.912   .     S
O1148  Zn1152  1.997   .     S
O1149  Zn1153  2.005   .     S
O1150  Zn1152  1.912   .     S
O1151  Zn1153  1.968   .     S
C1155  O1157   1.392   .     S
C1155  O1156   1.223   .     D
O1157  H1158   1.014   .     S
C1161  O1163   1.399   .     S
C1161  O1162   1.223   .     D
O1163  H1164   1.014   .     S
C1166  O1167   1.223   .     D
C1166  O1168   1.399   .     S
O1168  H1169   1.013   .     S
