data_str_m3_o1_o17_pcu_sym.6
_audit_creation_date              2020-01-03
_audit_creation_method            'Materials Studio'
_symmetry_space_group_name_H-M    'P1'
_symmetry_Int_Tables_number       1
_symmetry_cell_setting            triclinic
loop_
_symmetry_equiv_pos_as_xyz
  x,y,z
_cell_length_a                    31.9965
_cell_length_b                    29.4707
_cell_length_c                    30.0154
_cell_angle_alpha                 89.9198
_cell_angle_beta                  89.8378
_cell_angle_gamma                 89.4378
loop_
_atom_site_label
_atom_site_type_symbol
_atom_site_fract_x
_atom_site_fract_y
_atom_site_fract_z
_atom_site_U_iso_or_equiv
_atom_site_adp_type
_atom_site_occupancy
C1     C     0.08671   0.16695   0.25014   0.00000  Uiso   1.00
C2     C     0.04259   0.16766   0.24941   0.00000  Uiso   1.00
C3     C     0.19298   0.02369   0.27725   0.00000  Uiso   1.00
C4     C     0.14035   0.30965   0.22274   0.00000  Uiso   1.00
C5     C     0.14035   0.02432   0.22274   0.00000  Uiso   1.00
C6     C     0.19298   0.30901   0.27726   0.00000  Uiso   1.00
C7     C     0.16653   0.16669   0.16325   0.00000  Uiso   1.00
C8     C     0.16681   0.16664   0.33674   0.00000  Uiso   1.00
C9     C     0.16903   0.20789   0.40751   0.00000  Uiso   1.00
C10    C     0.16430   0.12545   0.09249   0.00000  Uiso   1.00
C11    C     0.16709   0.16662   0.38469   0.00000  Uiso   1.00
C12    C     0.24662   0.16639   0.24986   0.00000  Uiso   1.00
C13    C     0.16624   0.16671   0.11531   0.00000  Uiso   1.00
C14    C     0.16528   0.12536   0.40765   0.00000  Uiso   1.00
C15    C     0.16806   0.20797   0.09235   0.00000  Uiso   1.00
C16    C     0.16509   0.12506   0.45373   0.00000  Uiso   1.00
C17    C     0.16824   0.20827   0.04627   0.00000  Uiso   1.00
C18    C     0.16683   0.16665   0.47683   0.00000  Uiso   1.00
C19    C     0.16650   0.16668   0.02317   0.00000  Uiso   1.00
C20    C     0.16886   0.20822   0.45358   0.00000  Uiso   1.00
C21    C     0.16447   0.12511   0.04642   0.00000  Uiso   1.00
C22    C     0.16308   0.08394   0.47701   0.00000  Uiso   1.00
C23    C     0.16275   0.08396   0.02329   0.00000  Uiso   1.00
C24    C     0.17026   0.24939   0.02299   0.00000  Uiso   1.00
C25    C     0.04996   0.13479   0.15084   0.00000  Uiso   1.00
C26    C     0.28340   0.19855   0.34917   0.00000  Uiso   1.00
C27    C     0.29321   0.06253   0.20970   0.00000  Uiso   1.00
C28    C     0.04013   0.27080   0.29028   0.00000  Uiso   1.00
C29    C     0.17058   0.24937   0.47671   0.00000  Uiso   1.00
C30    C     0.02209   0.13809   0.22037   0.00000  Uiso   1.00
C31    C     0.31124   0.19524   0.27962   0.00000  Uiso   1.00
C32    C     0.31232   0.13562   0.22234   0.00000  Uiso   1.00
C33    C     0.02102   0.19771   0.27766   0.00000  Uiso   1.00
C34    C     0.29074   0.16568   0.25059   0.00000  Uiso   1.00
H35    H     0.17062   0.23977   0.38952   0.00000  Uiso   1.00
H36    H     0.11934   0.29166   0.20098   0.00000  Uiso   1.00
H37    H     0.11935   0.04281   0.20095   0.00000  Uiso   1.00
H38    H     0.21399   0.29052   0.29905   0.00000  Uiso   1.00
H39    H     0.06823   0.11311   0.12754   0.00000  Uiso   1.00
H40    H     0.06803   0.16641   0.15616   0.00000  Uiso   1.00
H41    H     0.01948   0.14285   0.13474   0.00000  Uiso   1.00
H42    H     0.26536   0.16691   0.34386   0.00000  Uiso   1.00
H43    H     0.31389   0.19054   0.36526   0.00000  Uiso   1.00
H44    H     0.26510   0.22022   0.37246   0.00000  Uiso   1.00
H45    H     0.32500   0.04782   0.20498   0.00000  Uiso   1.00
H46    H     0.16271   0.09357   0.11048   0.00000  Uiso   1.00
H47    H     0.28385   0.06018   0.24541   0.00000  Uiso   1.00
H48    H     0.27115   0.04149   0.19038   0.00000  Uiso   1.00
H49    H     0.04952   0.27314   0.25458   0.00000  Uiso   1.00
H50    H     0.06216   0.29186   0.30962   0.00000  Uiso   1.00
H51    H     0.00832   0.28551   0.29496   0.00000  Uiso   1.00
H52    H     0.16382   0.09347   0.38976   0.00000  Uiso   1.00
H53    H     0.16952   0.23986   0.11024   0.00000  Uiso   1.00
H54    H     0.16174   0.05188   0.45944   0.00000  Uiso   1.00
H55    H     0.17159   0.28145   0.04056   0.00000  Uiso   1.00
H56    H     0.16121   0.05192   0.04097   0.00000  Uiso   1.00
H57    H     0.17212   0.28141   0.45903   0.00000  Uiso   1.00
H58    H     0.21400   0.04167   0.29902   0.00000  Uiso   1.00
N59    N     0.16667   0.28573   0.25000   0.00000  Uiso   1.00
N60    N     0.16667   0.04760   0.25000   0.00000  Uiso   1.00
O61    O     0.10559   0.20487   0.24999   0.00000  Uiso   1.00
O62    O     0.28909   0.22262   0.30900   0.00000  Uiso   1.00
O63    O     0.29092   0.10750   0.19350   0.00000  Uiso   1.00
O64    O     0.04241   0.22584   0.30649   0.00000  Uiso   1.00
O65    O     0.22774   0.12846   0.25000   0.00000  Uiso   1.00
O66    O     0.22774   0.20487   0.25000   0.00000  Uiso   1.00
O67    O     0.10559   0.12846   0.24999   0.00000  Uiso   1.00
O68    O     0.16666   0.20489   0.18392   0.00000  Uiso   1.00
O69    O     0.16667   0.12844   0.31607   0.00000  Uiso   1.00
O70    O     0.16667   0.20489   0.31607   0.00000  Uiso   1.00
O71    O     0.16666   0.12844   0.18392   0.00000  Uiso   1.00
O72    O     0.04424   0.11071   0.19099   0.00000  Uiso   1.00
Zn73   Zn    0.16667   0.21771   0.25000   0.00000  Uiso   1.00
Zn74   Zn    0.16667   0.11563   0.25000   0.00000  Uiso   1.00
C75    C     0.42005   0.16695   0.25014   0.00000  Uiso   1.00
C76    C     0.37593   0.16766   0.24941   0.00000  Uiso   1.00
C77    C     0.52631   0.02369   0.27725   0.00000  Uiso   1.00
C78    C     0.47369   0.30965   0.22274   0.00000  Uiso   1.00
C79    C     0.47369   0.02432   0.22274   0.00000  Uiso   1.00
C80    C     0.52631   0.30901   0.27726   0.00000  Uiso   1.00
C81    C     0.49986   0.16669   0.16325   0.00000  Uiso   1.00
C82    C     0.50014   0.16664   0.33674   0.00000  Uiso   1.00
C83    C     0.50236   0.20789   0.40751   0.00000  Uiso   1.00
C84    C     0.49764   0.12545   0.09249   0.00000  Uiso   1.00
C85    C     0.50042   0.16662   0.38469   0.00000  Uiso   1.00
C86    C     0.57995   0.16639   0.24986   0.00000  Uiso   1.00
C87    C     0.49958   0.16671   0.11531   0.00000  Uiso   1.00
C88    C     0.49861   0.12536   0.40765   0.00000  Uiso   1.00
C89    C     0.50139   0.20797   0.09235   0.00000  Uiso   1.00
C90    C     0.49842   0.12506   0.45373   0.00000  Uiso   1.00
C91    C     0.50158   0.20827   0.04627   0.00000  Uiso   1.00
C92    C     0.50016   0.16665   0.47683   0.00000  Uiso   1.00
C93    C     0.49984   0.16668   0.02317   0.00000  Uiso   1.00
C94    C     0.50220   0.20822   0.45358   0.00000  Uiso   1.00
C95    C     0.49780   0.12511   0.04642   0.00000  Uiso   1.00
C96    C     0.49641   0.08394   0.47701   0.00000  Uiso   1.00
C97    C     0.49609   0.08396   0.02329   0.00000  Uiso   1.00
C98    C     0.50359   0.24939   0.02299   0.00000  Uiso   1.00
C99    C     0.38329   0.13479   0.15084   0.00000  Uiso   1.00
C100   C     0.61673   0.19855   0.34917   0.00000  Uiso   1.00
C101   C     0.62654   0.06253   0.20970   0.00000  Uiso   1.00
C102   C     0.37346   0.27080   0.29028   0.00000  Uiso   1.00
C103   C     0.50391   0.24937   0.47671   0.00000  Uiso   1.00
C104   C     0.35543   0.13809   0.22037   0.00000  Uiso   1.00
C105   C     0.64457   0.19524   0.27962   0.00000  Uiso   1.00
C106   C     0.64565   0.13562   0.22234   0.00000  Uiso   1.00
C107   C     0.35435   0.19771   0.27766   0.00000  Uiso   1.00
C108   C     0.62407   0.16568   0.25059   0.00000  Uiso   1.00
H109   H     0.50395   0.23977   0.38952   0.00000  Uiso   1.00
H110   H     0.45267   0.29166   0.20098   0.00000  Uiso   1.00
H111   H     0.45268   0.04281   0.20095   0.00000  Uiso   1.00
H112   H     0.54732   0.29052   0.29905   0.00000  Uiso   1.00
H113   H     0.40156   0.11311   0.12754   0.00000  Uiso   1.00
H114   H     0.40136   0.16641   0.15616   0.00000  Uiso   1.00
H115   H     0.35281   0.14285   0.13474   0.00000  Uiso   1.00
H116   H     0.59870   0.16691   0.34386   0.00000  Uiso   1.00
H117   H     0.64722   0.19054   0.36526   0.00000  Uiso   1.00
H118   H     0.59844   0.22022   0.37246   0.00000  Uiso   1.00
H119   H     0.65834   0.04782   0.20498   0.00000  Uiso   1.00
H120   H     0.49605   0.09357   0.11048   0.00000  Uiso   1.00
H121   H     0.61719   0.06018   0.24541   0.00000  Uiso   1.00
H122   H     0.60449   0.04149   0.19038   0.00000  Uiso   1.00
H123   H     0.38285   0.27314   0.25458   0.00000  Uiso   1.00
H124   H     0.39549   0.29186   0.30962   0.00000  Uiso   1.00
H125   H     0.34165   0.28551   0.29496   0.00000  Uiso   1.00
H126   H     0.49715   0.09347   0.38976   0.00000  Uiso   1.00
H127   H     0.50285   0.23986   0.11024   0.00000  Uiso   1.00
H128   H     0.49508   0.05188   0.45944   0.00000  Uiso   1.00
H129   H     0.50493   0.28145   0.04056   0.00000  Uiso   1.00
H130   H     0.49454   0.05192   0.04097   0.00000  Uiso   1.00
H131   H     0.50546   0.28141   0.45903   0.00000  Uiso   1.00
H132   H     0.54733   0.04167   0.29902   0.00000  Uiso   1.00
N133   N     0.50000   0.28573   0.25000   0.00000  Uiso   1.00
N134   N     0.50000   0.04760   0.25000   0.00000  Uiso   1.00
O135   O     0.43892   0.20487   0.24999   0.00000  Uiso   1.00
O136   O     0.62242   0.22262   0.30900   0.00000  Uiso   1.00
O137   O     0.62425   0.10750   0.19350   0.00000  Uiso   1.00
O138   O     0.37574   0.22584   0.30649   0.00000  Uiso   1.00
O139   O     0.56108   0.12846   0.25000   0.00000  Uiso   1.00
O140   O     0.56108   0.20487   0.25000   0.00000  Uiso   1.00
O141   O     0.43892   0.12846   0.24999   0.00000  Uiso   1.00
O142   O     0.49999   0.20489   0.18392   0.00000  Uiso   1.00
O143   O     0.50001   0.12844   0.31607   0.00000  Uiso   1.00
O144   O     0.50001   0.20489   0.31607   0.00000  Uiso   1.00
O145   O     0.49999   0.12844   0.18392   0.00000  Uiso   1.00
O146   O     0.37757   0.11071   0.19099   0.00000  Uiso   1.00
Zn147  Zn    0.50000   0.21771   0.25000   0.00000  Uiso   1.00
Zn148  Zn    0.50000   0.11563   0.25000   0.00000  Uiso   1.00
C149   C     0.75338   0.16695   0.25014   0.00000  Uiso   1.00
C150   C     0.70926   0.16766   0.24941   0.00000  Uiso   1.00
C151   C     0.85965   0.02369   0.27725   0.00000  Uiso   1.00
C152   C     0.80702   0.30965   0.22274   0.00000  Uiso   1.00
C153   C     0.80702   0.02432   0.22274   0.00000  Uiso   1.00
C154   C     0.85965   0.30901   0.27726   0.00000  Uiso   1.00
C155   C     0.83319   0.16669   0.16325   0.00000  Uiso   1.00
C156   C     0.83347   0.16664   0.33674   0.00000  Uiso   1.00
C157   C     0.83570   0.20789   0.40751   0.00000  Uiso   1.00
C158   C     0.83097   0.12545   0.09249   0.00000  Uiso   1.00
C159   C     0.83376   0.16662   0.38469   0.00000  Uiso   1.00
C160   C     0.91329   0.16639   0.24986   0.00000  Uiso   1.00
C161   C     0.83291   0.16671   0.11531   0.00000  Uiso   1.00
C162   C     0.83194   0.12536   0.40765   0.00000  Uiso   1.00
C163   C     0.83472   0.20797   0.09235   0.00000  Uiso   1.00
C164   C     0.83176   0.12506   0.45373   0.00000  Uiso   1.00
C165   C     0.83491   0.20827   0.04627   0.00000  Uiso   1.00
C166   C     0.83350   0.16665   0.47683   0.00000  Uiso   1.00
C167   C     0.83317   0.16668   0.02317   0.00000  Uiso   1.00
C168   C     0.83553   0.20822   0.45358   0.00000  Uiso   1.00
C169   C     0.83113   0.12511   0.04642   0.00000  Uiso   1.00
C170   C     0.82975   0.08394   0.47701   0.00000  Uiso   1.00
C171   C     0.82942   0.08396   0.02329   0.00000  Uiso   1.00
C172   C     0.83692   0.24939   0.02299   0.00000  Uiso   1.00
C173   C     0.71663   0.13479   0.15084   0.00000  Uiso   1.00
C174   C     0.95006   0.19855   0.34917   0.00000  Uiso   1.00
C175   C     0.95988   0.06253   0.20970   0.00000  Uiso   1.00
C176   C     0.70679   0.27080   0.29028   0.00000  Uiso   1.00
C177   C     0.83725   0.24937   0.47671   0.00000  Uiso   1.00
C178   C     0.68876   0.13809   0.22037   0.00000  Uiso   1.00
C179   C     0.97790   0.19524   0.27962   0.00000  Uiso   1.00
C180   C     0.97898   0.13562   0.22234   0.00000  Uiso   1.00
C181   C     0.68768   0.19771   0.27766   0.00000  Uiso   1.00
C182   C     0.95741   0.16568   0.25059   0.00000  Uiso   1.00
H183   H     0.83729   0.23977   0.38952   0.00000  Uiso   1.00
H184   H     0.78601   0.29166   0.20098   0.00000  Uiso   1.00
H185   H     0.78601   0.04281   0.20095   0.00000  Uiso   1.00
H186   H     0.88065   0.29052   0.29905   0.00000  Uiso   1.00
H187   H     0.73489   0.11311   0.12754   0.00000  Uiso   1.00
H188   H     0.73469   0.16641   0.15616   0.00000  Uiso   1.00
H189   H     0.68615   0.14285   0.13474   0.00000  Uiso   1.00
H190   H     0.93203   0.16691   0.34386   0.00000  Uiso   1.00
H191   H     0.98055   0.19054   0.36526   0.00000  Uiso   1.00
H192   H     0.93177   0.22022   0.37246   0.00000  Uiso   1.00
H193   H     0.99167   0.04782   0.20498   0.00000  Uiso   1.00
H194   H     0.82938   0.09357   0.11048   0.00000  Uiso   1.00
H195   H     0.95052   0.06018   0.24541   0.00000  Uiso   1.00
H196   H     0.93782   0.04149   0.19038   0.00000  Uiso   1.00
H197   H     0.71619   0.27314   0.25458   0.00000  Uiso   1.00
H198   H     0.72882   0.29186   0.30962   0.00000  Uiso   1.00
H199   H     0.67499   0.28551   0.29496   0.00000  Uiso   1.00
H200   H     0.83049   0.09347   0.38976   0.00000  Uiso   1.00
H201   H     0.83618   0.23986   0.11024   0.00000  Uiso   1.00
H202   H     0.82841   0.05188   0.45944   0.00000  Uiso   1.00
H203   H     0.83826   0.28145   0.04056   0.00000  Uiso   1.00
H204   H     0.82788   0.05192   0.04097   0.00000  Uiso   1.00
H205   H     0.83879   0.28141   0.45903   0.00000  Uiso   1.00
H206   H     0.88066   0.04167   0.29902   0.00000  Uiso   1.00
N207   N     0.83333   0.28573   0.25000   0.00000  Uiso   1.00
N208   N     0.83333   0.04760   0.25000   0.00000  Uiso   1.00
O209   O     0.77226   0.20487   0.24999   0.00000  Uiso   1.00
O210   O     0.95576   0.22262   0.30900   0.00000  Uiso   1.00
O211   O     0.95759   0.10750   0.19350   0.00000  Uiso   1.00
O212   O     0.70908   0.22584   0.30649   0.00000  Uiso   1.00
O213   O     0.89441   0.12846   0.25000   0.00000  Uiso   1.00
O214   O     0.89441   0.20487   0.25000   0.00000  Uiso   1.00
O215   O     0.77226   0.12846   0.24999   0.00000  Uiso   1.00
O216   O     0.83333   0.20489   0.18392   0.00000  Uiso   1.00
O217   O     0.83334   0.12844   0.31607   0.00000  Uiso   1.00
O218   O     0.83334   0.20489   0.31607   0.00000  Uiso   1.00
O219   O     0.83333   0.12844   0.18392   0.00000  Uiso   1.00
O220   O     0.71091   0.11071   0.19099   0.00000  Uiso   1.00
Zn221  Zn    0.83333   0.21771   0.25000   0.00000  Uiso   1.00
Zn222  Zn    0.83333   0.11563   0.25000   0.00000  Uiso   1.00
C223   C     0.08671   0.50028   0.25014   0.00000  Uiso   1.00
C224   C     0.04259   0.50099   0.24941   0.00000  Uiso   1.00
C225   C     0.19298   0.35702   0.27725   0.00000  Uiso   1.00
C226   C     0.14035   0.64298   0.22274   0.00000  Uiso   1.00
C227   C     0.14035   0.35766   0.22274   0.00000  Uiso   1.00
C228   C     0.19298   0.64234   0.27726   0.00000  Uiso   1.00
C229   C     0.16653   0.50002   0.16325   0.00000  Uiso   1.00
C230   C     0.16681   0.49998   0.33674   0.00000  Uiso   1.00
C231   C     0.16903   0.54122   0.40751   0.00000  Uiso   1.00
C232   C     0.16430   0.45878   0.09249   0.00000  Uiso   1.00
C233   C     0.16709   0.49995   0.38469   0.00000  Uiso   1.00
C234   C     0.24662   0.49972   0.24986   0.00000  Uiso   1.00
C235   C     0.16624   0.50005   0.11531   0.00000  Uiso   1.00
C236   C     0.16528   0.45869   0.40765   0.00000  Uiso   1.00
C237   C     0.16806   0.54131   0.09235   0.00000  Uiso   1.00
C238   C     0.16509   0.45840   0.45373   0.00000  Uiso   1.00
C239   C     0.16824   0.54160   0.04627   0.00000  Uiso   1.00
C240   C     0.16683   0.49999   0.47683   0.00000  Uiso   1.00
C241   C     0.16650   0.50001   0.02317   0.00000  Uiso   1.00
C242   C     0.16886   0.54155   0.45358   0.00000  Uiso   1.00
C243   C     0.16447   0.45845   0.04642   0.00000  Uiso   1.00
C244   C     0.16308   0.41727   0.47701   0.00000  Uiso   1.00
C245   C     0.16275   0.41730   0.02329   0.00000  Uiso   1.00
C246   C     0.17026   0.58273   0.02299   0.00000  Uiso   1.00
C247   C     0.04996   0.46813   0.15084   0.00000  Uiso   1.00
C248   C     0.28340   0.53188   0.34917   0.00000  Uiso   1.00
C249   C     0.29321   0.39587   0.20970   0.00000  Uiso   1.00
C250   C     0.04013   0.60414   0.29028   0.00000  Uiso   1.00
C251   C     0.17058   0.58270   0.47671   0.00000  Uiso   1.00
C252   C     0.02209   0.47143   0.22037   0.00000  Uiso   1.00
C253   C     0.31124   0.52857   0.27962   0.00000  Uiso   1.00
C254   C     0.31232   0.46896   0.22234   0.00000  Uiso   1.00
C255   C     0.02102   0.53105   0.27766   0.00000  Uiso   1.00
C256   C     0.29074   0.49901   0.25059   0.00000  Uiso   1.00
H257   H     0.17062   0.57310   0.38952   0.00000  Uiso   1.00
H258   H     0.11934   0.62500   0.20098   0.00000  Uiso   1.00
H259   H     0.11935   0.37614   0.20095   0.00000  Uiso   1.00
H260   H     0.21399   0.62386   0.29905   0.00000  Uiso   1.00
H261   H     0.06823   0.44645   0.12754   0.00000  Uiso   1.00
H262   H     0.06803   0.49974   0.15616   0.00000  Uiso   1.00
H263   H     0.01948   0.47618   0.13474   0.00000  Uiso   1.00
H264   H     0.26536   0.50025   0.34386   0.00000  Uiso   1.00
H265   H     0.31389   0.52388   0.36526   0.00000  Uiso   1.00
H266   H     0.26510   0.55355   0.37246   0.00000  Uiso   1.00
H267   H     0.32500   0.38115   0.20498   0.00000  Uiso   1.00
H268   H     0.16271   0.42690   0.11048   0.00000  Uiso   1.00
H269   H     0.28385   0.39351   0.24541   0.00000  Uiso   1.00
H270   H     0.27115   0.37482   0.19038   0.00000  Uiso   1.00
H271   H     0.04952   0.60648   0.25458   0.00000  Uiso   1.00
H272   H     0.06216   0.62519   0.30962   0.00000  Uiso   1.00
H273   H     0.00832   0.61884   0.29496   0.00000  Uiso   1.00
H274   H     0.16382   0.42681   0.38976   0.00000  Uiso   1.00
H275   H     0.16952   0.57319   0.11024   0.00000  Uiso   1.00
H276   H     0.16174   0.38521   0.45944   0.00000  Uiso   1.00
H277   H     0.17159   0.61479   0.04056   0.00000  Uiso   1.00
H278   H     0.16121   0.38525   0.04097   0.00000  Uiso   1.00
H279   H     0.17212   0.61475   0.45903   0.00000  Uiso   1.00
H280   H     0.21400   0.37500   0.29902   0.00000  Uiso   1.00
N281   N     0.16667   0.61907   0.25000   0.00000  Uiso   1.00
N282   N     0.16667   0.38093   0.25000   0.00000  Uiso   1.00
O283   O     0.10559   0.53821   0.24999   0.00000  Uiso   1.00
O284   O     0.28909   0.55595   0.30900   0.00000  Uiso   1.00
O285   O     0.29092   0.44084   0.19350   0.00000  Uiso   1.00
O286   O     0.04241   0.55917   0.30649   0.00000  Uiso   1.00
O287   O     0.22774   0.46179   0.25000   0.00000  Uiso   1.00
O288   O     0.22774   0.53821   0.25000   0.00000  Uiso   1.00
O289   O     0.10559   0.46179   0.24999   0.00000  Uiso   1.00
O290   O     0.16666   0.53823   0.18392   0.00000  Uiso   1.00
O291   O     0.16667   0.46177   0.31607   0.00000  Uiso   1.00
O292   O     0.16667   0.53823   0.31607   0.00000  Uiso   1.00
O293   O     0.16666   0.46177   0.18392   0.00000  Uiso   1.00
O294   O     0.04424   0.44405   0.19099   0.00000  Uiso   1.00
Zn295  Zn    0.16667   0.55104   0.25000   0.00000  Uiso   1.00
Zn296  Zn    0.16667   0.44896   0.25000   0.00000  Uiso   1.00
C297   C     0.42005   0.50028   0.25014   0.00000  Uiso   1.00
C298   C     0.37593   0.50099   0.24941   0.00000  Uiso   1.00
C299   C     0.52631   0.35702   0.27725   0.00000  Uiso   1.00
C300   C     0.47369   0.64298   0.22274   0.00000  Uiso   1.00
C301   C     0.47369   0.35766   0.22274   0.00000  Uiso   1.00
C302   C     0.52631   0.64234   0.27726   0.00000  Uiso   1.00
C303   C     0.49986   0.50002   0.16325   0.00000  Uiso   1.00
C304   C     0.50014   0.49998   0.33674   0.00000  Uiso   1.00
C305   C     0.50236   0.54122   0.40751   0.00000  Uiso   1.00
C306   C     0.49764   0.45878   0.09249   0.00000  Uiso   1.00
C307   C     0.50042   0.49995   0.38469   0.00000  Uiso   1.00
C308   C     0.57995   0.49972   0.24986   0.00000  Uiso   1.00
C309   C     0.49958   0.50005   0.11531   0.00000  Uiso   1.00
C310   C     0.49861   0.45869   0.40765   0.00000  Uiso   1.00
C311   C     0.50139   0.54131   0.09235   0.00000  Uiso   1.00
C312   C     0.49842   0.45840   0.45373   0.00000  Uiso   1.00
C313   C     0.50158   0.54160   0.04627   0.00000  Uiso   1.00
C314   C     0.50016   0.49999   0.47683   0.00000  Uiso   1.00
C315   C     0.49984   0.50001   0.02317   0.00000  Uiso   1.00
C316   C     0.50220   0.54155   0.45358   0.00000  Uiso   1.00
C317   C     0.49780   0.45845   0.04642   0.00000  Uiso   1.00
C318   C     0.49641   0.41727   0.47701   0.00000  Uiso   1.00
C319   C     0.49609   0.41730   0.02329   0.00000  Uiso   1.00
C320   C     0.50359   0.58273   0.02299   0.00000  Uiso   1.00
C321   C     0.38329   0.46813   0.15084   0.00000  Uiso   1.00
C322   C     0.61673   0.53188   0.34917   0.00000  Uiso   1.00
C323   C     0.62654   0.39587   0.20970   0.00000  Uiso   1.00
C324   C     0.37346   0.60414   0.29028   0.00000  Uiso   1.00
C325   C     0.50391   0.58270   0.47671   0.00000  Uiso   1.00
C326   C     0.35543   0.47143   0.22037   0.00000  Uiso   1.00
C327   C     0.64457   0.52857   0.27962   0.00000  Uiso   1.00
C328   C     0.64565   0.46896   0.22234   0.00000  Uiso   1.00
C329   C     0.35435   0.53105   0.27766   0.00000  Uiso   1.00
C330   C     0.62407   0.49901   0.25059   0.00000  Uiso   1.00
H331   H     0.50395   0.57310   0.38952   0.00000  Uiso   1.00
H332   H     0.45267   0.62500   0.20098   0.00000  Uiso   1.00
H333   H     0.45268   0.37614   0.20095   0.00000  Uiso   1.00
H334   H     0.54732   0.62386   0.29905   0.00000  Uiso   1.00
H335   H     0.40156   0.44645   0.12754   0.00000  Uiso   1.00
H336   H     0.40136   0.49974   0.15616   0.00000  Uiso   1.00
H337   H     0.35281   0.47618   0.13474   0.00000  Uiso   1.00
H338   H     0.59870   0.50025   0.34386   0.00000  Uiso   1.00
H339   H     0.64722   0.52388   0.36526   0.00000  Uiso   1.00
H340   H     0.59844   0.55355   0.37246   0.00000  Uiso   1.00
H341   H     0.65834   0.38115   0.20498   0.00000  Uiso   1.00
H342   H     0.49605   0.42690   0.11048   0.00000  Uiso   1.00
H343   H     0.61719   0.39351   0.24541   0.00000  Uiso   1.00
H344   H     0.60449   0.37482   0.19038   0.00000  Uiso   1.00
H345   H     0.38285   0.60648   0.25458   0.00000  Uiso   1.00
H346   H     0.39549   0.62519   0.30962   0.00000  Uiso   1.00
H347   H     0.34165   0.61884   0.29496   0.00000  Uiso   1.00
H348   H     0.49715   0.42681   0.38976   0.00000  Uiso   1.00
H349   H     0.50285   0.57319   0.11024   0.00000  Uiso   1.00
H350   H     0.49508   0.38521   0.45944   0.00000  Uiso   1.00
H351   H     0.50493   0.61479   0.04056   0.00000  Uiso   1.00
H352   H     0.49454   0.38525   0.04097   0.00000  Uiso   1.00
H353   H     0.50546   0.61475   0.45903   0.00000  Uiso   1.00
H354   H     0.54733   0.37500   0.29902   0.00000  Uiso   1.00
N355   N     0.50000   0.61907   0.25000   0.00000  Uiso   1.00
N356   N     0.50000   0.38093   0.25000   0.00000  Uiso   1.00
O357   O     0.43892   0.53821   0.24999   0.00000  Uiso   1.00
O358   O     0.62242   0.55595   0.30900   0.00000  Uiso   1.00
O359   O     0.62425   0.44084   0.19350   0.00000  Uiso   1.00
O360   O     0.37574   0.55917   0.30649   0.00000  Uiso   1.00
O361   O     0.56108   0.46179   0.25000   0.00000  Uiso   1.00
O362   O     0.56108   0.53821   0.25000   0.00000  Uiso   1.00
O363   O     0.43892   0.46179   0.24999   0.00000  Uiso   1.00
O364   O     0.49999   0.53823   0.18392   0.00000  Uiso   1.00
O365   O     0.50001   0.46177   0.31607   0.00000  Uiso   1.00
O366   O     0.50001   0.53823   0.31607   0.00000  Uiso   1.00
O367   O     0.49999   0.46177   0.18392   0.00000  Uiso   1.00
O368   O     0.37757   0.44405   0.19099   0.00000  Uiso   1.00
Zn369  Zn    0.50000   0.55104   0.25000   0.00000  Uiso   1.00
Zn370  Zn    0.50000   0.44896   0.25000   0.00000  Uiso   1.00
C371   C     0.75338   0.50028   0.25014   0.00000  Uiso   1.00
C372   C     0.70926   0.50099   0.24941   0.00000  Uiso   1.00
C373   C     0.85965   0.35702   0.27725   0.00000  Uiso   1.00
C374   C     0.80702   0.64298   0.22274   0.00000  Uiso   1.00
C375   C     0.80702   0.35766   0.22274   0.00000  Uiso   1.00
C376   C     0.85965   0.64234   0.27726   0.00000  Uiso   1.00
C377   C     0.83319   0.50002   0.16325   0.00000  Uiso   1.00
C378   C     0.83347   0.49998   0.33674   0.00000  Uiso   1.00
C379   C     0.83570   0.54122   0.40751   0.00000  Uiso   1.00
C380   C     0.83097   0.45878   0.09249   0.00000  Uiso   1.00
C381   C     0.83376   0.49995   0.38469   0.00000  Uiso   1.00
C382   C     0.91329   0.49972   0.24986   0.00000  Uiso   1.00
C383   C     0.83291   0.50005   0.11531   0.00000  Uiso   1.00
C384   C     0.83194   0.45869   0.40765   0.00000  Uiso   1.00
C385   C     0.83472   0.54131   0.09235   0.00000  Uiso   1.00
C386   C     0.83176   0.45840   0.45373   0.00000  Uiso   1.00
C387   C     0.83491   0.54160   0.04627   0.00000  Uiso   1.00
C388   C     0.83350   0.49999   0.47683   0.00000  Uiso   1.00
C389   C     0.83317   0.50001   0.02317   0.00000  Uiso   1.00
C390   C     0.83553   0.54155   0.45358   0.00000  Uiso   1.00
C391   C     0.83113   0.45845   0.04642   0.00000  Uiso   1.00
C392   C     0.82975   0.41727   0.47701   0.00000  Uiso   1.00
C393   C     0.82942   0.41730   0.02329   0.00000  Uiso   1.00
C394   C     0.83692   0.58273   0.02299   0.00000  Uiso   1.00
C395   C     0.71663   0.46813   0.15084   0.00000  Uiso   1.00
C396   C     0.95006   0.53188   0.34917   0.00000  Uiso   1.00
C397   C     0.95988   0.39587   0.20970   0.00000  Uiso   1.00
C398   C     0.70679   0.60414   0.29028   0.00000  Uiso   1.00
C399   C     0.83725   0.58270   0.47671   0.00000  Uiso   1.00
C400   C     0.68876   0.47143   0.22037   0.00000  Uiso   1.00
C401   C     0.97790   0.52857   0.27962   0.00000  Uiso   1.00
C402   C     0.97898   0.46896   0.22234   0.00000  Uiso   1.00
C403   C     0.68768   0.53105   0.27766   0.00000  Uiso   1.00
C404   C     0.95741   0.49901   0.25059   0.00000  Uiso   1.00
H405   H     0.83729   0.57310   0.38952   0.00000  Uiso   1.00
H406   H     0.78601   0.62500   0.20098   0.00000  Uiso   1.00
H407   H     0.78601   0.37614   0.20095   0.00000  Uiso   1.00
H408   H     0.88065   0.62386   0.29905   0.00000  Uiso   1.00
H409   H     0.73489   0.44645   0.12754   0.00000  Uiso   1.00
H410   H     0.73469   0.49974   0.15616   0.00000  Uiso   1.00
H411   H     0.68615   0.47618   0.13474   0.00000  Uiso   1.00
H412   H     0.93203   0.50025   0.34386   0.00000  Uiso   1.00
H413   H     0.98055   0.52388   0.36526   0.00000  Uiso   1.00
H414   H     0.93177   0.55355   0.37246   0.00000  Uiso   1.00
H415   H     0.99167   0.38115   0.20498   0.00000  Uiso   1.00
H416   H     0.82938   0.42690   0.11048   0.00000  Uiso   1.00
H417   H     0.95052   0.39351   0.24541   0.00000  Uiso   1.00
H418   H     0.93782   0.37482   0.19038   0.00000  Uiso   1.00
H419   H     0.71619   0.60648   0.25458   0.00000  Uiso   1.00
H420   H     0.72882   0.62519   0.30962   0.00000  Uiso   1.00
H421   H     0.67499   0.61884   0.29496   0.00000  Uiso   1.00
H422   H     0.83049   0.42681   0.38976   0.00000  Uiso   1.00
H423   H     0.83618   0.57319   0.11024   0.00000  Uiso   1.00
H424   H     0.82841   0.38521   0.45944   0.00000  Uiso   1.00
H425   H     0.83826   0.61479   0.04056   0.00000  Uiso   1.00
H426   H     0.82788   0.38525   0.04097   0.00000  Uiso   1.00
H427   H     0.83879   0.61475   0.45903   0.00000  Uiso   1.00
H428   H     0.88066   0.37500   0.29902   0.00000  Uiso   1.00
N429   N     0.83333   0.61907   0.25000   0.00000  Uiso   1.00
N430   N     0.83333   0.38093   0.25000   0.00000  Uiso   1.00
O431   O     0.77226   0.53821   0.24999   0.00000  Uiso   1.00
O432   O     0.95576   0.55595   0.30900   0.00000  Uiso   1.00
O433   O     0.95759   0.44084   0.19350   0.00000  Uiso   1.00
O434   O     0.70908   0.55917   0.30649   0.00000  Uiso   1.00
O435   O     0.89441   0.46179   0.25000   0.00000  Uiso   1.00
O436   O     0.89441   0.53821   0.25000   0.00000  Uiso   1.00
O437   O     0.77226   0.46179   0.24999   0.00000  Uiso   1.00
O438   O     0.83333   0.53823   0.18392   0.00000  Uiso   1.00
O439   O     0.83334   0.46177   0.31607   0.00000  Uiso   1.00
O440   O     0.83334   0.53823   0.31607   0.00000  Uiso   1.00
O441   O     0.83333   0.46177   0.18392   0.00000  Uiso   1.00
O442   O     0.71091   0.44405   0.19099   0.00000  Uiso   1.00
Zn443  Zn    0.83333   0.55104   0.25000   0.00000  Uiso   1.00
Zn444  Zn    0.83333   0.44896   0.25000   0.00000  Uiso   1.00
C445   C     0.08671   0.83361   0.25014   0.00000  Uiso   1.00
C446   C     0.04259   0.83432   0.24941   0.00000  Uiso   1.00
C447   C     0.19298   0.69035   0.27725   0.00000  Uiso   1.00
C448   C     0.14035   0.97631   0.22274   0.00000  Uiso   1.00
C449   C     0.14035   0.69099   0.22274   0.00000  Uiso   1.00
C450   C     0.19298   0.97568   0.27726   0.00000  Uiso   1.00
C451   C     0.16653   0.83336   0.16325   0.00000  Uiso   1.00
C452   C     0.16681   0.83331   0.33674   0.00000  Uiso   1.00
C453   C     0.16903   0.87455   0.40751   0.00000  Uiso   1.00
C454   C     0.16430   0.79211   0.09249   0.00000  Uiso   1.00
C455   C     0.16709   0.83329   0.38469   0.00000  Uiso   1.00
C456   C     0.24662   0.83306   0.24986   0.00000  Uiso   1.00
C457   C     0.16624   0.83338   0.11531   0.00000  Uiso   1.00
C458   C     0.16528   0.79203   0.40765   0.00000  Uiso   1.00
C459   C     0.16806   0.87464   0.09235   0.00000  Uiso   1.00
C460   C     0.16509   0.79173   0.45373   0.00000  Uiso   1.00
C461   C     0.16824   0.87494   0.04627   0.00000  Uiso   1.00
C462   C     0.16683   0.83332   0.47683   0.00000  Uiso   1.00
C463   C     0.16650   0.83335   0.02317   0.00000  Uiso   1.00
C464   C     0.16886   0.87489   0.45358   0.00000  Uiso   1.00
C465   C     0.16447   0.79178   0.04642   0.00000  Uiso   1.00
C466   C     0.16308   0.75061   0.47701   0.00000  Uiso   1.00
C467   C     0.16275   0.75063   0.02329   0.00000  Uiso   1.00
C468   C     0.17026   0.91606   0.02299   0.00000  Uiso   1.00
C469   C     0.04996   0.80146   0.15084   0.00000  Uiso   1.00
C470   C     0.28340   0.86522   0.34917   0.00000  Uiso   1.00
C471   C     0.29321   0.72920   0.20970   0.00000  Uiso   1.00
C472   C     0.04013   0.93747   0.29028   0.00000  Uiso   1.00
C473   C     0.17058   0.91604   0.47671   0.00000  Uiso   1.00
C474   C     0.02209   0.80476   0.22037   0.00000  Uiso   1.00
C475   C     0.31124   0.86191   0.27962   0.00000  Uiso   1.00
C476   C     0.31232   0.80229   0.22234   0.00000  Uiso   1.00
C477   C     0.02102   0.86438   0.27766   0.00000  Uiso   1.00
C478   C     0.29074   0.83234   0.25059   0.00000  Uiso   1.00
H479   H     0.17062   0.90643   0.38952   0.00000  Uiso   1.00
H480   H     0.11934   0.95833   0.20098   0.00000  Uiso   1.00
H481   H     0.11935   0.70948   0.20095   0.00000  Uiso   1.00
H482   H     0.21399   0.95719   0.29905   0.00000  Uiso   1.00
H483   H     0.06823   0.77978   0.12754   0.00000  Uiso   1.00
H484   H     0.06803   0.83307   0.15616   0.00000  Uiso   1.00
H485   H     0.01948   0.80951   0.13474   0.00000  Uiso   1.00
H486   H     0.26536   0.83358   0.34386   0.00000  Uiso   1.00
H487   H     0.31389   0.85721   0.36526   0.00000  Uiso   1.00
H488   H     0.26510   0.88689   0.37246   0.00000  Uiso   1.00
H489   H     0.32500   0.71448   0.20498   0.00000  Uiso   1.00
H490   H     0.16271   0.76023   0.11048   0.00000  Uiso   1.00
H491   H     0.28385   0.72685   0.24541   0.00000  Uiso   1.00
H492   H     0.27115   0.70816   0.19038   0.00000  Uiso   1.00
H493   H     0.04952   0.93981   0.25458   0.00000  Uiso   1.00
H494   H     0.06216   0.95852   0.30962   0.00000  Uiso   1.00
H495   H     0.00832   0.95218   0.29496   0.00000  Uiso   1.00
H496   H     0.16382   0.76014   0.38976   0.00000  Uiso   1.00
H497   H     0.16952   0.90653   0.11024   0.00000  Uiso   1.00
H498   H     0.16174   0.71855   0.45944   0.00000  Uiso   1.00
H499   H     0.17159   0.94812   0.04056   0.00000  Uiso   1.00
H500   H     0.16121   0.71859   0.04097   0.00000  Uiso   1.00
H501   H     0.17212   0.94808   0.45903   0.00000  Uiso   1.00
H502   H     0.21400   0.70834   0.29902   0.00000  Uiso   1.00
N503   N     0.16667   0.95240   0.25000   0.00000  Uiso   1.00
N504   N     0.16667   0.71427   0.25000   0.00000  Uiso   1.00
O505   O     0.10559   0.87154   0.24999   0.00000  Uiso   1.00
O506   O     0.28909   0.88929   0.30900   0.00000  Uiso   1.00
O507   O     0.29092   0.77417   0.19350   0.00000  Uiso   1.00
O508   O     0.04241   0.89250   0.30649   0.00000  Uiso   1.00
O509   O     0.22774   0.79513   0.25000   0.00000  Uiso   1.00
O510   O     0.22774   0.87154   0.25000   0.00000  Uiso   1.00
O511   O     0.10559   0.79513   0.24999   0.00000  Uiso   1.00
O512   O     0.16666   0.87156   0.18392   0.00000  Uiso   1.00
O513   O     0.16667   0.79511   0.31607   0.00000  Uiso   1.00
O514   O     0.16667   0.87156   0.31607   0.00000  Uiso   1.00
O515   O     0.16666   0.79511   0.18392   0.00000  Uiso   1.00
O516   O     0.04424   0.77738   0.19099   0.00000  Uiso   1.00
Zn517  Zn    0.16667   0.88437   0.25000   0.00000  Uiso   1.00
Zn518  Zn    0.16667   0.78229   0.25000   0.00000  Uiso   1.00
C519   C     0.42005   0.83361   0.25014   0.00000  Uiso   1.00
C520   C     0.37593   0.83432   0.24941   0.00000  Uiso   1.00
C521   C     0.52631   0.69035   0.27725   0.00000  Uiso   1.00
C522   C     0.47369   0.97631   0.22274   0.00000  Uiso   1.00
C523   C     0.47369   0.69099   0.22274   0.00000  Uiso   1.00
C524   C     0.52631   0.97568   0.27726   0.00000  Uiso   1.00
C525   C     0.49986   0.83336   0.16325   0.00000  Uiso   1.00
C526   C     0.50014   0.83331   0.33674   0.00000  Uiso   1.00
C527   C     0.50236   0.87455   0.40751   0.00000  Uiso   1.00
C528   C     0.49764   0.79211   0.09249   0.00000  Uiso   1.00
C529   C     0.50042   0.83329   0.38469   0.00000  Uiso   1.00
C530   C     0.57995   0.83306   0.24986   0.00000  Uiso   1.00
C531   C     0.49958   0.83338   0.11531   0.00000  Uiso   1.00
C532   C     0.49861   0.79203   0.40765   0.00000  Uiso   1.00
C533   C     0.50139   0.87464   0.09235   0.00000  Uiso   1.00
C534   C     0.49842   0.79173   0.45373   0.00000  Uiso   1.00
C535   C     0.50158   0.87494   0.04627   0.00000  Uiso   1.00
C536   C     0.50016   0.83332   0.47683   0.00000  Uiso   1.00
C537   C     0.49984   0.83335   0.02317   0.00000  Uiso   1.00
C538   C     0.50220   0.87489   0.45358   0.00000  Uiso   1.00
C539   C     0.49780   0.79178   0.04642   0.00000  Uiso   1.00
C540   C     0.49641   0.75061   0.47701   0.00000  Uiso   1.00
C541   C     0.49609   0.75063   0.02329   0.00000  Uiso   1.00
C542   C     0.50359   0.91606   0.02299   0.00000  Uiso   1.00
C543   C     0.38329   0.80146   0.15084   0.00000  Uiso   1.00
C544   C     0.61673   0.86522   0.34917   0.00000  Uiso   1.00
C545   C     0.62654   0.72920   0.20970   0.00000  Uiso   1.00
C546   C     0.37346   0.93747   0.29028   0.00000  Uiso   1.00
C547   C     0.50391   0.91604   0.47671   0.00000  Uiso   1.00
C548   C     0.35543   0.80476   0.22037   0.00000  Uiso   1.00
C549   C     0.64457   0.86191   0.27962   0.00000  Uiso   1.00
C550   C     0.64565   0.80229   0.22234   0.00000  Uiso   1.00
C551   C     0.35435   0.86438   0.27766   0.00000  Uiso   1.00
C552   C     0.62407   0.83234   0.25059   0.00000  Uiso   1.00
H553   H     0.50395   0.90643   0.38952   0.00000  Uiso   1.00
H554   H     0.45267   0.95833   0.20098   0.00000  Uiso   1.00
H555   H     0.45268   0.70948   0.20095   0.00000  Uiso   1.00
H556   H     0.54732   0.95719   0.29905   0.00000  Uiso   1.00
H557   H     0.40156   0.77978   0.12754   0.00000  Uiso   1.00
H558   H     0.40136   0.83307   0.15616   0.00000  Uiso   1.00
H559   H     0.35281   0.80951   0.13474   0.00000  Uiso   1.00
H560   H     0.59870   0.83358   0.34386   0.00000  Uiso   1.00
H561   H     0.64722   0.85721   0.36526   0.00000  Uiso   1.00
H562   H     0.59844   0.88689   0.37246   0.00000  Uiso   1.00
H563   H     0.65834   0.71448   0.20498   0.00000  Uiso   1.00
H564   H     0.49605   0.76023   0.11048   0.00000  Uiso   1.00
H565   H     0.61719   0.72685   0.24541   0.00000  Uiso   1.00
H566   H     0.60449   0.70816   0.19038   0.00000  Uiso   1.00
H567   H     0.38285   0.93981   0.25458   0.00000  Uiso   1.00
H568   H     0.39549   0.95852   0.30962   0.00000  Uiso   1.00
H569   H     0.34165   0.95218   0.29496   0.00000  Uiso   1.00
H570   H     0.49715   0.76014   0.38976   0.00000  Uiso   1.00
H571   H     0.50285   0.90653   0.11024   0.00000  Uiso   1.00
H572   H     0.49508   0.71855   0.45944   0.00000  Uiso   1.00
H573   H     0.50493   0.94812   0.04056   0.00000  Uiso   1.00
H574   H     0.49454   0.71859   0.04097   0.00000  Uiso   1.00
H575   H     0.50546   0.94808   0.45903   0.00000  Uiso   1.00
H576   H     0.54733   0.70834   0.29902   0.00000  Uiso   1.00
N577   N     0.50000   0.95240   0.25000   0.00000  Uiso   1.00
N578   N     0.50000   0.71427   0.25000   0.00000  Uiso   1.00
O579   O     0.43892   0.87154   0.24999   0.00000  Uiso   1.00
O580   O     0.62242   0.88929   0.30900   0.00000  Uiso   1.00
O581   O     0.62425   0.77417   0.19350   0.00000  Uiso   1.00
O582   O     0.37574   0.89250   0.30649   0.00000  Uiso   1.00
O583   O     0.56108   0.79513   0.25000   0.00000  Uiso   1.00
O584   O     0.56108   0.87154   0.25000   0.00000  Uiso   1.00
O585   O     0.43892   0.79513   0.24999   0.00000  Uiso   1.00
O586   O     0.49999   0.87156   0.18392   0.00000  Uiso   1.00
O587   O     0.50001   0.79511   0.31607   0.00000  Uiso   1.00
O588   O     0.50001   0.87156   0.31607   0.00000  Uiso   1.00
O589   O     0.49999   0.79511   0.18392   0.00000  Uiso   1.00
O590   O     0.37757   0.77738   0.19099   0.00000  Uiso   1.00
Zn591  Zn    0.50000   0.88437   0.25000   0.00000  Uiso   1.00
Zn592  Zn    0.50000   0.78229   0.25000   0.00000  Uiso   1.00
C593   C     0.75338   0.83361   0.25014   0.00000  Uiso   1.00
C594   C     0.70926   0.83432   0.24941   0.00000  Uiso   1.00
C595   C     0.85965   0.69035   0.27725   0.00000  Uiso   1.00
C596   C     0.80702   0.97631   0.22274   0.00000  Uiso   1.00
C597   C     0.80702   0.69099   0.22274   0.00000  Uiso   1.00
C598   C     0.85965   0.97568   0.27726   0.00000  Uiso   1.00
C599   C     0.83319   0.83336   0.16325   0.00000  Uiso   1.00
C600   C     0.83347   0.83331   0.33674   0.00000  Uiso   1.00
C601   C     0.83570   0.87455   0.40751   0.00000  Uiso   1.00
C602   C     0.83097   0.79211   0.09249   0.00000  Uiso   1.00
C603   C     0.83376   0.83329   0.38469   0.00000  Uiso   1.00
C604   C     0.91329   0.83306   0.24986   0.00000  Uiso   1.00
C605   C     0.83291   0.83338   0.11531   0.00000  Uiso   1.00
C606   C     0.83194   0.79203   0.40765   0.00000  Uiso   1.00
C607   C     0.83472   0.87464   0.09235   0.00000  Uiso   1.00
C608   C     0.83176   0.79173   0.45373   0.00000  Uiso   1.00
C609   C     0.83491   0.87494   0.04627   0.00000  Uiso   1.00
C610   C     0.83350   0.83332   0.47683   0.00000  Uiso   1.00
C611   C     0.83317   0.83335   0.02317   0.00000  Uiso   1.00
C612   C     0.83553   0.87489   0.45358   0.00000  Uiso   1.00
C613   C     0.83113   0.79178   0.04642   0.00000  Uiso   1.00
C614   C     0.82975   0.75061   0.47701   0.00000  Uiso   1.00
C615   C     0.82942   0.75063   0.02329   0.00000  Uiso   1.00
C616   C     0.83692   0.91606   0.02299   0.00000  Uiso   1.00
C617   C     0.71663   0.80146   0.15084   0.00000  Uiso   1.00
C618   C     0.95006   0.86522   0.34917   0.00000  Uiso   1.00
C619   C     0.95988   0.72920   0.20970   0.00000  Uiso   1.00
C620   C     0.70679   0.93747   0.29028   0.00000  Uiso   1.00
C621   C     0.83725   0.91604   0.47671   0.00000  Uiso   1.00
C622   C     0.68876   0.80476   0.22037   0.00000  Uiso   1.00
C623   C     0.97790   0.86191   0.27962   0.00000  Uiso   1.00
C624   C     0.97898   0.80229   0.22234   0.00000  Uiso   1.00
C625   C     0.68768   0.86438   0.27766   0.00000  Uiso   1.00
C626   C     0.95741   0.83234   0.25059   0.00000  Uiso   1.00
H627   H     0.83729   0.90643   0.38952   0.00000  Uiso   1.00
H628   H     0.78601   0.95833   0.20098   0.00000  Uiso   1.00
H629   H     0.78601   0.70948   0.20095   0.00000  Uiso   1.00
H630   H     0.88065   0.95719   0.29905   0.00000  Uiso   1.00
H631   H     0.73489   0.77978   0.12754   0.00000  Uiso   1.00
H632   H     0.73469   0.83307   0.15616   0.00000  Uiso   1.00
H633   H     0.68615   0.80951   0.13474   0.00000  Uiso   1.00
H634   H     0.93203   0.83358   0.34386   0.00000  Uiso   1.00
H635   H     0.98055   0.85721   0.36526   0.00000  Uiso   1.00
H636   H     0.93177   0.88689   0.37246   0.00000  Uiso   1.00
H637   H     0.99167   0.71448   0.20498   0.00000  Uiso   1.00
H638   H     0.82938   0.76023   0.11048   0.00000  Uiso   1.00
H639   H     0.95052   0.72685   0.24541   0.00000  Uiso   1.00
H640   H     0.93782   0.70816   0.19038   0.00000  Uiso   1.00
H641   H     0.71619   0.93981   0.25458   0.00000  Uiso   1.00
H642   H     0.72882   0.95852   0.30962   0.00000  Uiso   1.00
H643   H     0.67499   0.95218   0.29496   0.00000  Uiso   1.00
H644   H     0.83049   0.76014   0.38976   0.00000  Uiso   1.00
H645   H     0.83618   0.90653   0.11024   0.00000  Uiso   1.00
H646   H     0.82841   0.71855   0.45944   0.00000  Uiso   1.00
H647   H     0.83826   0.94812   0.04056   0.00000  Uiso   1.00
H648   H     0.82788   0.71859   0.04097   0.00000  Uiso   1.00
H649   H     0.83879   0.94808   0.45903   0.00000  Uiso   1.00
H650   H     0.88066   0.70834   0.29902   0.00000  Uiso   1.00
N651   N     0.83333   0.95240   0.25000   0.00000  Uiso   1.00
N652   N     0.83333   0.71427   0.25000   0.00000  Uiso   1.00
O653   O     0.77226   0.87154   0.24999   0.00000  Uiso   1.00
O654   O     0.95576   0.88929   0.30900   0.00000  Uiso   1.00
O655   O     0.95759   0.77417   0.19350   0.00000  Uiso   1.00
O656   O     0.70908   0.89250   0.30649   0.00000  Uiso   1.00
O657   O     0.89441   0.79513   0.25000   0.00000  Uiso   1.00
O658   O     0.89441   0.87154   0.25000   0.00000  Uiso   1.00
O659   O     0.77226   0.79513   0.24999   0.00000  Uiso   1.00
O660   O     0.83333   0.87156   0.18392   0.00000  Uiso   1.00
O661   O     0.83334   0.79511   0.31607   0.00000  Uiso   1.00
O662   O     0.83334   0.87156   0.31607   0.00000  Uiso   1.00
O663   O     0.83333   0.79511   0.18392   0.00000  Uiso   1.00
O664   O     0.71091   0.77738   0.19099   0.00000  Uiso   1.00
Zn665  Zn    0.83333   0.88437   0.25000   0.00000  Uiso   1.00
Zn666  Zn    0.83333   0.78229   0.25000   0.00000  Uiso   1.00
C667   C     0.08671   0.16695   0.75014   0.00000  Uiso   1.00
C668   C     0.04259   0.16766   0.74941   0.00000  Uiso   1.00
C669   C     0.19298   0.02369   0.77725   0.00000  Uiso   1.00
C670   C     0.14035   0.30965   0.72274   0.00000  Uiso   1.00
C671   C     0.14035   0.02432   0.72274   0.00000  Uiso   1.00
C672   C     0.19298   0.30901   0.77726   0.00000  Uiso   1.00
C673   C     0.16653   0.16669   0.66325   0.00000  Uiso   1.00
C674   C     0.16681   0.16664   0.83674   0.00000  Uiso   1.00
C675   C     0.16903   0.20789   0.90751   0.00000  Uiso   1.00
C676   C     0.16430   0.12545   0.59249   0.00000  Uiso   1.00
C677   C     0.16709   0.16662   0.88469   0.00000  Uiso   1.00
C678   C     0.24662   0.16639   0.74986   0.00000  Uiso   1.00
C679   C     0.16624   0.16671   0.61531   0.00000  Uiso   1.00
C680   C     0.16528   0.12536   0.90765   0.00000  Uiso   1.00
C681   C     0.16806   0.20797   0.59235   0.00000  Uiso   1.00
C682   C     0.16509   0.12506   0.95373   0.00000  Uiso   1.00
C683   C     0.16824   0.20827   0.54627   0.00000  Uiso   1.00
C684   C     0.16683   0.16665   0.97683   0.00000  Uiso   1.00
C685   C     0.16650   0.16668   0.52317   0.00000  Uiso   1.00
C686   C     0.16886   0.20822   0.95358   0.00000  Uiso   1.00
C687   C     0.16447   0.12511   0.54642   0.00000  Uiso   1.00
C688   C     0.16308   0.08394   0.97701   0.00000  Uiso   1.00
C689   C     0.16275   0.08396   0.52329   0.00000  Uiso   1.00
C690   C     0.17026   0.24939   0.52299   0.00000  Uiso   1.00
C691   C     0.04996   0.13479   0.65084   0.00000  Uiso   1.00
C692   C     0.28340   0.19855   0.84917   0.00000  Uiso   1.00
C693   C     0.29321   0.06253   0.70970   0.00000  Uiso   1.00
C694   C     0.04013   0.27080   0.79028   0.00000  Uiso   1.00
C695   C     0.17058   0.24937   0.97671   0.00000  Uiso   1.00
C696   C     0.02209   0.13809   0.72037   0.00000  Uiso   1.00
C697   C     0.31124   0.19524   0.77962   0.00000  Uiso   1.00
C698   C     0.31232   0.13562   0.72234   0.00000  Uiso   1.00
C699   C     0.02102   0.19771   0.77766   0.00000  Uiso   1.00
C700   C     0.29074   0.16568   0.75059   0.00000  Uiso   1.00
H701   H     0.17062   0.23977   0.88952   0.00000  Uiso   1.00
H702   H     0.11934   0.29166   0.70098   0.00000  Uiso   1.00
H703   H     0.11935   0.04281   0.70095   0.00000  Uiso   1.00
H704   H     0.21399   0.29052   0.79905   0.00000  Uiso   1.00
H705   H     0.06823   0.11311   0.62754   0.00000  Uiso   1.00
H706   H     0.06803   0.16641   0.65616   0.00000  Uiso   1.00
H707   H     0.01948   0.14285   0.63474   0.00000  Uiso   1.00
H708   H     0.26536   0.16691   0.84386   0.00000  Uiso   1.00
H709   H     0.31389   0.19054   0.86526   0.00000  Uiso   1.00
H710   H     0.26510   0.22022   0.87246   0.00000  Uiso   1.00
H711   H     0.32500   0.04782   0.70498   0.00000  Uiso   1.00
H712   H     0.16271   0.09357   0.61048   0.00000  Uiso   1.00
H713   H     0.28385   0.06018   0.74541   0.00000  Uiso   1.00
H714   H     0.27115   0.04149   0.69038   0.00000  Uiso   1.00
H715   H     0.04952   0.27314   0.75458   0.00000  Uiso   1.00
H716   H     0.06216   0.29186   0.80962   0.00000  Uiso   1.00
H717   H     0.00832   0.28551   0.79496   0.00000  Uiso   1.00
H718   H     0.16382   0.09347   0.88976   0.00000  Uiso   1.00
H719   H     0.16952   0.23986   0.61024   0.00000  Uiso   1.00
H720   H     0.16174   0.05188   0.95944   0.00000  Uiso   1.00
H721   H     0.17159   0.28145   0.54056   0.00000  Uiso   1.00
H722   H     0.16121   0.05192   0.54097   0.00000  Uiso   1.00
H723   H     0.17212   0.28141   0.95903   0.00000  Uiso   1.00
H724   H     0.21400   0.04167   0.79902   0.00000  Uiso   1.00
N725   N     0.16667   0.28573   0.75000   0.00000  Uiso   1.00
N726   N     0.16667   0.04760   0.75000   0.00000  Uiso   1.00
O727   O     0.10559   0.20487   0.74999   0.00000  Uiso   1.00
O728   O     0.28909   0.22262   0.80900   0.00000  Uiso   1.00
O729   O     0.29092   0.10750   0.69350   0.00000  Uiso   1.00
O730   O     0.04241   0.22584   0.80649   0.00000  Uiso   1.00
O731   O     0.22774   0.12846   0.75000   0.00000  Uiso   1.00
O732   O     0.22774   0.20487   0.75000   0.00000  Uiso   1.00
O733   O     0.10559   0.12846   0.74999   0.00000  Uiso   1.00
O734   O     0.16666   0.20489   0.68392   0.00000  Uiso   1.00
O735   O     0.16667   0.12844   0.81607   0.00000  Uiso   1.00
O736   O     0.16667   0.20489   0.81607   0.00000  Uiso   1.00
O737   O     0.16666   0.12844   0.68392   0.00000  Uiso   1.00
O738   O     0.04424   0.11071   0.69099   0.00000  Uiso   1.00
Zn739  Zn    0.16667   0.21771   0.75000   0.00000  Uiso   1.00
Zn740  Zn    0.16667   0.11563   0.75000   0.00000  Uiso   1.00
C741   C     0.42005   0.16695   0.75014   0.00000  Uiso   1.00
C742   C     0.37593   0.16766   0.74941   0.00000  Uiso   1.00
C743   C     0.52631   0.02369   0.77725   0.00000  Uiso   1.00
C744   C     0.47369   0.30965   0.72274   0.00000  Uiso   1.00
C745   C     0.47369   0.02432   0.72274   0.00000  Uiso   1.00
C746   C     0.52631   0.30901   0.77726   0.00000  Uiso   1.00
C747   C     0.49986   0.16669   0.66325   0.00000  Uiso   1.00
C748   C     0.50014   0.16664   0.83674   0.00000  Uiso   1.00
C749   C     0.50236   0.20789   0.90751   0.00000  Uiso   1.00
C750   C     0.49764   0.12545   0.59249   0.00000  Uiso   1.00
C751   C     0.50042   0.16662   0.88469   0.00000  Uiso   1.00
C752   C     0.57995   0.16639   0.74986   0.00000  Uiso   1.00
C753   C     0.49958   0.16671   0.61531   0.00000  Uiso   1.00
C754   C     0.49861   0.12536   0.90765   0.00000  Uiso   1.00
C755   C     0.50139   0.20797   0.59235   0.00000  Uiso   1.00
C756   C     0.49842   0.12506   0.95373   0.00000  Uiso   1.00
C757   C     0.50158   0.20827   0.54627   0.00000  Uiso   1.00
C758   C     0.50016   0.16665   0.97683   0.00000  Uiso   1.00
C759   C     0.49984   0.16668   0.52317   0.00000  Uiso   1.00
C760   C     0.50220   0.20822   0.95358   0.00000  Uiso   1.00
C761   C     0.49780   0.12511   0.54642   0.00000  Uiso   1.00
C762   C     0.49641   0.08394   0.97701   0.00000  Uiso   1.00
C763   C     0.49609   0.08396   0.52329   0.00000  Uiso   1.00
C764   C     0.50359   0.24939   0.52299   0.00000  Uiso   1.00
C765   C     0.38329   0.13479   0.65084   0.00000  Uiso   1.00
C766   C     0.61673   0.19855   0.84917   0.00000  Uiso   1.00
C767   C     0.62654   0.06253   0.70970   0.00000  Uiso   1.00
C768   C     0.37346   0.27080   0.79028   0.00000  Uiso   1.00
C769   C     0.50391   0.24937   0.97671   0.00000  Uiso   1.00
C770   C     0.35543   0.13809   0.72037   0.00000  Uiso   1.00
C771   C     0.64457   0.19524   0.77962   0.00000  Uiso   1.00
C772   C     0.64565   0.13562   0.72234   0.00000  Uiso   1.00
C773   C     0.35435   0.19771   0.77766   0.00000  Uiso   1.00
C774   C     0.62407   0.16568   0.75059   0.00000  Uiso   1.00
H775   H     0.50395   0.23977   0.88952   0.00000  Uiso   1.00
H776   H     0.45267   0.29166   0.70098   0.00000  Uiso   1.00
H777   H     0.45268   0.04281   0.70095   0.00000  Uiso   1.00
H778   H     0.54732   0.29052   0.79905   0.00000  Uiso   1.00
H779   H     0.40156   0.11311   0.62754   0.00000  Uiso   1.00
H780   H     0.40136   0.16641   0.65616   0.00000  Uiso   1.00
H781   H     0.35281   0.14285   0.63474   0.00000  Uiso   1.00
H782   H     0.59870   0.16691   0.84386   0.00000  Uiso   1.00
H783   H     0.64722   0.19054   0.86526   0.00000  Uiso   1.00
H784   H     0.59844   0.22022   0.87246   0.00000  Uiso   1.00
H785   H     0.65834   0.04782   0.70498   0.00000  Uiso   1.00
H786   H     0.49605   0.09357   0.61048   0.00000  Uiso   1.00
H787   H     0.61719   0.06018   0.74541   0.00000  Uiso   1.00
H788   H     0.60449   0.04149   0.69038   0.00000  Uiso   1.00
H789   H     0.38285   0.27314   0.75458   0.00000  Uiso   1.00
H790   H     0.39549   0.29186   0.80962   0.00000  Uiso   1.00
H791   H     0.34165   0.28551   0.79496   0.00000  Uiso   1.00
H792   H     0.49715   0.09347   0.88976   0.00000  Uiso   1.00
H793   H     0.50285   0.23986   0.61024   0.00000  Uiso   1.00
H794   H     0.49508   0.05188   0.95944   0.00000  Uiso   1.00
H795   H     0.50493   0.28145   0.54056   0.00000  Uiso   1.00
H796   H     0.49454   0.05192   0.54097   0.00000  Uiso   1.00
H797   H     0.50546   0.28141   0.95903   0.00000  Uiso   1.00
H798   H     0.54733   0.04167   0.79902   0.00000  Uiso   1.00
N799   N     0.50000   0.28573   0.75000   0.00000  Uiso   1.00
N800   N     0.50000   0.04760   0.75000   0.00000  Uiso   1.00
O801   O     0.43892   0.20487   0.74999   0.00000  Uiso   1.00
O802   O     0.62242   0.22262   0.80900   0.00000  Uiso   1.00
O803   O     0.62425   0.10750   0.69350   0.00000  Uiso   1.00
O804   O     0.37574   0.22584   0.80649   0.00000  Uiso   1.00
O805   O     0.56108   0.12846   0.75000   0.00000  Uiso   1.00
O806   O     0.56108   0.20487   0.75000   0.00000  Uiso   1.00
O807   O     0.43892   0.12846   0.74999   0.00000  Uiso   1.00
O808   O     0.49999   0.20489   0.68392   0.00000  Uiso   1.00
O809   O     0.50001   0.12844   0.81607   0.00000  Uiso   1.00
O810   O     0.50001   0.20489   0.81607   0.00000  Uiso   1.00
O811   O     0.49999   0.12844   0.68392   0.00000  Uiso   1.00
O812   O     0.37757   0.11071   0.69099   0.00000  Uiso   1.00
Zn813  Zn    0.50000   0.21771   0.75000   0.00000  Uiso   1.00
Zn814  Zn    0.50000   0.11563   0.75000   0.00000  Uiso   1.00
C815   C     0.75338   0.16695   0.75014   0.00000  Uiso   1.00
C816   C     0.70926   0.16766   0.74941   0.00000  Uiso   1.00
C817   C     0.85965   0.02369   0.77725   0.00000  Uiso   1.00
C818   C     0.80702   0.30965   0.72274   0.00000  Uiso   1.00
C819   C     0.80702   0.02432   0.72274   0.00000  Uiso   1.00
C820   C     0.85965   0.30901   0.77726   0.00000  Uiso   1.00
C821   C     0.83319   0.16669   0.66325   0.00000  Uiso   1.00
C822   C     0.83347   0.16664   0.83674   0.00000  Uiso   1.00
C823   C     0.83570   0.20789   0.90751   0.00000  Uiso   1.00
C824   C     0.83097   0.12545   0.59249   0.00000  Uiso   1.00
C825   C     0.83376   0.16662   0.88469   0.00000  Uiso   1.00
C826   C     0.91329   0.16639   0.74986   0.00000  Uiso   1.00
C827   C     0.83291   0.16671   0.61531   0.00000  Uiso   1.00
C828   C     0.83194   0.12536   0.90765   0.00000  Uiso   1.00
C829   C     0.83472   0.20797   0.59235   0.00000  Uiso   1.00
C830   C     0.83176   0.12506   0.95373   0.00000  Uiso   1.00
C831   C     0.83491   0.20827   0.54627   0.00000  Uiso   1.00
C832   C     0.83350   0.16665   0.97683   0.00000  Uiso   1.00
C833   C     0.83317   0.16668   0.52317   0.00000  Uiso   1.00
C834   C     0.83553   0.20822   0.95358   0.00000  Uiso   1.00
C835   C     0.83113   0.12511   0.54642   0.00000  Uiso   1.00
C836   C     0.82975   0.08394   0.97701   0.00000  Uiso   1.00
C837   C     0.82942   0.08396   0.52329   0.00000  Uiso   1.00
C838   C     0.83692   0.24939   0.52299   0.00000  Uiso   1.00
C839   C     0.71663   0.13479   0.65084   0.00000  Uiso   1.00
C840   C     0.95006   0.19855   0.84917   0.00000  Uiso   1.00
C841   C     0.95988   0.06253   0.70970   0.00000  Uiso   1.00
C842   C     0.70679   0.27080   0.79028   0.00000  Uiso   1.00
C843   C     0.83725   0.24937   0.97671   0.00000  Uiso   1.00
C844   C     0.68876   0.13809   0.72037   0.00000  Uiso   1.00
C845   C     0.97790   0.19524   0.77962   0.00000  Uiso   1.00
C846   C     0.97898   0.13562   0.72234   0.00000  Uiso   1.00
C847   C     0.68768   0.19771   0.77766   0.00000  Uiso   1.00
C848   C     0.95741   0.16568   0.75059   0.00000  Uiso   1.00
H849   H     0.83729   0.23977   0.88952   0.00000  Uiso   1.00
H850   H     0.78601   0.29166   0.70098   0.00000  Uiso   1.00
H851   H     0.78601   0.04281   0.70095   0.00000  Uiso   1.00
H852   H     0.88065   0.29052   0.79905   0.00000  Uiso   1.00
H853   H     0.73489   0.11311   0.62754   0.00000  Uiso   1.00
H854   H     0.73469   0.16641   0.65616   0.00000  Uiso   1.00
H855   H     0.68615   0.14285   0.63474   0.00000  Uiso   1.00
H856   H     0.93203   0.16691   0.84386   0.00000  Uiso   1.00
H857   H     0.98055   0.19054   0.86526   0.00000  Uiso   1.00
H858   H     0.93177   0.22022   0.87246   0.00000  Uiso   1.00
H859   H     0.99167   0.04782   0.70498   0.00000  Uiso   1.00
H860   H     0.82938   0.09357   0.61048   0.00000  Uiso   1.00
H861   H     0.95052   0.06018   0.74541   0.00000  Uiso   1.00
H862   H     0.93782   0.04149   0.69038   0.00000  Uiso   1.00
H863   H     0.71619   0.27314   0.75458   0.00000  Uiso   1.00
H864   H     0.72882   0.29186   0.80962   0.00000  Uiso   1.00
H865   H     0.67499   0.28551   0.79496   0.00000  Uiso   1.00
H866   H     0.83049   0.09347   0.88976   0.00000  Uiso   1.00
H867   H     0.83618   0.23986   0.61024   0.00000  Uiso   1.00
H868   H     0.82841   0.05188   0.95944   0.00000  Uiso   1.00
H869   H     0.83826   0.28145   0.54056   0.00000  Uiso   1.00
H870   H     0.82788   0.05192   0.54097   0.00000  Uiso   1.00
H871   H     0.83879   0.28141   0.95903   0.00000  Uiso   1.00
H872   H     0.88066   0.04167   0.79902   0.00000  Uiso   1.00
N873   N     0.83333   0.28573   0.75000   0.00000  Uiso   1.00
N874   N     0.83333   0.04760   0.75000   0.00000  Uiso   1.00
O875   O     0.77226   0.20487   0.74999   0.00000  Uiso   1.00
O876   O     0.95576   0.22262   0.80900   0.00000  Uiso   1.00
O877   O     0.95759   0.10750   0.69350   0.00000  Uiso   1.00
O878   O     0.70908   0.22584   0.80649   0.00000  Uiso   1.00
O879   O     0.89441   0.12846   0.75000   0.00000  Uiso   1.00
O880   O     0.89441   0.20487   0.75000   0.00000  Uiso   1.00
O881   O     0.77226   0.12846   0.74999   0.00000  Uiso   1.00
O882   O     0.83333   0.20489   0.68392   0.00000  Uiso   1.00
O883   O     0.83334   0.12844   0.81607   0.00000  Uiso   1.00
O884   O     0.83334   0.20489   0.81607   0.00000  Uiso   1.00
O885   O     0.83333   0.12844   0.68392   0.00000  Uiso   1.00
O886   O     0.71091   0.11071   0.69099   0.00000  Uiso   1.00
Zn887  Zn    0.83333   0.21771   0.75000   0.00000  Uiso   1.00
Zn888  Zn    0.83333   0.11563   0.75000   0.00000  Uiso   1.00
C889   C     0.08671   0.50028   0.75014   0.00000  Uiso   1.00
C890   C     0.04259   0.50099   0.74941   0.00000  Uiso   1.00
C891   C     0.19298   0.35702   0.77725   0.00000  Uiso   1.00
C892   C     0.14035   0.64298   0.72274   0.00000  Uiso   1.00
C893   C     0.14035   0.35766   0.72274   0.00000  Uiso   1.00
C894   C     0.19298   0.64234   0.77726   0.00000  Uiso   1.00
C895   C     0.16653   0.50002   0.66325   0.00000  Uiso   1.00
C896   C     0.16681   0.49998   0.83674   0.00000  Uiso   1.00
C897   C     0.16903   0.54122   0.90751   0.00000  Uiso   1.00
C898   C     0.16430   0.45878   0.59249   0.00000  Uiso   1.00
C899   C     0.16709   0.49995   0.88469   0.00000  Uiso   1.00
C900   C     0.24662   0.49972   0.74986   0.00000  Uiso   1.00
C901   C     0.16624   0.50005   0.61531   0.00000  Uiso   1.00
C902   C     0.16528   0.45869   0.90765   0.00000  Uiso   1.00
C903   C     0.16806   0.54131   0.59235   0.00000  Uiso   1.00
C904   C     0.16509   0.45840   0.95373   0.00000  Uiso   1.00
C905   C     0.16824   0.54160   0.54627   0.00000  Uiso   1.00
C906   C     0.16683   0.49999   0.97683   0.00000  Uiso   1.00
C907   C     0.16650   0.50001   0.52317   0.00000  Uiso   1.00
C908   C     0.16886   0.54155   0.95358   0.00000  Uiso   1.00
C909   C     0.16447   0.45845   0.54642   0.00000  Uiso   1.00
C910   C     0.16308   0.41727   0.97701   0.00000  Uiso   1.00
C911   C     0.16275   0.41730   0.52329   0.00000  Uiso   1.00
C912   C     0.17026   0.58273   0.52299   0.00000  Uiso   1.00
C913   C     0.04996   0.46813   0.65084   0.00000  Uiso   1.00
C914   C     0.28340   0.53188   0.84917   0.00000  Uiso   1.00
C915   C     0.29321   0.39587   0.70970   0.00000  Uiso   1.00
C916   C     0.04013   0.60414   0.79028   0.00000  Uiso   1.00
C917   C     0.17058   0.58270   0.97671   0.00000  Uiso   1.00
C918   C     0.02209   0.47143   0.72037   0.00000  Uiso   1.00
C919   C     0.31124   0.52857   0.77962   0.00000  Uiso   1.00
C920   C     0.31232   0.46896   0.72234   0.00000  Uiso   1.00
C921   C     0.02102   0.53105   0.77766   0.00000  Uiso   1.00
C922   C     0.29074   0.49901   0.75059   0.00000  Uiso   1.00
H923   H     0.17062   0.57310   0.88952   0.00000  Uiso   1.00
H924   H     0.11934   0.62500   0.70098   0.00000  Uiso   1.00
H925   H     0.11935   0.37614   0.70095   0.00000  Uiso   1.00
H926   H     0.21399   0.62386   0.79905   0.00000  Uiso   1.00
H927   H     0.06823   0.44645   0.62754   0.00000  Uiso   1.00
H928   H     0.06803   0.49974   0.65616   0.00000  Uiso   1.00
H929   H     0.01948   0.47618   0.63474   0.00000  Uiso   1.00
H930   H     0.26536   0.50025   0.84386   0.00000  Uiso   1.00
H931   H     0.31389   0.52388   0.86526   0.00000  Uiso   1.00
H932   H     0.26510   0.55355   0.87246   0.00000  Uiso   1.00
H933   H     0.32500   0.38115   0.70498   0.00000  Uiso   1.00
H934   H     0.16271   0.42690   0.61048   0.00000  Uiso   1.00
H935   H     0.28385   0.39351   0.74541   0.00000  Uiso   1.00
H936   H     0.27115   0.37482   0.69038   0.00000  Uiso   1.00
H937   H     0.04952   0.60648   0.75458   0.00000  Uiso   1.00
H938   H     0.06216   0.62519   0.80962   0.00000  Uiso   1.00
H939   H     0.00832   0.61884   0.79496   0.00000  Uiso   1.00
H940   H     0.16382   0.42681   0.88976   0.00000  Uiso   1.00
H941   H     0.16952   0.57319   0.61024   0.00000  Uiso   1.00
H942   H     0.16174   0.38521   0.95944   0.00000  Uiso   1.00
H943   H     0.17159   0.61479   0.54056   0.00000  Uiso   1.00
H944   H     0.16121   0.38525   0.54097   0.00000  Uiso   1.00
H945   H     0.17212   0.61475   0.95903   0.00000  Uiso   1.00
H946   H     0.21400   0.37500   0.79902   0.00000  Uiso   1.00
N947   N     0.16667   0.61907   0.75000   0.00000  Uiso   1.00
N948   N     0.16667   0.38093   0.75000   0.00000  Uiso   1.00
O949   O     0.10559   0.53821   0.74999   0.00000  Uiso   1.00
O950   O     0.28909   0.55595   0.80900   0.00000  Uiso   1.00
O951   O     0.29092   0.44084   0.69350   0.00000  Uiso   1.00
O952   O     0.04241   0.55917   0.80649   0.00000  Uiso   1.00
O953   O     0.22774   0.46179   0.75000   0.00000  Uiso   1.00
O954   O     0.22774   0.53821   0.75000   0.00000  Uiso   1.00
O955   O     0.10559   0.46179   0.74999   0.00000  Uiso   1.00
O956   O     0.16666   0.53823   0.68392   0.00000  Uiso   1.00
O957   O     0.16667   0.46177   0.81607   0.00000  Uiso   1.00
O958   O     0.16667   0.53823   0.81607   0.00000  Uiso   1.00
O959   O     0.16666   0.46177   0.68392   0.00000  Uiso   1.00
O960   O     0.04424   0.44405   0.69099   0.00000  Uiso   1.00
Zn961  Zn    0.16667   0.55104   0.75000   0.00000  Uiso   1.00
Zn962  Zn    0.16667   0.44896   0.75000   0.00000  Uiso   1.00
C963   C     0.42005   0.50028   0.75014   0.00000  Uiso   1.00
C964   C     0.37593   0.50099   0.74941   0.00000  Uiso   1.00
C965   C     0.52631   0.35702   0.77725   0.00000  Uiso   1.00
C966   C     0.47369   0.64298   0.72274   0.00000  Uiso   1.00
C967   C     0.47369   0.35766   0.72274   0.00000  Uiso   1.00
C968   C     0.52631   0.64234   0.77726   0.00000  Uiso   1.00
C969   C     0.49986   0.50002   0.66325   0.00000  Uiso   1.00
C970   C     0.50014   0.49998   0.83674   0.00000  Uiso   1.00
C971   C     0.50236   0.54122   0.90751   0.00000  Uiso   1.00
C972   C     0.49764   0.45878   0.59249   0.00000  Uiso   1.00
C973   C     0.50042   0.49995   0.88469   0.00000  Uiso   1.00
C974   C     0.57995   0.49972   0.74986   0.00000  Uiso   1.00
C975   C     0.49958   0.50005   0.61531   0.00000  Uiso   1.00
C976   C     0.49861   0.45869   0.90765   0.00000  Uiso   1.00
C977   C     0.50139   0.54131   0.59235   0.00000  Uiso   1.00
C978   C     0.49842   0.45840   0.95373   0.00000  Uiso   1.00
C979   C     0.50158   0.54160   0.54627   0.00000  Uiso   1.00
C980   C     0.50016   0.49999   0.97683   0.00000  Uiso   1.00
C981   C     0.49984   0.50001   0.52317   0.00000  Uiso   1.00
C982   C     0.50220   0.54155   0.95358   0.00000  Uiso   1.00
C983   C     0.49780   0.45845   0.54642   0.00000  Uiso   1.00
C984   C     0.49641   0.41727   0.97701   0.00000  Uiso   1.00
C985   C     0.49609   0.41730   0.52329   0.00000  Uiso   1.00
C986   C     0.50359   0.58273   0.52299   0.00000  Uiso   1.00
C987   C     0.38329   0.46813   0.65084   0.00000  Uiso   1.00
C988   C     0.61673   0.53188   0.84917   0.00000  Uiso   1.00
C989   C     0.62654   0.39587   0.70970   0.00000  Uiso   1.00
C990   C     0.37346   0.60414   0.79028   0.00000  Uiso   1.00
C991   C     0.50391   0.58270   0.97671   0.00000  Uiso   1.00
C992   C     0.35543   0.47143   0.72037   0.00000  Uiso   1.00
C993   C     0.64457   0.52857   0.77962   0.00000  Uiso   1.00
C994   C     0.64565   0.46896   0.72234   0.00000  Uiso   1.00
C995   C     0.35435   0.53105   0.77766   0.00000  Uiso   1.00
C996   C     0.62407   0.49901   0.75059   0.00000  Uiso   1.00
H997   H     0.50395   0.57310   0.88952   0.00000  Uiso   1.00
H998   H     0.45267   0.62500   0.70098   0.00000  Uiso   1.00
H999   H     0.45268   0.37614   0.70095   0.00000  Uiso   1.00
H1000  H     0.54732   0.62386   0.79905   0.00000  Uiso   1.00
H1001  H     0.40156   0.44645   0.62754   0.00000  Uiso   1.00
H1002  H     0.40136   0.49974   0.65616   0.00000  Uiso   1.00
H1003  H     0.35281   0.47618   0.63474   0.00000  Uiso   1.00
H1004  H     0.59870   0.50025   0.84386   0.00000  Uiso   1.00
H1005  H     0.64722   0.52388   0.86526   0.00000  Uiso   1.00
H1006  H     0.59844   0.55355   0.87246   0.00000  Uiso   1.00
H1007  H     0.65834   0.38115   0.70498   0.00000  Uiso   1.00
H1008  H     0.49605   0.42690   0.61048   0.00000  Uiso   1.00
H1009  H     0.61719   0.39351   0.74541   0.00000  Uiso   1.00
H1010  H     0.60449   0.37482   0.69038   0.00000  Uiso   1.00
H1011  H     0.38285   0.60648   0.75458   0.00000  Uiso   1.00
H1012  H     0.39549   0.62519   0.80962   0.00000  Uiso   1.00
H1013  H     0.34165   0.61884   0.79496   0.00000  Uiso   1.00
H1014  H     0.49715   0.42681   0.88976   0.00000  Uiso   1.00
H1015  H     0.50285   0.57319   0.61024   0.00000  Uiso   1.00
H1016  H     0.49508   0.38521   0.95944   0.00000  Uiso   1.00
H1017  H     0.50493   0.61479   0.54056   0.00000  Uiso   1.00
H1018  H     0.49454   0.38525   0.54097   0.00000  Uiso   1.00
H1019  H     0.50546   0.61475   0.95903   0.00000  Uiso   1.00
H1020  H     0.54733   0.37500   0.79902   0.00000  Uiso   1.00
N1021  N     0.50000   0.61907   0.75000   0.00000  Uiso   1.00
N1022  N     0.50000   0.38093   0.75000   0.00000  Uiso   1.00
O1023  O     0.43892   0.53821   0.74999   0.00000  Uiso   1.00
O1024  O     0.62242   0.55595   0.80900   0.00000  Uiso   1.00
O1025  O     0.62425   0.44084   0.69350   0.00000  Uiso   1.00
O1026  O     0.37574   0.55917   0.80649   0.00000  Uiso   1.00
O1027  O     0.56108   0.46179   0.75000   0.00000  Uiso   1.00
O1028  O     0.56108   0.53821   0.75000   0.00000  Uiso   1.00
O1029  O     0.43892   0.46179   0.74999   0.00000  Uiso   1.00
O1030  O     0.49999   0.53823   0.68392   0.00000  Uiso   1.00
O1031  O     0.50001   0.46177   0.81607   0.00000  Uiso   1.00
O1032  O     0.50001   0.53823   0.81607   0.00000  Uiso   1.00
O1033  O     0.49999   0.46177   0.68392   0.00000  Uiso   1.00
O1034  O     0.37757   0.44405   0.69099   0.00000  Uiso   1.00
Zn1035 Zn    0.50000   0.55104   0.75000   0.00000  Uiso   1.00
Zn1036 Zn    0.50000   0.44896   0.75000   0.00000  Uiso   1.00
C1037  C     0.75338   0.50028   0.75014   0.00000  Uiso   1.00
C1038  C     0.70926   0.50099   0.74941   0.00000  Uiso   1.00
C1039  C     0.85965   0.35702   0.77725   0.00000  Uiso   1.00
C1040  C     0.80702   0.64298   0.72274   0.00000  Uiso   1.00
C1041  C     0.80702   0.35766   0.72274   0.00000  Uiso   1.00
C1042  C     0.85965   0.64234   0.77726   0.00000  Uiso   1.00
C1043  C     0.83319   0.50002   0.66325   0.00000  Uiso   1.00
C1044  C     0.83347   0.49998   0.83674   0.00000  Uiso   1.00
C1045  C     0.83570   0.54122   0.90751   0.00000  Uiso   1.00
C1046  C     0.83097   0.45878   0.59249   0.00000  Uiso   1.00
C1047  C     0.83376   0.49995   0.88469   0.00000  Uiso   1.00
C1048  C     0.91329   0.49972   0.74986   0.00000  Uiso   1.00
C1049  C     0.83291   0.50005   0.61531   0.00000  Uiso   1.00
C1050  C     0.83194   0.45869   0.90765   0.00000  Uiso   1.00
C1051  C     0.83472   0.54131   0.59235   0.00000  Uiso   1.00
C1052  C     0.83176   0.45840   0.95373   0.00000  Uiso   1.00
C1053  C     0.83491   0.54160   0.54627   0.00000  Uiso   1.00
C1054  C     0.83350   0.49999   0.97683   0.00000  Uiso   1.00
C1055  C     0.83317   0.50001   0.52317   0.00000  Uiso   1.00
C1056  C     0.83553   0.54155   0.95358   0.00000  Uiso   1.00
C1057  C     0.83113   0.45845   0.54642   0.00000  Uiso   1.00
C1058  C     0.82975   0.41727   0.97701   0.00000  Uiso   1.00
C1059  C     0.82942   0.41730   0.52329   0.00000  Uiso   1.00
C1060  C     0.83692   0.58273   0.52299   0.00000  Uiso   1.00
C1061  C     0.71663   0.46813   0.65084   0.00000  Uiso   1.00
C1062  C     0.95006   0.53188   0.84917   0.00000  Uiso   1.00
C1063  C     0.95988   0.39587   0.70970   0.00000  Uiso   1.00
C1064  C     0.70679   0.60414   0.79028   0.00000  Uiso   1.00
C1065  C     0.83725   0.58270   0.97671   0.00000  Uiso   1.00
C1066  C     0.68876   0.47143   0.72037   0.00000  Uiso   1.00
C1067  C     0.97790   0.52857   0.77962   0.00000  Uiso   1.00
C1068  C     0.97898   0.46896   0.72234   0.00000  Uiso   1.00
C1069  C     0.68768   0.53105   0.77766   0.00000  Uiso   1.00
C1070  C     0.95741   0.49901   0.75059   0.00000  Uiso   1.00
H1071  H     0.83729   0.57310   0.88952   0.00000  Uiso   1.00
H1072  H     0.78601   0.62500   0.70098   0.00000  Uiso   1.00
H1073  H     0.78601   0.37614   0.70095   0.00000  Uiso   1.00
H1074  H     0.88065   0.62386   0.79905   0.00000  Uiso   1.00
H1075  H     0.73489   0.44645   0.62754   0.00000  Uiso   1.00
H1076  H     0.73469   0.49974   0.65616   0.00000  Uiso   1.00
H1077  H     0.68615   0.47618   0.63474   0.00000  Uiso   1.00
H1078  H     0.93203   0.50025   0.84386   0.00000  Uiso   1.00
H1079  H     0.98055   0.52388   0.86526   0.00000  Uiso   1.00
H1080  H     0.93177   0.55355   0.87246   0.00000  Uiso   1.00
H1081  H     0.99167   0.38115   0.70498   0.00000  Uiso   1.00
H1082  H     0.82938   0.42690   0.61048   0.00000  Uiso   1.00
H1083  H     0.95052   0.39351   0.74541   0.00000  Uiso   1.00
H1084  H     0.93782   0.37482   0.69038   0.00000  Uiso   1.00
H1085  H     0.71619   0.60648   0.75458   0.00000  Uiso   1.00
H1086  H     0.72882   0.62519   0.80962   0.00000  Uiso   1.00
H1087  H     0.67499   0.61884   0.79496   0.00000  Uiso   1.00
H1088  H     0.83049   0.42681   0.88976   0.00000  Uiso   1.00
H1089  H     0.83618   0.57319   0.61024   0.00000  Uiso   1.00
H1090  H     0.82841   0.38521   0.95944   0.00000  Uiso   1.00
H1091  H     0.83826   0.61479   0.54056   0.00000  Uiso   1.00
H1092  H     0.82788   0.38525   0.54097   0.00000  Uiso   1.00
H1093  H     0.83879   0.61475   0.95903   0.00000  Uiso   1.00
H1094  H     0.88066   0.37500   0.79902   0.00000  Uiso   1.00
N1095  N     0.83333   0.61907   0.75000   0.00000  Uiso   1.00
N1096  N     0.83333   0.38093   0.75000   0.00000  Uiso   1.00
O1097  O     0.77226   0.53821   0.74999   0.00000  Uiso   1.00
O1098  O     0.95576   0.55595   0.80900   0.00000  Uiso   1.00
O1099  O     0.95759   0.44084   0.69350   0.00000  Uiso   1.00
O1100  O     0.70908   0.55917   0.80649   0.00000  Uiso   1.00
O1101  O     0.89441   0.46179   0.75000   0.00000  Uiso   1.00
O1102  O     0.89441   0.53821   0.75000   0.00000  Uiso   1.00
O1103  O     0.77226   0.46179   0.74999   0.00000  Uiso   1.00
O1104  O     0.83333   0.53823   0.68392   0.00000  Uiso   1.00
O1105  O     0.83334   0.46177   0.81607   0.00000  Uiso   1.00
O1106  O     0.83334   0.53823   0.81607   0.00000  Uiso   1.00
O1107  O     0.83333   0.46177   0.68392   0.00000  Uiso   1.00
O1108  O     0.71091   0.44405   0.69099   0.00000  Uiso   1.00
Zn1109 Zn    0.83333   0.55104   0.75000   0.00000  Uiso   1.00
Zn1110 Zn    0.83333   0.44896   0.75000   0.00000  Uiso   1.00
C1111  C     0.08671   0.83361   0.75014   0.00000  Uiso   1.00
C1112  C     0.04259   0.83432   0.74941   0.00000  Uiso   1.00
C1113  C     0.19298   0.69035   0.77725   0.00000  Uiso   1.00
C1114  C     0.14035   0.97631   0.72274   0.00000  Uiso   1.00
C1115  C     0.14035   0.69099   0.72274   0.00000  Uiso   1.00
C1116  C     0.19298   0.97568   0.77726   0.00000  Uiso   1.00
C1117  C     0.16653   0.83336   0.66325   0.00000  Uiso   1.00
C1118  C     0.16681   0.83331   0.83674   0.00000  Uiso   1.00
C1119  C     0.16903   0.87455   0.90751   0.00000  Uiso   1.00
C1120  C     0.16430   0.79211   0.59249   0.00000  Uiso   1.00
C1121  C     0.16709   0.83329   0.88469   0.00000  Uiso   1.00
C1122  C     0.24662   0.83306   0.74986   0.00000  Uiso   1.00
C1123  C     0.16624   0.83338   0.61531   0.00000  Uiso   1.00
C1124  C     0.16528   0.79203   0.90765   0.00000  Uiso   1.00
C1125  C     0.16806   0.87464   0.59235   0.00000  Uiso   1.00
C1126  C     0.16509   0.79173   0.95373   0.00000  Uiso   1.00
C1127  C     0.16824   0.87494   0.54627   0.00000  Uiso   1.00
C1128  C     0.16683   0.83332   0.97683   0.00000  Uiso   1.00
C1129  C     0.16650   0.83335   0.52317   0.00000  Uiso   1.00
C1130  C     0.16886   0.87489   0.95358   0.00000  Uiso   1.00
C1131  C     0.16447   0.79178   0.54642   0.00000  Uiso   1.00
C1132  C     0.16308   0.75061   0.97701   0.00000  Uiso   1.00
C1133  C     0.16275   0.75063   0.52329   0.00000  Uiso   1.00
C1134  C     0.17026   0.91606   0.52299   0.00000  Uiso   1.00
C1135  C     0.04996   0.80146   0.65084   0.00000  Uiso   1.00
C1136  C     0.28340   0.86522   0.84917   0.00000  Uiso   1.00
C1137  C     0.29321   0.72920   0.70970   0.00000  Uiso   1.00
C1138  C     0.04013   0.93747   0.79028   0.00000  Uiso   1.00
C1139  C     0.17058   0.91604   0.97671   0.00000  Uiso   1.00
C1140  C     0.02209   0.80476   0.72037   0.00000  Uiso   1.00
C1141  C     0.31124   0.86191   0.77962   0.00000  Uiso   1.00
C1142  C     0.31232   0.80229   0.72234   0.00000  Uiso   1.00
C1143  C     0.02102   0.86438   0.77766   0.00000  Uiso   1.00
C1144  C     0.29074   0.83234   0.75059   0.00000  Uiso   1.00
H1145  H     0.17062   0.90643   0.88952   0.00000  Uiso   1.00
H1146  H     0.11934   0.95833   0.70098   0.00000  Uiso   1.00
H1147  H     0.11935   0.70948   0.70095   0.00000  Uiso   1.00
H1148  H     0.21399   0.95719   0.79905   0.00000  Uiso   1.00
H1149  H     0.06823   0.77978   0.62754   0.00000  Uiso   1.00
H1150  H     0.06803   0.83307   0.65616   0.00000  Uiso   1.00
H1151  H     0.01948   0.80951   0.63474   0.00000  Uiso   1.00
H1152  H     0.26536   0.83358   0.84386   0.00000  Uiso   1.00
H1153  H     0.31389   0.85721   0.86526   0.00000  Uiso   1.00
H1154  H     0.26510   0.88689   0.87246   0.00000  Uiso   1.00
H1155  H     0.32500   0.71448   0.70498   0.00000  Uiso   1.00
H1156  H     0.16271   0.76023   0.61048   0.00000  Uiso   1.00
H1157  H     0.28385   0.72685   0.74541   0.00000  Uiso   1.00
H1158  H     0.27115   0.70816   0.69038   0.00000  Uiso   1.00
H1159  H     0.04952   0.93981   0.75458   0.00000  Uiso   1.00
H1160  H     0.06216   0.95852   0.80962   0.00000  Uiso   1.00
H1161  H     0.00832   0.95218   0.79496   0.00000  Uiso   1.00
H1162  H     0.16382   0.76014   0.88976   0.00000  Uiso   1.00
H1163  H     0.16952   0.90653   0.61024   0.00000  Uiso   1.00
H1164  H     0.16174   0.71855   0.95944   0.00000  Uiso   1.00
H1165  H     0.17159   0.94812   0.54056   0.00000  Uiso   1.00
H1166  H     0.16121   0.71859   0.54097   0.00000  Uiso   1.00
H1167  H     0.17212   0.94808   0.95903   0.00000  Uiso   1.00
H1168  H     0.21400   0.70834   0.79902   0.00000  Uiso   1.00
N1169  N     0.16667   0.95240   0.75000   0.00000  Uiso   1.00
N1170  N     0.16667   0.71427   0.75000   0.00000  Uiso   1.00
O1171  O     0.10559   0.87154   0.74999   0.00000  Uiso   1.00
O1172  O     0.28909   0.88929   0.80900   0.00000  Uiso   1.00
O1173  O     0.29092   0.77417   0.69350   0.00000  Uiso   1.00
O1174  O     0.04241   0.89250   0.80649   0.00000  Uiso   1.00
O1175  O     0.22774   0.79513   0.75000   0.00000  Uiso   1.00
O1176  O     0.22774   0.87154   0.75000   0.00000  Uiso   1.00
O1177  O     0.10559   0.79513   0.74999   0.00000  Uiso   1.00
O1178  O     0.16666   0.87156   0.68392   0.00000  Uiso   1.00
O1179  O     0.16667   0.79511   0.81607   0.00000  Uiso   1.00
O1180  O     0.16667   0.87156   0.81607   0.00000  Uiso   1.00
O1181  O     0.16666   0.79511   0.68392   0.00000  Uiso   1.00
O1182  O     0.04424   0.77738   0.69099   0.00000  Uiso   1.00
Zn1183 Zn    0.16667   0.88437   0.75000   0.00000  Uiso   1.00
Zn1184 Zn    0.16667   0.78229   0.75000   0.00000  Uiso   1.00
C1185  C     0.42005   0.83361   0.75014   0.00000  Uiso   1.00
C1186  C     0.37593   0.83432   0.74941   0.00000  Uiso   1.00
C1187  C     0.52631   0.69035   0.77725   0.00000  Uiso   1.00
C1188  C     0.47369   0.97631   0.72274   0.00000  Uiso   1.00
C1189  C     0.47369   0.69099   0.72274   0.00000  Uiso   1.00
C1190  C     0.52631   0.97568   0.77726   0.00000  Uiso   1.00
C1191  C     0.49986   0.83336   0.66325   0.00000  Uiso   1.00
C1192  C     0.50014   0.83331   0.83674   0.00000  Uiso   1.00
C1193  C     0.50236   0.87455   0.90751   0.00000  Uiso   1.00
C1194  C     0.49764   0.79211   0.59249   0.00000  Uiso   1.00
C1195  C     0.50042   0.83329   0.88469   0.00000  Uiso   1.00
C1196  C     0.57995   0.83306   0.74986   0.00000  Uiso   1.00
C1197  C     0.49958   0.83338   0.61531   0.00000  Uiso   1.00
C1198  C     0.49861   0.79203   0.90765   0.00000  Uiso   1.00
C1199  C     0.50139   0.87464   0.59235   0.00000  Uiso   1.00
C1200  C     0.49842   0.79173   0.95373   0.00000  Uiso   1.00
C1201  C     0.50158   0.87494   0.54627   0.00000  Uiso   1.00
C1202  C     0.50016   0.83332   0.97683   0.00000  Uiso   1.00
C1203  C     0.49984   0.83335   0.52317   0.00000  Uiso   1.00
C1204  C     0.50220   0.87489   0.95358   0.00000  Uiso   1.00
C1205  C     0.49780   0.79178   0.54642   0.00000  Uiso   1.00
C1206  C     0.49641   0.75061   0.97701   0.00000  Uiso   1.00
C1207  C     0.49609   0.75063   0.52329   0.00000  Uiso   1.00
C1208  C     0.50359   0.91606   0.52299   0.00000  Uiso   1.00
C1209  C     0.38329   0.80146   0.65084   0.00000  Uiso   1.00
C1210  C     0.61673   0.86522   0.84917   0.00000  Uiso   1.00
C1211  C     0.62654   0.72920   0.70970   0.00000  Uiso   1.00
C1212  C     0.37346   0.93747   0.79028   0.00000  Uiso   1.00
C1213  C     0.50391   0.91604   0.97671   0.00000  Uiso   1.00
C1214  C     0.35543   0.80476   0.72037   0.00000  Uiso   1.00
C1215  C     0.64457   0.86191   0.77962   0.00000  Uiso   1.00
C1216  C     0.64565   0.80229   0.72234   0.00000  Uiso   1.00
C1217  C     0.35435   0.86438   0.77766   0.00000  Uiso   1.00
C1218  C     0.62407   0.83234   0.75059   0.00000  Uiso   1.00
H1219  H     0.50395   0.90643   0.88952   0.00000  Uiso   1.00
H1220  H     0.45267   0.95833   0.70098   0.00000  Uiso   1.00
H1221  H     0.45268   0.70948   0.70095   0.00000  Uiso   1.00
H1222  H     0.54732   0.95719   0.79905   0.00000  Uiso   1.00
H1223  H     0.40156   0.77978   0.62754   0.00000  Uiso   1.00
H1224  H     0.40136   0.83307   0.65616   0.00000  Uiso   1.00
H1225  H     0.35281   0.80951   0.63474   0.00000  Uiso   1.00
H1226  H     0.59870   0.83358   0.84386   0.00000  Uiso   1.00
H1227  H     0.64722   0.85721   0.86526   0.00000  Uiso   1.00
H1228  H     0.59844   0.88689   0.87246   0.00000  Uiso   1.00
H1229  H     0.65834   0.71448   0.70498   0.00000  Uiso   1.00
H1230  H     0.49605   0.76023   0.61048   0.00000  Uiso   1.00
H1231  H     0.61719   0.72685   0.74541   0.00000  Uiso   1.00
H1232  H     0.60449   0.70816   0.69038   0.00000  Uiso   1.00
H1233  H     0.38285   0.93981   0.75458   0.00000  Uiso   1.00
H1234  H     0.39549   0.95852   0.80962   0.00000  Uiso   1.00
H1235  H     0.34165   0.95218   0.79496   0.00000  Uiso   1.00
H1236  H     0.49715   0.76014   0.88976   0.00000  Uiso   1.00
H1237  H     0.50285   0.90653   0.61024   0.00000  Uiso   1.00
H1238  H     0.49508   0.71855   0.95944   0.00000  Uiso   1.00
H1239  H     0.50493   0.94812   0.54056   0.00000  Uiso   1.00
H1240  H     0.49454   0.71859   0.54097   0.00000  Uiso   1.00
H1241  H     0.50546   0.94808   0.95903   0.00000  Uiso   1.00
H1242  H     0.54733   0.70834   0.79902   0.00000  Uiso   1.00
N1243  N     0.50000   0.95240   0.75000   0.00000  Uiso   1.00
N1244  N     0.50000   0.71427   0.75000   0.00000  Uiso   1.00
O1245  O     0.43892   0.87154   0.74999   0.00000  Uiso   1.00
O1246  O     0.62242   0.88929   0.80900   0.00000  Uiso   1.00
O1247  O     0.62425   0.77417   0.69350   0.00000  Uiso   1.00
O1248  O     0.37574   0.89250   0.80649   0.00000  Uiso   1.00
O1249  O     0.56108   0.79513   0.75000   0.00000  Uiso   1.00
O1250  O     0.56108   0.87154   0.75000   0.00000  Uiso   1.00
O1251  O     0.43892   0.79513   0.74999   0.00000  Uiso   1.00
O1252  O     0.49999   0.87156   0.68392   0.00000  Uiso   1.00
O1253  O     0.50001   0.79511   0.81607   0.00000  Uiso   1.00
O1254  O     0.50001   0.87156   0.81607   0.00000  Uiso   1.00
O1255  O     0.49999   0.79511   0.68392   0.00000  Uiso   1.00
O1256  O     0.37757   0.77738   0.69099   0.00000  Uiso   1.00
Zn1257 Zn    0.50000   0.88437   0.75000   0.00000  Uiso   1.00
Zn1258 Zn    0.50000   0.78229   0.75000   0.00000  Uiso   1.00
C1259  C     0.75338   0.83361   0.75014   0.00000  Uiso   1.00
C1260  C     0.70926   0.83432   0.74941   0.00000  Uiso   1.00
C1261  C     0.85965   0.69035   0.77725   0.00000  Uiso   1.00
C1262  C     0.80702   0.97631   0.72274   0.00000  Uiso   1.00
C1263  C     0.80702   0.69099   0.72274   0.00000  Uiso   1.00
C1264  C     0.85965   0.97568   0.77726   0.00000  Uiso   1.00
C1265  C     0.83319   0.83336   0.66325   0.00000  Uiso   1.00
C1266  C     0.83347   0.83331   0.83674   0.00000  Uiso   1.00
C1267  C     0.83570   0.87455   0.90751   0.00000  Uiso   1.00
C1268  C     0.83097   0.79211   0.59249   0.00000  Uiso   1.00
C1269  C     0.83376   0.83329   0.88469   0.00000  Uiso   1.00
C1270  C     0.91329   0.83306   0.74986   0.00000  Uiso   1.00
C1271  C     0.83291   0.83338   0.61531   0.00000  Uiso   1.00
C1272  C     0.83194   0.79203   0.90765   0.00000  Uiso   1.00
C1273  C     0.83472   0.87464   0.59235   0.00000  Uiso   1.00
C1274  C     0.83176   0.79173   0.95373   0.00000  Uiso   1.00
C1275  C     0.83491   0.87494   0.54627   0.00000  Uiso   1.00
C1276  C     0.83350   0.83332   0.97683   0.00000  Uiso   1.00
C1277  C     0.83317   0.83335   0.52317   0.00000  Uiso   1.00
C1278  C     0.83553   0.87489   0.95358   0.00000  Uiso   1.00
C1279  C     0.83113   0.79178   0.54642   0.00000  Uiso   1.00
C1280  C     0.82975   0.75061   0.97701   0.00000  Uiso   1.00
C1281  C     0.82942   0.75063   0.52329   0.00000  Uiso   1.00
C1282  C     0.83692   0.91606   0.52299   0.00000  Uiso   1.00
C1283  C     0.71663   0.80146   0.65084   0.00000  Uiso   1.00
C1284  C     0.95006   0.86522   0.84917   0.00000  Uiso   1.00
C1285  C     0.95988   0.72920   0.70970   0.00000  Uiso   1.00
C1286  C     0.70679   0.93747   0.79028   0.00000  Uiso   1.00
C1287  C     0.83725   0.91604   0.97671   0.00000  Uiso   1.00
C1288  C     0.68876   0.80476   0.72037   0.00000  Uiso   1.00
C1289  C     0.97790   0.86191   0.77962   0.00000  Uiso   1.00
C1290  C     0.97898   0.80229   0.72234   0.00000  Uiso   1.00
C1291  C     0.68768   0.86438   0.77766   0.00000  Uiso   1.00
C1292  C     0.95741   0.83234   0.75059   0.00000  Uiso   1.00
H1293  H     0.83729   0.90643   0.88952   0.00000  Uiso   1.00
H1294  H     0.78601   0.95833   0.70098   0.00000  Uiso   1.00
H1295  H     0.78601   0.70948   0.70095   0.00000  Uiso   1.00
H1296  H     0.88065   0.95719   0.79905   0.00000  Uiso   1.00
H1297  H     0.73489   0.77978   0.62754   0.00000  Uiso   1.00
H1298  H     0.73469   0.83307   0.65616   0.00000  Uiso   1.00
H1299  H     0.68615   0.80951   0.63474   0.00000  Uiso   1.00
H1300  H     0.93203   0.83358   0.84386   0.00000  Uiso   1.00
H1301  H     0.98055   0.85721   0.86526   0.00000  Uiso   1.00
H1302  H     0.93177   0.88689   0.87246   0.00000  Uiso   1.00
H1303  H     0.99167   0.71448   0.70498   0.00000  Uiso   1.00
H1304  H     0.82938   0.76023   0.61048   0.00000  Uiso   1.00
H1305  H     0.95052   0.72685   0.74541   0.00000  Uiso   1.00
H1306  H     0.93782   0.70816   0.69038   0.00000  Uiso   1.00
H1307  H     0.71619   0.93981   0.75458   0.00000  Uiso   1.00
H1308  H     0.72882   0.95852   0.80962   0.00000  Uiso   1.00
H1309  H     0.67499   0.95218   0.79496   0.00000  Uiso   1.00
H1310  H     0.83049   0.76014   0.88976   0.00000  Uiso   1.00
H1311  H     0.83618   0.90653   0.61024   0.00000  Uiso   1.00
H1312  H     0.82841   0.71855   0.95944   0.00000  Uiso   1.00
H1313  H     0.83826   0.94812   0.54056   0.00000  Uiso   1.00
H1314  H     0.82788   0.71859   0.54097   0.00000  Uiso   1.00
H1315  H     0.83879   0.94808   0.95903   0.00000  Uiso   1.00
H1316  H     0.88066   0.70834   0.79902   0.00000  Uiso   1.00
N1317  N     0.83333   0.95240   0.75000   0.00000  Uiso   1.00
N1318  N     0.83333   0.71427   0.75000   0.00000  Uiso   1.00
O1319  O     0.77226   0.87154   0.74999   0.00000  Uiso   1.00
O1320  O     0.95576   0.88929   0.80900   0.00000  Uiso   1.00
O1321  O     0.95759   0.77417   0.69350   0.00000  Uiso   1.00
O1322  O     0.70908   0.89250   0.80649   0.00000  Uiso   1.00
O1323  O     0.89441   0.79513   0.75000   0.00000  Uiso   1.00
O1324  O     0.89441   0.87154   0.75000   0.00000  Uiso   1.00
O1325  O     0.77226   0.79513   0.74999   0.00000  Uiso   1.00
O1326  O     0.83333   0.87156   0.68392   0.00000  Uiso   1.00
O1327  O     0.83334   0.79511   0.81607   0.00000  Uiso   1.00
O1328  O     0.83334   0.87156   0.81607   0.00000  Uiso   1.00
O1329  O     0.83333   0.79511   0.68392   0.00000  Uiso   1.00
O1330  O     0.71091   0.77738   0.69099   0.00000  Uiso   1.00
Zn1331 Zn    0.83333   0.88437   0.75000   0.00000  Uiso   1.00
Zn1332 Zn    0.83333   0.78229   0.75000   0.00000  Uiso   1.00
loop_
_geom_bond_atom_site_label_1
_geom_bond_atom_site_label_2
_geom_bond_distance
_geom_bond_site_symmetry_2
_ccdc_geom_bond_type
C1     O67     1.280   .     A
C1     C2      1.412   .     S
C1     O61     1.276   .     A
C2     C30     1.402   .     A
C2     C33     1.403   .     A
C3     N60     1.366   .     A
C3     H58     1.082   .     S
C3     C450    1.415   1_545 S
C4     N59     1.366   .     A
C4     H36     1.082   .     S
C4     C227    1.415   .     S
C5     H37     1.082   .     S
C5     N60     1.366   .     A
C5     C448    1.415   1_545 S
C6     H38     1.082   .     S
C6     N59     1.366   .     A
C6     C225    1.415   .     S
C7     C13     1.439   .     S
C7     O68     1.286   .     A
C7     O71     1.286   .     A
C8     O70     1.286   .     A
C8     O69     1.286   .     A
C8     C11     1.439   .     S
C9     C20     1.383   .     A
C9     C11     1.399   .     A
C9     H35     1.085   .     S
C10    H46     1.085   .     S
C10    C21     1.383   .     A
C10    C13     1.399   .     A
C11    C14     1.398   .     A
C12    C34     1.412   .     S
C12    O65     1.276   .     A
C12    O66     1.280   .     A
C13    C15     1.398   .     A
C14    C16     1.383   .     A
C14    H52     1.084   .     S
C15    H53     1.084   .     S
C15    C17     1.383   .     A
C16    C18     1.411   .     A
C16    C22     1.400   .     A
C17    C19     1.411   .     A
C17    C24     1.400   .     A
C18    C20     1.411   .     A
C18    C685    1.391   .     S
C19    C21     1.411   .     A
C19    C684    1.391   1_554 S
C20    C29     1.400   .     A
C21    C23     1.400   .     A
C22    H54     1.084   .     S
C22    C689    1.389   .     S
C23    H56     1.084   .     S
C23    C688    1.389   1_554 S
C24    H55     1.084   .     S
C24    C695    1.389   1_554 S
C25    H40     1.113   .     S
C25    H39     1.109   .     S
C25    O72     1.410   .     S
C25    H41     1.113   .     S
C26    O62     1.410   .     S
C26    H44     1.109   .     S
C26    H42     1.113   .     S
C26    H43     1.113   .     S
C27    H48     1.109   .     S
C27    H47     1.114   .     S
C27    H45     1.111   .     S
C27    O63     1.412   .     S
C28    H49     1.114   .     S
C28    O64     1.412   .     S
C28    H51     1.111   .     S
C28    H50     1.109   .     S
C29    H57     1.084   .     S
C29    C690    1.389   .     S
C30    O72     1.385   .     S
C30    C180    1.383   1_455 S
C31    C34     1.402   .     A
C31    O62     1.385   .     S
C31    C107    1.383   .     S
C32    O63     1.386   .     S
C32    C34     1.402   .     A
C32    C104    1.383   .     S
C33    O64     1.386   .     S
C33    C179    1.383   1_455 S
N59    Zn73    2.005   .     S
N60    Zn74    2.005   .     S
O61    Zn73    1.994   .     S
O65    Zn74    1.994   .     S
O66    Zn73    1.987   .     S
O67    Zn74    1.987   .     S
O68    Zn73    2.019   .     S
O69    Zn74    2.019   .     S
O70    Zn73    2.018   .     S
O71    Zn74    2.018   .     S
C75    O141    1.280   .     A
C75    C76     1.412   .     S
C75    O135    1.276   .     A
C76    C104    1.402   .     A
C76    C107    1.403   .     A
C77    N134    1.366   .     A
C77    H132    1.082   .     S
C77    C524    1.415   1_545 S
C78    N133    1.366   .     A
C78    H110    1.082   .     S
C78    C301    1.415   .     S
C79    H111    1.082   .     S
C79    N134    1.366   .     A
C79    C522    1.415   1_545 S
C80    H112    1.082   .     S
C80    N133    1.366   .     A
C80    C299    1.415   .     S
C81    C87     1.439   .     S
C81    O142    1.286   .     A
C81    O145    1.286   .     A
C82    O144    1.286   .     A
C82    O143    1.286   .     A
C82    C85     1.439   .     S
C83    C94     1.383   .     A
C83    C85     1.399   .     A
C83    H109    1.085   .     S
C84    H120    1.085   .     S
C84    C95     1.383   .     A
C84    C87     1.399   .     A
C85    C88     1.398   .     A
C86    C108    1.412   .     S
C86    O139    1.276   .     A
C86    O140    1.280   .     A
C87    C89     1.398   .     A
C88    C90     1.383   .     A
C88    H126    1.084   .     S
C89    H127    1.084   .     S
C89    C91     1.383   .     A
C90    C92     1.411   .     A
C90    C96     1.400   .     A
C91    C93     1.411   .     A
C91    C98     1.400   .     A
C92    C94     1.411   .     A
C92    C759    1.391   .     S
C93    C95     1.411   .     A
C93    C758    1.391   1_554 S
C94    C103    1.400   .     A
C95    C97     1.400   .     A
C96    H128    1.084   .     S
C96    C763    1.389   .     S
C97    H130    1.084   .     S
C97    C762    1.389   1_554 S
C98    H129    1.084   .     S
C98    C769    1.389   1_554 S
C99    H114    1.113   .     S
C99    H113    1.109   .     S
C99    O146    1.410   .     S
C99    H115    1.113   .     S
C100   O136    1.410   .     S
C100   H118    1.109   .     S
C100   H116    1.113   .     S
C100   H117    1.113   .     S
C101   H122    1.109   .     S
C101   H121    1.114   .     S
C101   H119    1.111   .     S
C101   O137    1.412   .     S
C102   H123    1.114   .     S
C102   O138    1.412   .     S
C102   H125    1.111   .     S
C102   H124    1.109   .     S
C103   H131    1.084   .     S
C103   C764    1.389   .     S
C104   O146    1.385   .     S
C105   C108    1.402   .     A
C105   O136    1.385   .     S
C105   C181    1.383   .     S
C106   O137    1.386   .     S
C106   C108    1.402   .     A
C106   C178    1.383   .     S
C107   O138    1.386   .     S
N133   Zn147   2.005   .     S
N134   Zn148   2.005   .     S
O135   Zn147   1.994   .     S
O139   Zn148   1.994   .     S
O140   Zn147   1.987   .     S
O141   Zn148   1.987   .     S
O142   Zn147   2.019   .     S
O143   Zn148   2.019   .     S
O144   Zn147   2.018   .     S
O145   Zn148   2.018   .     S
C149   O215    1.280   .     A
C149   C150    1.412   .     S
C149   O209    1.276   .     A
C150   C178    1.402   .     A
C150   C181    1.403   .     A
C151   N208    1.366   .     A
C151   H206    1.082   .     S
C151   C598    1.415   1_545 S
C152   N207    1.366   .     A
C152   H184    1.082   .     S
C152   C375    1.415   .     S
C153   H185    1.082   .     S
C153   N208    1.366   .     A
C153   C596    1.415   1_545 S
C154   H186    1.082   .     S
C154   N207    1.366   .     A
C154   C373    1.415   .     S
C155   C161    1.439   .     S
C155   O216    1.286   .     A
C155   O219    1.286   .     A
C156   O218    1.286   .     A
C156   O217    1.286   .     A
C156   C159    1.439   .     S
C157   C168    1.383   .     A
C157   C159    1.399   .     A
C157   H183    1.085   .     S
C158   H194    1.085   .     S
C158   C169    1.383   .     A
C158   C161    1.399   .     A
C159   C162    1.398   .     A
C160   C182    1.412   .     S
C160   O213    1.276   .     A
C160   O214    1.280   .     A
C161   C163    1.398   .     A
C162   C164    1.383   .     A
C162   H200    1.084   .     S
C163   H201    1.084   .     S
C163   C165    1.383   .     A
C164   C166    1.411   .     A
C164   C170    1.400   .     A
C165   C167    1.411   .     A
C165   C172    1.400   .     A
C166   C168    1.411   .     A
C166   C833    1.391   .     S
C167   C169    1.411   .     A
C167   C832    1.391   1_554 S
C168   C177    1.400   .     A
C169   C171    1.400   .     A
C170   H202    1.084   .     S
C170   C837    1.389   .     S
C171   H204    1.084   .     S
C171   C836    1.389   1_554 S
C172   H203    1.084   .     S
C172   C843    1.389   1_554 S
C173   H188    1.113   .     S
C173   H187    1.109   .     S
C173   O220    1.410   .     S
C173   H189    1.113   .     S
C174   O210    1.410   .     S
C174   H192    1.109   .     S
C174   H190    1.113   .     S
C174   H191    1.113   .     S
C175   H196    1.109   .     S
C175   H195    1.114   .     S
C175   H193    1.111   .     S
C175   O211    1.412   .     S
C176   H197    1.114   .     S
C176   O212    1.412   .     S
C176   H199    1.111   .     S
C176   H198    1.109   .     S
C177   H205    1.084   .     S
C177   C838    1.389   .     S
C178   O220    1.385   .     S
C179   C182    1.402   .     A
C179   O210    1.385   .     S
C179   C33     1.383   1_655 S
C180   O211    1.386   .     S
C180   C182    1.402   .     A
C180   C30     1.383   1_655 S
C181   O212    1.386   .     S
N207   Zn221   2.005   .     S
N208   Zn222   2.005   .     S
O209   Zn221   1.994   .     S
O213   Zn222   1.994   .     S
O214   Zn221   1.987   .     S
O215   Zn222   1.987   .     S
O216   Zn221   2.019   .     S
O217   Zn222   2.019   .     S
O218   Zn221   2.018   .     S
O219   Zn222   2.018   .     S
C223   O289    1.280   .     A
C223   C224    1.412   .     S
C223   O283    1.276   .     A
C224   C252    1.402   .     A
C224   C255    1.403   .     A
C225   N282    1.366   .     A
C225   H280    1.082   .     S
C226   N281    1.366   .     A
C226   H258    1.082   .     S
C226   C449    1.415   .     S
C227   H259    1.082   .     S
C227   N282    1.366   .     A
C228   H260    1.082   .     S
C228   N281    1.366   .     A
C228   C447    1.415   .     S
C229   C235    1.439   .     S
C229   O290    1.286   .     A
C229   O293    1.286   .     A
C230   O292    1.286   .     A
C230   O291    1.286   .     A
C230   C233    1.439   .     S
C231   C242    1.383   .     A
C231   C233    1.399   .     A
C231   H257    1.085   .     S
C232   H268    1.085   .     S
C232   C243    1.383   .     A
C232   C235    1.399   .     A
C233   C236    1.398   .     A
C234   C256    1.412   .     S
C234   O287    1.276   .     A
C234   O288    1.280   .     A
C235   C237    1.398   .     A
C236   C238    1.383   .     A
C236   H274    1.084   .     S
C237   H275    1.084   .     S
C237   C239    1.383   .     A
C238   C240    1.411   .     A
C238   C244    1.400   .     A
C239   C241    1.411   .     A
C239   C246    1.400   .     A
C240   C242    1.411   .     A
C240   C907    1.391   .     S
C241   C243    1.411   .     A
C241   C906    1.391   1_554 S
C242   C251    1.400   .     A
C243   C245    1.400   .     A
C244   H276    1.084   .     S
C244   C911    1.389   .     S
C245   H278    1.084   .     S
C245   C910    1.389   1_554 S
C246   H277    1.084   .     S
C246   C917    1.389   1_554 S
C247   H262    1.113   .     S
C247   H261    1.109   .     S
C247   O294    1.410   .     S
C247   H263    1.113   .     S
C248   O284    1.410   .     S
C248   H266    1.109   .     S
C248   H264    1.113   .     S
C248   H265    1.113   .     S
C249   H270    1.109   .     S
C249   H269    1.114   .     S
C249   H267    1.111   .     S
C249   O285    1.412   .     S
C250   H271    1.114   .     S
C250   O286    1.412   .     S
C250   H273    1.111   .     S
C250   H272    1.109   .     S
C251   H279    1.084   .     S
C251   C912    1.389   .     S
C252   O294    1.385   .     S
C252   C402    1.383   1_455 S
C253   C256    1.402   .     A
C253   O284    1.385   .     S
C253   C329    1.383   .     S
C254   O285    1.386   .     S
C254   C256    1.402   .     A
C254   C326    1.383   .     S
C255   O286    1.386   .     S
C255   C401    1.383   1_455 S
N281   Zn295   2.005   .     S
N282   Zn296   2.005   .     S
O283   Zn295   1.994   .     S
O287   Zn296   1.994   .     S
O288   Zn295   1.987   .     S
O289   Zn296   1.987   .     S
O290   Zn295   2.019   .     S
O291   Zn296   2.019   .     S
O292   Zn295   2.018   .     S
O293   Zn296   2.018   .     S
C297   O363    1.280   .     A
C297   C298    1.412   .     S
C297   O357    1.276   .     A
C298   C326    1.402   .     A
C298   C329    1.403   .     A
C299   N356    1.366   .     A
C299   H354    1.082   .     S
C300   N355    1.366   .     A
C300   H332    1.082   .     S
C300   C523    1.415   .     S
C301   H333    1.082   .     S
C301   N356    1.366   .     A
C302   H334    1.082   .     S
C302   N355    1.366   .     A
C302   C521    1.415   .     S
C303   C309    1.439   .     S
C303   O364    1.286   .     A
C303   O367    1.286   .     A
C304   O366    1.286   .     A
C304   O365    1.286   .     A
C304   C307    1.439   .     S
C305   C316    1.383   .     A
C305   C307    1.399   .     A
C305   H331    1.085   .     S
C306   H342    1.085   .     S
C306   C317    1.383   .     A
C306   C309    1.399   .     A
C307   C310    1.398   .     A
C308   C330    1.412   .     S
C308   O361    1.276   .     A
C308   O362    1.280   .     A
C309   C311    1.398   .     A
C310   C312    1.383   .     A
C310   H348    1.084   .     S
C311   H349    1.084   .     S
C311   C313    1.383   .     A
C312   C314    1.411   .     A
C312   C318    1.400   .     A
C313   C315    1.411   .     A
C313   C320    1.400   .     A
C314   C316    1.411   .     A
C314   C981    1.391   .     S
C315   C317    1.411   .     A
C315   C980    1.391   1_554 S
C316   C325    1.400   .     A
C317   C319    1.400   .     A
C318   H350    1.084   .     S
C318   C985    1.389   .     S
C319   H352    1.084   .     S
C319   C984    1.389   1_554 S
C320   H351    1.084   .     S
C320   C991    1.389   1_554 S
C321   H336    1.113   .     S
C321   H335    1.109   .     S
C321   O368    1.410   .     S
C321   H337    1.113   .     S
C322   O358    1.410   .     S
C322   H340    1.109   .     S
C322   H338    1.113   .     S
C322   H339    1.113   .     S
C323   H344    1.109   .     S
C323   H343    1.114   .     S
C323   H341    1.111   .     S
C323   O359    1.412   .     S
C324   H345    1.114   .     S
C324   O360    1.412   .     S
C324   H347    1.111   .     S
C324   H346    1.109   .     S
C325   H353    1.084   .     S
C325   C986    1.389   .     S
C326   O368    1.385   .     S
C327   C330    1.402   .     A
C327   O358    1.385   .     S
C327   C403    1.383   .     S
C328   O359    1.386   .     S
C328   C330    1.402   .     A
C328   C400    1.383   .     S
C329   O360    1.386   .     S
N355   Zn369   2.005   .     S
N356   Zn370   2.005   .     S
O357   Zn369   1.994   .     S
O361   Zn370   1.994   .     S
O362   Zn369   1.987   .     S
O363   Zn370   1.987   .     S
O364   Zn369   2.019   .     S
O365   Zn370   2.019   .     S
O366   Zn369   2.018   .     S
O367   Zn370   2.018   .     S
C371   O437    1.280   .     A
C371   C372    1.412   .     S
C371   O431    1.276   .     A
C372   C400    1.402   .     A
C372   C403    1.403   .     A
C373   N430    1.366   .     A
C373   H428    1.082   .     S
C374   N429    1.366   .     A
C374   H406    1.082   .     S
C374   C597    1.415   .     S
C375   H407    1.082   .     S
C375   N430    1.366   .     A
C376   H408    1.082   .     S
C376   N429    1.366   .     A
C376   C595    1.415   .     S
C377   C383    1.439   .     S
C377   O438    1.286   .     A
C377   O441    1.286   .     A
C378   O440    1.286   .     A
C378   O439    1.286   .     A
C378   C381    1.439   .     S
C379   C390    1.383   .     A
C379   C381    1.399   .     A
C379   H405    1.085   .     S
C380   H416    1.085   .     S
C380   C391    1.383   .     A
C380   C383    1.399   .     A
C381   C384    1.398   .     A
C382   C404    1.412   .     S
C382   O435    1.276   .     A
C382   O436    1.280   .     A
C383   C385    1.398   .     A
C384   C386    1.383   .     A
C384   H422    1.084   .     S
C385   H423    1.084   .     S
C385   C387    1.383   .     A
C386   C388    1.411   .     A
C386   C392    1.400   .     A
C387   C389    1.411   .     A
C387   C394    1.400   .     A
C388   C390    1.411   .     A
C388   C1055   1.391   .     S
C389   C391    1.411   .     A
C389   C1054   1.391   1_554 S
C390   C399    1.400   .     A
C391   C393    1.400   .     A
C392   H424    1.084   .     S
C392   C1059   1.389   .     S
C393   H426    1.084   .     S
C393   C1058   1.389   1_554 S
C394   H425    1.084   .     S
C394   C1065   1.389   1_554 S
C395   H410    1.113   .     S
C395   H409    1.109   .     S
C395   O442    1.410   .     S
C395   H411    1.113   .     S
C396   O432    1.410   .     S
C396   H414    1.109   .     S
C396   H412    1.113   .     S
C396   H413    1.113   .     S
C397   H418    1.109   .     S
C397   H417    1.114   .     S
C397   H415    1.111   .     S
C397   O433    1.412   .     S
C398   H419    1.114   .     S
C398   O434    1.412   .     S
C398   H421    1.111   .     S
C398   H420    1.109   .     S
C399   H427    1.084   .     S
C399   C1060   1.389   .     S
C400   O442    1.385   .     S
C401   C404    1.402   .     A
C401   O432    1.385   .     S
C401   C255    1.383   1_655 S
C402   O433    1.386   .     S
C402   C404    1.402   .     A
C402   C252    1.383   1_655 S
C403   O434    1.386   .     S
N429   Zn443   2.005   .     S
N430   Zn444   2.005   .     S
O431   Zn443   1.994   .     S
O435   Zn444   1.994   .     S
O436   Zn443   1.987   .     S
O437   Zn444   1.987   .     S
O438   Zn443   2.019   .     S
O439   Zn444   2.019   .     S
O440   Zn443   2.018   .     S
O441   Zn444   2.018   .     S
C445   O511    1.280   .     A
C445   C446    1.412   .     S
C445   O505    1.276   .     A
C446   C474    1.402   .     A
C446   C477    1.403   .     A
C447   N504    1.366   .     A
C447   H502    1.082   .     S
C448   N503    1.366   .     A
C448   H480    1.082   .     S
C448   C5      1.415   1_565 S
C449   H481    1.082   .     S
C449   N504    1.366   .     A
C450   H482    1.082   .     S
C450   N503    1.366   .     A
C450   C3      1.415   1_565 S
C451   C457    1.439   .     S
C451   O512    1.286   .     A
C451   O515    1.286   .     A
C452   O514    1.286   .     A
C452   O513    1.286   .     A
C452   C455    1.439   .     S
C453   C464    1.383   .     A
C453   C455    1.399   .     A
C453   H479    1.085   .     S
C454   H490    1.085   .     S
C454   C465    1.383   .     A
C454   C457    1.399   .     A
C455   C458    1.398   .     A
C456   C478    1.412   .     S
C456   O509    1.276   .     A
C456   O510    1.280   .     A
C457   C459    1.398   .     A
C458   C460    1.383   .     A
C458   H496    1.084   .     S
C459   H497    1.084   .     S
C459   C461    1.383   .     A
C460   C462    1.411   .     A
C460   C466    1.400   .     A
C461   C463    1.411   .     A
C461   C468    1.400   .     A
C462   C464    1.411   .     A
C462   C1129   1.391   .     S
C463   C465    1.411   .     A
C463   C1128   1.391   1_554 S
C464   C473    1.400   .     A
C465   C467    1.400   .     A
C466   H498    1.084   .     S
C466   C1133   1.389   .     S
C467   H500    1.084   .     S
C467   C1132   1.389   1_554 S
C468   H499    1.084   .     S
C468   C1139   1.389   1_554 S
C469   H484    1.113   .     S
C469   H483    1.109   .     S
C469   O516    1.410   .     S
C469   H485    1.113   .     S
C470   O506    1.410   .     S
C470   H488    1.109   .     S
C470   H486    1.113   .     S
C470   H487    1.113   .     S
C471   H492    1.109   .     S
C471   H491    1.114   .     S
C471   H489    1.111   .     S
C471   O507    1.412   .     S
C472   H493    1.114   .     S
C472   O508    1.412   .     S
C472   H495    1.111   .     S
C472   H494    1.109   .     S
C473   H501    1.084   .     S
C473   C1134   1.389   .     S
C474   O516    1.385   .     S
C474   C624    1.383   1_455 S
C475   C478    1.402   .     A
C475   O506    1.385   .     S
C475   C551    1.383   .     S
C476   O507    1.386   .     S
C476   C478    1.402   .     A
C476   C548    1.383   .     S
C477   O508    1.386   .     S
C477   C623    1.383   1_455 S
N503   Zn517   2.005   .     S
N504   Zn518   2.005   .     S
O505   Zn517   1.994   .     S
O509   Zn518   1.994   .     S
O510   Zn517   1.987   .     S
O511   Zn518   1.987   .     S
O512   Zn517   2.019   .     S
O513   Zn518   2.019   .     S
O514   Zn517   2.018   .     S
O515   Zn518   2.018   .     S
C519   O585    1.280   .     A
C519   C520    1.412   .     S
C519   O579    1.276   .     A
C520   C548    1.402   .     A
C520   C551    1.403   .     A
C521   N578    1.366   .     A
C521   H576    1.082   .     S
C522   N577    1.366   .     A
C522   H554    1.082   .     S
C522   C79     1.415   1_565 S
C523   H555    1.082   .     S
C523   N578    1.366   .     A
C524   H556    1.082   .     S
C524   N577    1.366   .     A
C524   C77     1.415   1_565 S
C525   C531    1.439   .     S
C525   O586    1.286   .     A
C525   O589    1.286   .     A
C526   O588    1.286   .     A
C526   O587    1.286   .     A
C526   C529    1.439   .     S
C527   C538    1.383   .     A
C527   C529    1.399   .     A
C527   H553    1.085   .     S
C528   H564    1.085   .     S
C528   C539    1.383   .     A
C528   C531    1.399   .     A
C529   C532    1.398   .     A
C530   C552    1.412   .     S
C530   O583    1.276   .     A
C530   O584    1.280   .     A
C531   C533    1.398   .     A
C532   C534    1.383   .     A
C532   H570    1.084   .     S
C533   H571    1.084   .     S
C533   C535    1.383   .     A
C534   C536    1.411   .     A
C534   C540    1.400   .     A
C535   C537    1.411   .     A
C535   C542    1.400   .     A
C536   C538    1.411   .     A
C536   C1203   1.391   .     S
C537   C539    1.411   .     A
C537   C1202   1.391   1_554 S
C538   C547    1.400   .     A
C539   C541    1.400   .     A
C540   H572    1.084   .     S
C540   C1207   1.389   .     S
C541   H574    1.084   .     S
C541   C1206   1.389   1_554 S
C542   H573    1.084   .     S
C542   C1213   1.389   1_554 S
C543   H558    1.113   .     S
C543   H557    1.109   .     S
C543   O590    1.410   .     S
C543   H559    1.113   .     S
C544   O580    1.410   .     S
C544   H562    1.109   .     S
C544   H560    1.113   .     S
C544   H561    1.113   .     S
C545   H566    1.109   .     S
C545   H565    1.114   .     S
C545   H563    1.111   .     S
C545   O581    1.412   .     S
C546   H567    1.114   .     S
C546   O582    1.412   .     S
C546   H569    1.111   .     S
C546   H568    1.109   .     S
C547   H575    1.084   .     S
C547   C1208   1.389   .     S
C548   O590    1.385   .     S
C549   C552    1.402   .     A
C549   O580    1.385   .     S
C549   C625    1.383   .     S
C550   O581    1.386   .     S
C550   C552    1.402   .     A
C550   C622    1.383   .     S
C551   O582    1.386   .     S
N577   Zn591   2.005   .     S
N578   Zn592   2.005   .     S
O579   Zn591   1.994   .     S
O583   Zn592   1.994   .     S
O584   Zn591   1.987   .     S
O585   Zn592   1.987   .     S
O586   Zn591   2.019   .     S
O587   Zn592   2.019   .     S
O588   Zn591   2.018   .     S
O589   Zn592   2.018   .     S
C593   O659    1.280   .     A
C593   C594    1.412   .     S
C593   O653    1.276   .     A
C594   C622    1.402   .     A
C594   C625    1.403   .     A
C595   N652    1.366   .     A
C595   H650    1.082   .     S
C596   N651    1.366   .     A
C596   H628    1.082   .     S
C596   C153    1.415   1_565 S
C597   H629    1.082   .     S
C597   N652    1.366   .     A
C598   H630    1.082   .     S
C598   N651    1.366   .     A
C598   C151    1.415   1_565 S
C599   C605    1.439   .     S
C599   O660    1.286   .     A
C599   O663    1.286   .     A
C600   O662    1.286   .     A
C600   O661    1.286   .     A
C600   C603    1.439   .     S
C601   C612    1.383   .     A
C601   C603    1.399   .     A
C601   H627    1.085   .     S
C602   H638    1.085   .     S
C602   C613    1.383   .     A
C602   C605    1.399   .     A
C603   C606    1.398   .     A
C604   C626    1.412   .     S
C604   O657    1.276   .     A
C604   O658    1.280   .     A
C605   C607    1.398   .     A
C606   C608    1.383   .     A
C606   H644    1.084   .     S
C607   H645    1.084   .     S
C607   C609    1.383   .     A
C608   C610    1.411   .     A
C608   C614    1.400   .     A
C609   C611    1.411   .     A
C609   C616    1.400   .     A
C610   C612    1.411   .     A
C610   C1277   1.391   .     S
C611   C613    1.411   .     A
C611   C1276   1.391   1_554 S
C612   C621    1.400   .     A
C613   C615    1.400   .     A
C614   H646    1.084   .     S
C614   C1281   1.389   .     S
C615   H648    1.084   .     S
C615   C1280   1.389   1_554 S
C616   H647    1.084   .     S
C616   C1287   1.389   1_554 S
C617   H632    1.113   .     S
C617   H631    1.109   .     S
C617   O664    1.410   .     S
C617   H633    1.113   .     S
C618   O654    1.410   .     S
C618   H636    1.109   .     S
C618   H634    1.113   .     S
C618   H635    1.113   .     S
C619   H640    1.109   .     S
C619   H639    1.114   .     S
C619   H637    1.111   .     S
C619   O655    1.412   .     S
C620   H641    1.114   .     S
C620   O656    1.412   .     S
C620   H643    1.111   .     S
C620   H642    1.109   .     S
C621   H649    1.084   .     S
C621   C1282   1.389   .     S
C622   O664    1.385   .     S
C623   C626    1.402   .     A
C623   O654    1.385   .     S
C623   C477    1.383   1_655 S
C624   O655    1.386   .     S
C624   C626    1.402   .     A
C624   C474    1.383   1_655 S
C625   O656    1.386   .     S
N651   Zn665   2.005   .     S
N652   Zn666   2.005   .     S
O653   Zn665   1.994   .     S
O657   Zn666   1.994   .     S
O658   Zn665   1.987   .     S
O659   Zn666   1.987   .     S
O660   Zn665   2.019   .     S
O661   Zn666   2.019   .     S
O662   Zn665   2.018   .     S
O663   Zn666   2.018   .     S
C667   O733    1.280   .     A
C667   C668    1.412   .     S
C667   O727    1.276   .     A
C668   C696    1.402   .     A
C668   C699    1.403   .     A
C669   N726    1.366   .     A
C669   H724    1.082   .     S
C669   C1116   1.415   1_545 S
C670   N725    1.366   .     A
C670   H702    1.082   .     S
C670   C893    1.415   .     S
C671   H703    1.082   .     S
C671   N726    1.366   .     A
C671   C1114   1.415   1_545 S
C672   H704    1.082   .     S
C672   N725    1.366   .     A
C672   C891    1.415   .     S
C673   C679    1.439   .     S
C673   O734    1.286   .     A
C673   O737    1.286   .     A
C674   O736    1.286   .     A
C674   O735    1.286   .     A
C674   C677    1.439   .     S
C675   C686    1.383   .     A
C675   C677    1.399   .     A
C675   H701    1.085   .     S
C676   H712    1.085   .     S
C676   C687    1.383   .     A
C676   C679    1.399   .     A
C677   C680    1.398   .     A
C678   C700    1.412   .     S
C678   O731    1.276   .     A
C678   O732    1.280   .     A
C679   C681    1.398   .     A
C680   C682    1.383   .     A
C680   H718    1.084   .     S
C681   H719    1.084   .     S
C681   C683    1.383   .     A
C682   C684    1.411   .     A
C682   C688    1.400   .     A
C683   C685    1.411   .     A
C683   C690    1.400   .     A
C684   C686    1.411   .     A
C684   C19     1.391   1_556 S
C685   C687    1.411   .     A
C686   C695    1.400   .     A
C687   C689    1.400   .     A
C688   H720    1.084   .     S
C688   C23     1.389   1_556 S
C689   H722    1.084   .     S
C690   H721    1.084   .     S
C691   H706    1.113   .     S
C691   H705    1.109   .     S
C691   O738    1.410   .     S
C691   H707    1.113   .     S
C692   O728    1.410   .     S
C692   H710    1.109   .     S
C692   H708    1.113   .     S
C692   H709    1.113   .     S
C693   H714    1.109   .     S
C693   H713    1.114   .     S
C693   H711    1.111   .     S
C693   O729    1.412   .     S
C694   H715    1.114   .     S
C694   O730    1.412   .     S
C694   H717    1.111   .     S
C694   H716    1.109   .     S
C695   H723    1.084   .     S
C695   C24     1.389   1_556 S
C696   O738    1.385   .     S
C696   C846    1.383   1_455 S
C697   C700    1.402   .     A
C697   O728    1.385   .     S
C697   C773    1.383   .     S
C698   O729    1.386   .     S
C698   C700    1.402   .     A
C698   C770    1.383   .     S
C699   O730    1.386   .     S
C699   C845    1.383   1_455 S
N725   Zn739   2.005   .     S
N726   Zn740   2.005   .     S
O727   Zn739   1.994   .     S
O731   Zn740   1.994   .     S
O732   Zn739   1.987   .     S
O733   Zn740   1.987   .     S
O734   Zn739   2.019   .     S
O735   Zn740   2.019   .     S
O736   Zn739   2.018   .     S
O737   Zn740   2.018   .     S
C741   O807    1.280   .     A
C741   C742    1.412   .     S
C741   O801    1.276   .     A
C742   C770    1.402   .     A
C742   C773    1.403   .     A
C743   N800    1.366   .     A
C743   H798    1.082   .     S
C743   C1190   1.415   1_545 S
C744   N799    1.366   .     A
C744   H776    1.082   .     S
C744   C967    1.415   .     S
C745   H777    1.082   .     S
C745   N800    1.366   .     A
C745   C1188   1.415   1_545 S
C746   H778    1.082   .     S
C746   N799    1.366   .     A
C746   C965    1.415   .     S
C747   C753    1.439   .     S
C747   O808    1.286   .     A
C747   O811    1.286   .     A
C748   O810    1.286   .     A
C748   O809    1.286   .     A
C748   C751    1.439   .     S
C749   C760    1.383   .     A
C749   C751    1.399   .     A
C749   H775    1.085   .     S
C750   H786    1.085   .     S
C750   C761    1.383   .     A
C750   C753    1.399   .     A
C751   C754    1.398   .     A
C752   C774    1.412   .     S
C752   O805    1.276   .     A
C752   O806    1.280   .     A
C753   C755    1.398   .     A
C754   C756    1.383   .     A
C754   H792    1.084   .     S
C755   H793    1.084   .     S
C755   C757    1.383   .     A
C756   C758    1.411   .     A
C756   C762    1.400   .     A
C757   C759    1.411   .     A
C757   C764    1.400   .     A
C758   C760    1.411   .     A
C758   C93     1.391   1_556 S
C759   C761    1.411   .     A
C760   C769    1.400   .     A
C761   C763    1.400   .     A
C762   H794    1.084   .     S
C762   C97     1.389   1_556 S
C763   H796    1.084   .     S
C764   H795    1.084   .     S
C765   H780    1.113   .     S
C765   H779    1.109   .     S
C765   O812    1.410   .     S
C765   H781    1.113   .     S
C766   O802    1.410   .     S
C766   H784    1.109   .     S
C766   H782    1.113   .     S
C766   H783    1.113   .     S
C767   H788    1.109   .     S
C767   H787    1.114   .     S
C767   H785    1.111   .     S
C767   O803    1.412   .     S
C768   H789    1.114   .     S
C768   O804    1.412   .     S
C768   H791    1.111   .     S
C768   H790    1.109   .     S
C769   H797    1.084   .     S
C769   C98     1.389   1_556 S
C770   O812    1.385   .     S
C771   C774    1.402   .     A
C771   O802    1.385   .     S
C771   C847    1.383   .     S
C772   O803    1.386   .     S
C772   C774    1.402   .     A
C772   C844    1.383   .     S
C773   O804    1.386   .     S
N799   Zn813   2.005   .     S
N800   Zn814   2.005   .     S
O801   Zn813   1.994   .     S
O805   Zn814   1.994   .     S
O806   Zn813   1.987   .     S
O807   Zn814   1.987   .     S
O808   Zn813   2.019   .     S
O809   Zn814   2.019   .     S
O810   Zn813   2.018   .     S
O811   Zn814   2.018   .     S
C815   O881    1.280   .     A
C815   C816    1.412   .     S
C815   O875    1.276   .     A
C816   C844    1.402   .     A
C816   C847    1.403   .     A
C817   N874    1.366   .     A
C817   H872    1.082   .     S
C817   C1264   1.415   1_545 S
C818   N873    1.366   .     A
C818   H850    1.082   .     S
C818   C1041   1.415   .     S
C819   H851    1.082   .     S
C819   N874    1.366   .     A
C819   C1262   1.415   1_545 S
C820   H852    1.082   .     S
C820   N873    1.366   .     A
C820   C1039   1.415   .     S
C821   C827    1.439   .     S
C821   O882    1.286   .     A
C821   O885    1.286   .     A
C822   O884    1.286   .     A
C822   O883    1.286   .     A
C822   C825    1.439   .     S
C823   C834    1.383   .     A
C823   C825    1.399   .     A
C823   H849    1.085   .     S
C824   H860    1.085   .     S
C824   C835    1.383   .     A
C824   C827    1.399   .     A
C825   C828    1.398   .     A
C826   C848    1.412   .     S
C826   O879    1.276   .     A
C826   O880    1.280   .     A
C827   C829    1.398   .     A
C828   C830    1.383   .     A
C828   H866    1.084   .     S
C829   H867    1.084   .     S
C829   C831    1.383   .     A
C830   C832    1.411   .     A
C830   C836    1.400   .     A
C831   C833    1.411   .     A
C831   C838    1.400   .     A
C832   C834    1.411   .     A
C832   C167    1.391   1_556 S
C833   C835    1.411   .     A
C834   C843    1.400   .     A
C835   C837    1.400   .     A
C836   H868    1.084   .     S
C836   C171    1.389   1_556 S
C837   H870    1.084   .     S
C838   H869    1.084   .     S
C839   H854    1.113   .     S
C839   H853    1.109   .     S
C839   O886    1.410   .     S
C839   H855    1.113   .     S
C840   O876    1.410   .     S
C840   H858    1.109   .     S
C840   H856    1.113   .     S
C840   H857    1.113   .     S
C841   H862    1.109   .     S
C841   H861    1.114   .     S
C841   H859    1.111   .     S
C841   O877    1.412   .     S
C842   H863    1.114   .     S
C842   O878    1.412   .     S
C842   H865    1.111   .     S
C842   H864    1.109   .     S
C843   H871    1.084   .     S
C843   C172    1.389   1_556 S
C844   O886    1.385   .     S
C845   C848    1.402   .     A
C845   O876    1.385   .     S
C845   C699    1.383   1_655 S
C846   O877    1.386   .     S
C846   C848    1.402   .     A
C846   C696    1.383   1_655 S
C847   O878    1.386   .     S
N873   Zn887   2.005   .     S
N874   Zn888   2.005   .     S
O875   Zn887   1.994   .     S
O879   Zn888   1.994   .     S
O880   Zn887   1.987   .     S
O881   Zn888   1.987   .     S
O882   Zn887   2.019   .     S
O883   Zn888   2.019   .     S
O884   Zn887   2.018   .     S
O885   Zn888   2.018   .     S
C889   O955    1.280   .     A
C889   C890    1.412   .     S
C889   O949    1.276   .     A
C890   C918    1.402   .     A
C890   C921    1.403   .     A
C891   N948    1.366   .     A
C891   H946    1.082   .     S
C892   N947    1.366   .     A
C892   H924    1.082   .     S
C892   C1115   1.415   .     S
C893   H925    1.082   .     S
C893   N948    1.366   .     A
C894   H926    1.082   .     S
C894   N947    1.366   .     A
C894   C1113   1.415   .     S
C895   C901    1.439   .     S
C895   O956    1.286   .     A
C895   O959    1.286   .     A
C896   O958    1.286   .     A
C896   O957    1.286   .     A
C896   C899    1.439   .     S
C897   C908    1.383   .     A
C897   C899    1.399   .     A
C897   H923    1.085   .     S
C898   H934    1.085   .     S
C898   C909    1.383   .     A
C898   C901    1.399   .     A
C899   C902    1.398   .     A
C900   C922    1.412   .     S
C900   O953    1.276   .     A
C900   O954    1.280   .     A
C901   C903    1.398   .     A
C902   C904    1.383   .     A
C902   H940    1.084   .     S
C903   H941    1.084   .     S
C903   C905    1.383   .     A
C904   C906    1.411   .     A
C904   C910    1.400   .     A
C905   C907    1.411   .     A
C905   C912    1.400   .     A
C906   C908    1.411   .     A
C906   C241    1.391   1_556 S
C907   C909    1.411   .     A
C908   C917    1.400   .     A
C909   C911    1.400   .     A
C910   H942    1.084   .     S
C910   C245    1.389   1_556 S
C911   H944    1.084   .     S
C912   H943    1.084   .     S
C913   H928    1.113   .     S
C913   H927    1.109   .     S
C913   O960    1.410   .     S
C913   H929    1.113   .     S
C914   O950    1.410   .     S
C914   H932    1.109   .     S
C914   H930    1.113   .     S
C914   H931    1.113   .     S
C915   H936    1.109   .     S
C915   H935    1.114   .     S
C915   H933    1.111   .     S
C915   O951    1.412   .     S
C916   H937    1.114   .     S
C916   O952    1.412   .     S
C916   H939    1.111   .     S
C916   H938    1.109   .     S
C917   H945    1.084   .     S
C917   C246    1.389   1_556 S
C918   O960    1.385   .     S
C918   C1068   1.383   1_455 S
C919   C922    1.402   .     A
C919   O950    1.385   .     S
C919   C995    1.383   .     S
C920   O951    1.386   .     S
C920   C922    1.402   .     A
C920   C992    1.383   .     S
C921   O952    1.386   .     S
C921   C1067   1.383   1_455 S
N947   Zn961   2.005   .     S
N948   Zn962   2.005   .     S
O949   Zn961   1.994   .     S
O953   Zn962   1.994   .     S
O954   Zn961   1.987   .     S
O955   Zn962   1.987   .     S
O956   Zn961   2.019   .     S
O957   Zn962   2.019   .     S
O958   Zn961   2.018   .     S
O959   Zn962   2.018   .     S
C963   O1029   1.280   .     A
C963   C964    1.412   .     S
C963   O1023   1.276   .     A
C964   C992    1.402   .     A
C964   C995    1.403   .     A
C965   N1022   1.366   .     A
C965   H1020   1.082   .     S
C966   N1021   1.366   .     A
C966   H998    1.082   .     S
C966   C1189   1.415   .     S
C967   H999    1.082   .     S
C967   N1022   1.366   .     A
C968   H1000   1.082   .     S
C968   N1021   1.366   .     A
C968   C1187   1.415   .     S
C969   C975    1.439   .     S
C969   O1030   1.286   .     A
C969   O1033   1.286   .     A
C970   O1032   1.286   .     A
C970   O1031   1.286   .     A
C970   C973    1.439   .     S
C971   C982    1.383   .     A
C971   C973    1.399   .     A
C971   H997    1.085   .     S
C972   H1008   1.085   .     S
C972   C983    1.383   .     A
C972   C975    1.399   .     A
C973   C976    1.398   .     A
C974   C996    1.412   .     S
C974   O1027   1.276   .     A
C974   O1028   1.280   .     A
C975   C977    1.398   .     A
C976   C978    1.383   .     A
C976   H1014   1.084   .     S
C977   H1015   1.084   .     S
C977   C979    1.383   .     A
C978   C980    1.411   .     A
C978   C984    1.400   .     A
C979   C981    1.411   .     A
C979   C986    1.400   .     A
C980   C982    1.411   .     A
C980   C315    1.391   1_556 S
C981   C983    1.411   .     A
C982   C991    1.400   .     A
C983   C985    1.400   .     A
C984   H1016   1.084   .     S
C984   C319    1.389   1_556 S
C985   H1018   1.084   .     S
C986   H1017   1.084   .     S
C987   H1002   1.113   .     S
C987   H1001   1.109   .     S
C987   O1034   1.410   .     S
C987   H1003   1.113   .     S
C988   O1024   1.410   .     S
C988   H1006   1.109   .     S
C988   H1004   1.113   .     S
C988   H1005   1.113   .     S
C989   H1010   1.109   .     S
C989   H1009   1.114   .     S
C989   H1007   1.111   .     S
C989   O1025   1.412   .     S
C990   H1011   1.114   .     S
C990   O1026   1.412   .     S
C990   H1013   1.111   .     S
C990   H1012   1.109   .     S
C991   H1019   1.084   .     S
C991   C320    1.389   1_556 S
C992   O1034   1.385   .     S
C993   C996    1.402   .     A
C993   O1024   1.385   .     S
C993   C1069   1.383   .     S
C994   O1025   1.386   .     S
C994   C996    1.402   .     A
C994   C1066   1.383   .     S
C995   O1026   1.386   .     S
N1021  Zn1035  2.005   .     S
N1022  Zn1036  2.005   .     S
O1023  Zn1035  1.994   .     S
O1027  Zn1036  1.994   .     S
O1028  Zn1035  1.987   .     S
O1029  Zn1036  1.987   .     S
O1030  Zn1035  2.019   .     S
O1031  Zn1036  2.019   .     S
O1032  Zn1035  2.018   .     S
O1033  Zn1036  2.018   .     S
C1037  O1103   1.280   .     A
C1037  C1038   1.412   .     S
C1037  O1097   1.276   .     A
C1038  C1066   1.402   .     A
C1038  C1069   1.403   .     A
C1039  N1096   1.366   .     A
C1039  H1094   1.082   .     S
C1040  N1095   1.366   .     A
C1040  H1072   1.082   .     S
C1040  C1263   1.415   .     S
C1041  H1073   1.082   .     S
C1041  N1096   1.366   .     A
C1042  H1074   1.082   .     S
C1042  N1095   1.366   .     A
C1042  C1261   1.415   .     S
C1043  C1049   1.439   .     S
C1043  O1104   1.286   .     A
C1043  O1107   1.286   .     A
C1044  O1106   1.286   .     A
C1044  O1105   1.286   .     A
C1044  C1047   1.439   .     S
C1045  C1056   1.383   .     A
C1045  C1047   1.399   .     A
C1045  H1071   1.085   .     S
C1046  H1082   1.085   .     S
C1046  C1057   1.383   .     A
C1046  C1049   1.399   .     A
C1047  C1050   1.398   .     A
C1048  C1070   1.412   .     S
C1048  O1101   1.276   .     A
C1048  O1102   1.280   .     A
C1049  C1051   1.398   .     A
C1050  C1052   1.383   .     A
C1050  H1088   1.084   .     S
C1051  H1089   1.084   .     S
C1051  C1053   1.383   .     A
C1052  C1054   1.411   .     A
C1052  C1058   1.400   .     A
C1053  C1055   1.411   .     A
C1053  C1060   1.400   .     A
C1054  C1056   1.411   .     A
C1054  C389    1.391   1_556 S
C1055  C1057   1.411   .     A
C1056  C1065   1.400   .     A
C1057  C1059   1.400   .     A
C1058  H1090   1.084   .     S
C1058  C393    1.389   1_556 S
C1059  H1092   1.084   .     S
C1060  H1091   1.084   .     S
C1061  H1076   1.113   .     S
C1061  H1075   1.109   .     S
C1061  O1108   1.410   .     S
C1061  H1077   1.113   .     S
C1062  O1098   1.410   .     S
C1062  H1080   1.109   .     S
C1062  H1078   1.113   .     S
C1062  H1079   1.113   .     S
C1063  H1084   1.109   .     S
C1063  H1083   1.114   .     S
C1063  H1081   1.111   .     S
C1063  O1099   1.412   .     S
C1064  H1085   1.114   .     S
C1064  O1100   1.412   .     S
C1064  H1087   1.111   .     S
C1064  H1086   1.109   .     S
C1065  H1093   1.084   .     S
C1065  C394    1.389   1_556 S
C1066  O1108   1.385   .     S
C1067  C1070   1.402   .     A
C1067  O1098   1.385   .     S
C1067  C921    1.383   1_655 S
C1068  O1099   1.386   .     S
C1068  C1070   1.402   .     A
C1068  C918    1.383   1_655 S
C1069  O1100   1.386   .     S
N1095  Zn1109  2.005   .     S
N1096  Zn1110  2.005   .     S
O1097  Zn1109  1.994   .     S
O1101  Zn1110  1.994   .     S
O1102  Zn1109  1.987   .     S
O1103  Zn1110  1.987   .     S
O1104  Zn1109  2.019   .     S
O1105  Zn1110  2.019   .     S
O1106  Zn1109  2.018   .     S
O1107  Zn1110  2.018   .     S
C1111  O1177   1.280   .     A
C1111  C1112   1.412   .     S
C1111  O1171   1.276   .     A
C1112  C1140   1.402   .     A
C1112  C1143   1.403   .     A
C1113  N1170   1.366   .     A
C1113  H1168   1.082   .     S
C1114  N1169   1.366   .     A
C1114  H1146   1.082   .     S
C1114  C671    1.415   1_565 S
C1115  H1147   1.082   .     S
C1115  N1170   1.366   .     A
C1116  H1148   1.082   .     S
C1116  N1169   1.366   .     A
C1116  C669    1.415   1_565 S
C1117  C1123   1.439   .     S
C1117  O1178   1.286   .     A
C1117  O1181   1.286   .     A
C1118  O1180   1.286   .     A
C1118  O1179   1.286   .     A
C1118  C1121   1.439   .     S
C1119  C1130   1.383   .     A
C1119  C1121   1.399   .     A
C1119  H1145   1.085   .     S
C1120  H1156   1.085   .     S
C1120  C1131   1.383   .     A
C1120  C1123   1.399   .     A
C1121  C1124   1.398   .     A
C1122  C1144   1.412   .     S
C1122  O1175   1.276   .     A
C1122  O1176   1.280   .     A
C1123  C1125   1.398   .     A
C1124  C1126   1.383   .     A
C1124  H1162   1.084   .     S
C1125  H1163   1.084   .     S
C1125  C1127   1.383   .     A
C1126  C1128   1.411   .     A
C1126  C1132   1.400   .     A
C1127  C1129   1.411   .     A
C1127  C1134   1.400   .     A
C1128  C1130   1.411   .     A
C1128  C463    1.391   1_556 S
C1129  C1131   1.411   .     A
C1130  C1139   1.400   .     A
C1131  C1133   1.400   .     A
C1132  H1164   1.084   .     S
C1132  C467    1.389   1_556 S
C1133  H1166   1.084   .     S
C1134  H1165   1.084   .     S
C1135  H1150   1.113   .     S
C1135  H1149   1.109   .     S
C1135  O1182   1.410   .     S
C1135  H1151   1.113   .     S
C1136  O1172   1.410   .     S
C1136  H1154   1.109   .     S
C1136  H1152   1.113   .     S
C1136  H1153   1.113   .     S
C1137  H1158   1.109   .     S
C1137  H1157   1.114   .     S
C1137  H1155   1.111   .     S
C1137  O1173   1.412   .     S
C1138  H1159   1.114   .     S
C1138  O1174   1.412   .     S
C1138  H1161   1.111   .     S
C1138  H1160   1.109   .     S
C1139  H1167   1.084   .     S
C1139  C468    1.389   1_556 S
C1140  O1182   1.385   .     S
C1140  C1290   1.383   1_455 S
C1141  C1144   1.402   .     A
C1141  O1172   1.385   .     S
C1141  C1217   1.383   .     S
C1142  O1173   1.386   .     S
C1142  C1144   1.402   .     A
C1142  C1214   1.383   .     S
C1143  O1174   1.386   .     S
C1143  C1289   1.383   1_455 S
N1169  Zn1183  2.005   .     S
N1170  Zn1184  2.005   .     S
O1171  Zn1183  1.994   .     S
O1175  Zn1184  1.994   .     S
O1176  Zn1183  1.987   .     S
O1177  Zn1184  1.987   .     S
O1178  Zn1183  2.019   .     S
O1179  Zn1184  2.019   .     S
O1180  Zn1183  2.018   .     S
O1181  Zn1184  2.018   .     S
C1185  O1251   1.280   .     A
C1185  C1186   1.412   .     S
C1185  O1245   1.276   .     A
C1186  C1214   1.402   .     A
C1186  C1217   1.403   .     A
C1187  N1244   1.366   .     A
C1187  H1242   1.082   .     S
C1188  N1243   1.366   .     A
C1188  H1220   1.082   .     S
C1188  C745    1.415   1_565 S
C1189  H1221   1.082   .     S
C1189  N1244   1.366   .     A
C1190  H1222   1.082   .     S
C1190  N1243   1.366   .     A
C1190  C743    1.415   1_565 S
C1191  C1197   1.439   .     S
C1191  O1252   1.286   .     A
C1191  O1255   1.286   .     A
C1192  O1254   1.286   .     A
C1192  O1253   1.286   .     A
C1192  C1195   1.439   .     S
C1193  C1204   1.383   .     A
C1193  C1195   1.399   .     A
C1193  H1219   1.085   .     S
C1194  H1230   1.085   .     S
C1194  C1205   1.383   .     A
C1194  C1197   1.399   .     A
C1195  C1198   1.398   .     A
C1196  C1218   1.412   .     S
C1196  O1249   1.276   .     A
C1196  O1250   1.280   .     A
C1197  C1199   1.398   .     A
C1198  C1200   1.383   .     A
C1198  H1236   1.084   .     S
C1199  H1237   1.084   .     S
C1199  C1201   1.383   .     A
C1200  C1202   1.411   .     A
C1200  C1206   1.400   .     A
C1201  C1203   1.411   .     A
C1201  C1208   1.400   .     A
C1202  C1204   1.411   .     A
C1202  C537    1.391   1_556 S
C1203  C1205   1.411   .     A
C1204  C1213   1.400   .     A
C1205  C1207   1.400   .     A
C1206  H1238   1.084   .     S
C1206  C541    1.389   1_556 S
C1207  H1240   1.084   .     S
C1208  H1239   1.084   .     S
C1209  H1224   1.113   .     S
C1209  H1223   1.109   .     S
C1209  O1256   1.410   .     S
C1209  H1225   1.113   .     S
C1210  O1246   1.410   .     S
C1210  H1228   1.109   .     S
C1210  H1226   1.113   .     S
C1210  H1227   1.113   .     S
C1211  H1232   1.109   .     S
C1211  H1231   1.114   .     S
C1211  H1229   1.111   .     S
C1211  O1247   1.412   .     S
C1212  H1233   1.114   .     S
C1212  O1248   1.412   .     S
C1212  H1235   1.111   .     S
C1212  H1234   1.109   .     S
C1213  H1241   1.084   .     S
C1213  C542    1.389   1_556 S
C1214  O1256   1.385   .     S
C1215  C1218   1.402   .     A
C1215  O1246   1.385   .     S
C1215  C1291   1.383   .     S
C1216  O1247   1.386   .     S
C1216  C1218   1.402   .     A
C1216  C1288   1.383   .     S
C1217  O1248   1.386   .     S
N1243  Zn1257  2.005   .     S
N1244  Zn1258  2.005   .     S
O1245  Zn1257  1.994   .     S
O1249  Zn1258  1.994   .     S
O1250  Zn1257  1.987   .     S
O1251  Zn1258  1.987   .     S
O1252  Zn1257  2.019   .     S
O1253  Zn1258  2.019   .     S
O1254  Zn1257  2.018   .     S
O1255  Zn1258  2.018   .     S
C1259  O1325   1.280   .     A
C1259  C1260   1.412   .     S
C1259  O1319   1.276   .     A
C1260  C1288   1.402   .     A
C1260  C1291   1.403   .     A
C1261  N1318   1.366   .     A
C1261  H1316   1.082   .     S
C1262  N1317   1.366   .     A
C1262  H1294   1.082   .     S
C1262  C819    1.415   1_565 S
C1263  H1295   1.082   .     S
C1263  N1318   1.366   .     A
C1264  H1296   1.082   .     S
C1264  N1317   1.366   .     A
C1264  C817    1.415   1_565 S
C1265  C1271   1.439   .     S
C1265  O1326   1.286   .     A
C1265  O1329   1.286   .     A
C1266  O1328   1.286   .     A
C1266  O1327   1.286   .     A
C1266  C1269   1.439   .     S
C1267  C1278   1.383   .     A
C1267  C1269   1.399   .     A
C1267  H1293   1.085   .     S
C1268  H1304   1.085   .     S
C1268  C1279   1.383   .     A
C1268  C1271   1.399   .     A
C1269  C1272   1.398   .     A
C1270  C1292   1.412   .     S
C1270  O1323   1.276   .     A
C1270  O1324   1.280   .     A
C1271  C1273   1.398   .     A
C1272  C1274   1.383   .     A
C1272  H1310   1.084   .     S
C1273  H1311   1.084   .     S
C1273  C1275   1.383   .     A
C1274  C1276   1.411   .     A
C1274  C1280   1.400   .     A
C1275  C1277   1.411   .     A
C1275  C1282   1.400   .     A
C1276  C1278   1.411   .     A
C1276  C611    1.391   1_556 S
C1277  C1279   1.411   .     A
C1278  C1287   1.400   .     A
C1279  C1281   1.400   .     A
C1280  H1312   1.084   .     S
C1280  C615    1.389   1_556 S
C1281  H1314   1.084   .     S
C1282  H1313   1.084   .     S
C1283  H1298   1.113   .     S
C1283  H1297   1.109   .     S
C1283  O1330   1.410   .     S
C1283  H1299   1.113   .     S
C1284  O1320   1.410   .     S
C1284  H1302   1.109   .     S
C1284  H1300   1.113   .     S
C1284  H1301   1.113   .     S
C1285  H1306   1.109   .     S
C1285  H1305   1.114   .     S
C1285  H1303   1.111   .     S
C1285  O1321   1.412   .     S
C1286  H1307   1.114   .     S
C1286  O1322   1.412   .     S
C1286  H1309   1.111   .     S
C1286  H1308   1.109   .     S
C1287  H1315   1.084   .     S
C1287  C616    1.389   1_556 S
C1288  O1330   1.385   .     S
C1289  C1292   1.402   .     A
C1289  O1320   1.385   .     S
C1289  C1143   1.383   1_655 S
C1290  O1321   1.386   .     S
C1290  C1292   1.402   .     A
C1290  C1140   1.383   1_655 S
C1291  O1322   1.386   .     S
N1317  Zn1331  2.005   .     S
N1318  Zn1332  2.005   .     S
O1319  Zn1331  1.994   .     S
O1323  Zn1332  1.994   .     S
O1324  Zn1331  1.987   .     S
O1325  Zn1332  1.987   .     S
O1326  Zn1331  2.019   .     S
O1327  Zn1332  2.019   .     S
O1328  Zn1331  2.018   .     S
O1329  Zn1332  2.018   .     S
