data_str_m3_o1_o16_pcu_sym.47
_audit_creation_date              2020-01-03
_audit_creation_method            'Materials Studio'
_symmetry_space_group_name_H-M    'P1'
_symmetry_Int_Tables_number       1
_symmetry_cell_setting            triclinic
loop_
_symmetry_equiv_pos_as_xyz
  x,y,z
_cell_length_a                    29.9440
_cell_length_b                    32.1062
_cell_length_c                    25.9648
_cell_angle_alpha                 90.1371
_cell_angle_beta                  70.5113
_cell_angle_gamma                 90.2102
loop_
_atom_site_label
_atom_site_type_symbol
_atom_site_fract_x
_atom_site_fract_y
_atom_site_fract_z
_atom_site_U_iso_or_equiv
_atom_site_adp_type
_atom_site_occupancy
O1     O     0.12846   0.22775   0.25001   0.00000  Uiso   1.00
O2     O     0.20490   0.22774   0.25001   0.00000  Uiso   1.00
C3     C     0.16705   0.24653   0.24911   0.00000  Uiso   1.00
O4     O     0.10947   0.16666   0.32681   0.00000  Uiso   1.00
O5     O     0.18591   0.16665   0.32681   0.00000  Uiso   1.00
C6     C     0.14028   0.16687   0.35215   0.00000  Uiso   1.00
Zn7    Zn    0.11562   0.16667   0.25000   0.00000  Uiso   1.00
Zn8    Zn    0.21771   0.16666   0.25000   0.00000  Uiso   1.00
O9     O     0.12843   0.10559   0.25000   0.00000  Uiso   1.00
O10    O     0.20488   0.10558   0.25000   0.00000  Uiso   1.00
O11    O     0.14742   0.16668   0.17319   0.00000  Uiso   1.00
O12    O     0.22387   0.16667   0.17319   0.00000  Uiso   1.00
C13    C     0.16669   0.08684   0.25075   0.00000  Uiso   1.00
C14    C     0.19285   0.16622   0.14779   0.00000  Uiso   1.00
C15    C     0.21261   0.09341   0.03511   0.00000  Uiso   1.00
H16    H     0.24122   0.09808   0.10015   0.00000  Uiso   1.00
H17    H     0.22580   0.06203   0.02604   0.00000  Uiso   1.00
C18    C     0.20666   0.15489   0.09044   0.00000  Uiso   1.00
C19    C     0.10473   0.21656   0.42395   0.00000  Uiso   1.00
C20    C     0.09418   0.23157   0.47670   0.00000  Uiso   1.00
C21    C     0.11156   0.21008   0.01339   0.00000  Uiso   1.00
C22    C     0.13769   0.17221   0.49610   0.00000  Uiso   1.00
C23    C     0.13477   0.15234   0.44873   0.00000  Uiso   1.00
C24    C     0.16735   0.15346   0.02226   0.00000  Uiso   1.00
C25    C     0.18264   0.11153   0.00953   0.00000  Uiso   1.00
C26    C     0.16593   0.08821   0.47356   0.00000  Uiso   1.00
C27    C     0.14243   0.10891   0.44230   0.00000  Uiso   1.00
C28    C     0.18348   0.17543   0.05952   0.00000  Uiso   1.00
C29    C     0.22369   0.11466   0.07602   0.00000  Uiso   1.00
C30    C     0.12329   0.17677   0.41012   0.00000  Uiso   1.00
H31    H     0.17551   0.20786   0.06844   0.00000  Uiso   1.00
H32    H     0.09808   0.23603   0.39356   0.00000  Uiso   1.00
C33    C     0.19421   0.31149   0.27484   0.00000  Uiso   1.00
H34    H     0.21378   0.29460   0.29594   0.00000  Uiso   1.00
C35    C     0.19519   0.02078   0.27607   0.00000  Uiso   1.00
C36    C     0.16793   0.04270   0.25028   0.00000  Uiso   1.00
C37    C     0.14342   0.02213   0.22065   0.00000  Uiso   1.00
H38    H     0.12671   0.03945   0.19657   0.00000  Uiso   1.00
C39    C     0.14363   0.31266   0.21826   0.00000  Uiso   1.00
C40    C     0.16814   0.29080   0.24711   0.00000  Uiso   1.00
C41    C     0.31922   0.14160   0.21519   0.00000  Uiso   1.00
C42    C     0.03304   0.14017   0.21692   0.00000  Uiso   1.00
N43    N     0.04760   0.16668   0.25002   0.00000  Uiso   1.00
C44    C     0.01424   0.19287   0.28366   0.00000  Uiso   1.00
C45    C     0.29951   0.19182   0.28516   0.00000  Uiso   1.00
N46    N     0.28573   0.16665   0.25001   0.00000  Uiso   1.00
I47    I     0.23938   0.04726   0.31754   0.00000  Uiso   1.00
N48    N     0.12220   0.29206   0.18340   0.00000  Uiso   1.00
O49    O     0.14524   0.26281   0.15064   0.00000  Uiso   1.00
O50    O     0.08302   0.30619   0.17882   0.00000  Uiso   1.00
N51    N     0.30737   0.11762   0.17513   0.00000  Uiso   1.00
O52    O     0.32015   0.13116   0.12512   0.00000  Uiso   1.00
O53    O     0.29439   0.07895   0.18506   0.00000  Uiso   1.00
N54    N     0.06395   0.10838   0.18656   0.00000  Uiso   1.00
O55    O     0.09220   0.11638   0.13744   0.00000  Uiso   1.00
O56    O     0.05235   0.06984   0.19987   0.00000  Uiso   1.00
I57    I     0.03336   0.23612   0.33500   0.00000  Uiso   1.00
I58    I     0.24948   0.22968   0.34493   0.00000  Uiso   1.00
I59    I     0.17246   0.02152   0.47026   0.00000  Uiso   1.00
N60    N     0.09938   0.22537   0.06820   0.00000  Uiso   1.00
O61    O     0.08055   0.20060   0.10935   0.00000  Uiso   1.00
O62    O     0.10213   0.26505   0.07691   0.00000  Uiso   1.00
N63    N     0.06548   0.26832   0.49243   0.00000  Uiso   1.00
O64    O     0.06972   0.29830   0.45743   0.00000  Uiso   1.00
O65    O     0.02920   0.26840   0.03732   0.00000  Uiso   1.00
I66    I     0.10544   0.07362   0.39890   0.00000  Uiso   1.00
O67    O     0.46179   0.22775   0.25001   0.00000  Uiso   1.00
O68    O     0.53823   0.22774   0.25001   0.00000  Uiso   1.00
C69    C     0.50039   0.24653   0.24911   0.00000  Uiso   1.00
O70    O     0.44280   0.16666   0.32681   0.00000  Uiso   1.00
O71    O     0.51924   0.16665   0.32681   0.00000  Uiso   1.00
C72    C     0.47361   0.16687   0.35215   0.00000  Uiso   1.00
Zn73   Zn    0.44896   0.16667   0.25000   0.00000  Uiso   1.00
Zn74   Zn    0.55104   0.16666   0.25000   0.00000  Uiso   1.00
O75    O     0.46177   0.10559   0.25000   0.00000  Uiso   1.00
O76    O     0.53821   0.10558   0.25000   0.00000  Uiso   1.00
O77    O     0.48076   0.16668   0.17319   0.00000  Uiso   1.00
O78    O     0.55720   0.16667   0.17319   0.00000  Uiso   1.00
C79    C     0.50003   0.08684   0.25075   0.00000  Uiso   1.00
C80    C     0.52618   0.16622   0.14779   0.00000  Uiso   1.00
C81    C     0.54594   0.09341   0.03511   0.00000  Uiso   1.00
H82    H     0.57455   0.09808   0.10015   0.00000  Uiso   1.00
H83    H     0.55913   0.06203   0.02604   0.00000  Uiso   1.00
C84    C     0.54000   0.15489   0.09044   0.00000  Uiso   1.00
C85    C     0.43807   0.21656   0.42395   0.00000  Uiso   1.00
C86    C     0.42751   0.23157   0.47670   0.00000  Uiso   1.00
C87    C     0.44489   0.21008   0.01339   0.00000  Uiso   1.00
C88    C     0.47102   0.17221   0.49610   0.00000  Uiso   1.00
C89    C     0.46810   0.15234   0.44873   0.00000  Uiso   1.00
C90    C     0.50068   0.15346   0.02226   0.00000  Uiso   1.00
C91    C     0.51597   0.11153   0.00953   0.00000  Uiso   1.00
C92    C     0.49927   0.08821   0.47356   0.00000  Uiso   1.00
C93    C     0.47577   0.10891   0.44230   0.00000  Uiso   1.00
C94    C     0.51682   0.17543   0.05952   0.00000  Uiso   1.00
C95    C     0.55702   0.11466   0.07602   0.00000  Uiso   1.00
C96    C     0.45663   0.17677   0.41012   0.00000  Uiso   1.00
H97    H     0.50884   0.20786   0.06844   0.00000  Uiso   1.00
H98    H     0.43142   0.23603   0.39356   0.00000  Uiso   1.00
C99    C     0.52754   0.31149   0.27484   0.00000  Uiso   1.00
H100   H     0.54711   0.29460   0.29594   0.00000  Uiso   1.00
C101   C     0.52853   0.02078   0.27607   0.00000  Uiso   1.00
C102   C     0.50127   0.04270   0.25028   0.00000  Uiso   1.00
C103   C     0.47675   0.02213   0.22065   0.00000  Uiso   1.00
H104   H     0.46004   0.03945   0.19657   0.00000  Uiso   1.00
C105   C     0.47696   0.31266   0.21826   0.00000  Uiso   1.00
C106   C     0.50147   0.29080   0.24711   0.00000  Uiso   1.00
C107   C     0.65256   0.14160   0.21519   0.00000  Uiso   1.00
C108   C     0.36637   0.14017   0.21692   0.00000  Uiso   1.00
N109   N     0.38093   0.16668   0.25002   0.00000  Uiso   1.00
C110   C     0.34758   0.19287   0.28366   0.00000  Uiso   1.00
C111   C     0.63285   0.19182   0.28516   0.00000  Uiso   1.00
N112   N     0.61906   0.16665   0.25001   0.00000  Uiso   1.00
I113   I     0.57271   0.04726   0.31754   0.00000  Uiso   1.00
N114   N     0.45553   0.29206   0.18340   0.00000  Uiso   1.00
O115   O     0.47857   0.26281   0.15064   0.00000  Uiso   1.00
O116   O     0.41636   0.30619   0.17882   0.00000  Uiso   1.00
N117   N     0.64070   0.11762   0.17513   0.00000  Uiso   1.00
O118   O     0.65348   0.13116   0.12512   0.00000  Uiso   1.00
O119   O     0.62773   0.07895   0.18506   0.00000  Uiso   1.00
N120   N     0.39728   0.10838   0.18656   0.00000  Uiso   1.00
O121   O     0.42554   0.11638   0.13744   0.00000  Uiso   1.00
O122   O     0.38568   0.06984   0.19987   0.00000  Uiso   1.00
I123   I     0.36670   0.23612   0.33500   0.00000  Uiso   1.00
I124   I     0.58282   0.22968   0.34493   0.00000  Uiso   1.00
I125   I     0.50579   0.02152   0.47026   0.00000  Uiso   1.00
N126   N     0.43271   0.22537   0.06820   0.00000  Uiso   1.00
O127   O     0.41388   0.20060   0.10935   0.00000  Uiso   1.00
O128   O     0.43547   0.26505   0.07691   0.00000  Uiso   1.00
N129   N     0.39881   0.26832   0.49243   0.00000  Uiso   1.00
O130   O     0.40305   0.29830   0.45743   0.00000  Uiso   1.00
O131   O     0.36253   0.26840   0.03732   0.00000  Uiso   1.00
I132   I     0.43878   0.07362   0.39890   0.00000  Uiso   1.00
O133   O     0.79512   0.22775   0.25001   0.00000  Uiso   1.00
O134   O     0.87157   0.22774   0.25001   0.00000  Uiso   1.00
C135   C     0.83372   0.24653   0.24911   0.00000  Uiso   1.00
O136   O     0.77613   0.16666   0.32681   0.00000  Uiso   1.00
O137   O     0.85258   0.16665   0.32681   0.00000  Uiso   1.00
C138   C     0.80694   0.16687   0.35215   0.00000  Uiso   1.00
Zn139  Zn    0.78229   0.16667   0.25000   0.00000  Uiso   1.00
Zn140  Zn    0.88438   0.16666   0.25000   0.00000  Uiso   1.00
O141   O     0.79510   0.10559   0.25000   0.00000  Uiso   1.00
O142   O     0.87154   0.10558   0.25000   0.00000  Uiso   1.00
O143   O     0.81409   0.16668   0.17319   0.00000  Uiso   1.00
O144   O     0.89053   0.16667   0.17319   0.00000  Uiso   1.00
C145   C     0.83336   0.08684   0.25075   0.00000  Uiso   1.00
C146   C     0.85952   0.16622   0.14779   0.00000  Uiso   1.00
C147   C     0.87927   0.09341   0.03511   0.00000  Uiso   1.00
H148   H     0.90789   0.09808   0.10015   0.00000  Uiso   1.00
H149   H     0.89246   0.06203   0.02604   0.00000  Uiso   1.00
C150   C     0.87333   0.15489   0.09044   0.00000  Uiso   1.00
C151   C     0.77140   0.21656   0.42395   0.00000  Uiso   1.00
C152   C     0.76084   0.23157   0.47670   0.00000  Uiso   1.00
C153   C     0.77822   0.21008   0.01339   0.00000  Uiso   1.00
C154   C     0.80436   0.17221   0.49610   0.00000  Uiso   1.00
C155   C     0.80143   0.15234   0.44873   0.00000  Uiso   1.00
C156   C     0.83401   0.15346   0.02226   0.00000  Uiso   1.00
C157   C     0.84931   0.11153   0.00953   0.00000  Uiso   1.00
C158   C     0.83260   0.08821   0.47356   0.00000  Uiso   1.00
C159   C     0.80910   0.10891   0.44230   0.00000  Uiso   1.00
C160   C     0.85015   0.17543   0.05952   0.00000  Uiso   1.00
C161   C     0.89036   0.11466   0.07602   0.00000  Uiso   1.00
C162   C     0.78996   0.17677   0.41012   0.00000  Uiso   1.00
H163   H     0.84217   0.20786   0.06844   0.00000  Uiso   1.00
H164   H     0.76475   0.23603   0.39356   0.00000  Uiso   1.00
C165   C     0.86088   0.31149   0.27484   0.00000  Uiso   1.00
H166   H     0.88045   0.29460   0.29594   0.00000  Uiso   1.00
C167   C     0.86186   0.02078   0.27607   0.00000  Uiso   1.00
C168   C     0.83460   0.04270   0.25028   0.00000  Uiso   1.00
C169   C     0.81008   0.02213   0.22065   0.00000  Uiso   1.00
H170   H     0.79337   0.03945   0.19657   0.00000  Uiso   1.00
C171   C     0.81030   0.31266   0.21826   0.00000  Uiso   1.00
C172   C     0.83481   0.29080   0.24711   0.00000  Uiso   1.00
C173   C     0.98589   0.14160   0.21519   0.00000  Uiso   1.00
C174   C     0.69971   0.14017   0.21692   0.00000  Uiso   1.00
N175   N     0.71426   0.16668   0.25002   0.00000  Uiso   1.00
C176   C     0.68091   0.19287   0.28366   0.00000  Uiso   1.00
C177   C     0.96618   0.19182   0.28516   0.00000  Uiso   1.00
N178   N     0.95239   0.16665   0.25001   0.00000  Uiso   1.00
I179   I     0.90605   0.04726   0.31754   0.00000  Uiso   1.00
N180   N     0.78887   0.29206   0.18340   0.00000  Uiso   1.00
O181   O     0.81191   0.26281   0.15064   0.00000  Uiso   1.00
O182   O     0.74969   0.30619   0.17882   0.00000  Uiso   1.00
N183   N     0.97404   0.11762   0.17513   0.00000  Uiso   1.00
O184   O     0.98681   0.13116   0.12512   0.00000  Uiso   1.00
O185   O     0.96106   0.07895   0.18506   0.00000  Uiso   1.00
N186   N     0.73061   0.10838   0.18656   0.00000  Uiso   1.00
O187   O     0.75887   0.11638   0.13744   0.00000  Uiso   1.00
O188   O     0.71902   0.06984   0.19987   0.00000  Uiso   1.00
I189   I     0.70003   0.23612   0.33500   0.00000  Uiso   1.00
I190   I     0.91615   0.22968   0.34493   0.00000  Uiso   1.00
I191   I     0.83913   0.02152   0.47026   0.00000  Uiso   1.00
N192   N     0.76605   0.22537   0.06820   0.00000  Uiso   1.00
O193   O     0.74721   0.20060   0.10935   0.00000  Uiso   1.00
O194   O     0.76880   0.26505   0.07691   0.00000  Uiso   1.00
N195   N     0.73215   0.26832   0.49243   0.00000  Uiso   1.00
O196   O     0.73638   0.29830   0.45743   0.00000  Uiso   1.00
O197   O     0.69586   0.26840   0.03732   0.00000  Uiso   1.00
I198   I     0.77211   0.07362   0.39890   0.00000  Uiso   1.00
O199   O     0.12846   0.56108   0.25001   0.00000  Uiso   1.00
O200   O     0.20490   0.56107   0.25001   0.00000  Uiso   1.00
C201   C     0.16705   0.57986   0.24911   0.00000  Uiso   1.00
O202   O     0.10947   0.50000   0.32681   0.00000  Uiso   1.00
O203   O     0.18591   0.49999   0.32681   0.00000  Uiso   1.00
C204   C     0.14028   0.50020   0.35215   0.00000  Uiso   1.00
Zn205  Zn    0.11562   0.50001   0.25000   0.00000  Uiso   1.00
Zn206  Zn    0.21771   0.49999   0.25000   0.00000  Uiso   1.00
O207   O     0.12843   0.43893   0.25000   0.00000  Uiso   1.00
O208   O     0.20488   0.43892   0.25000   0.00000  Uiso   1.00
O209   O     0.14742   0.50001   0.17319   0.00000  Uiso   1.00
O210   O     0.22387   0.50000   0.17319   0.00000  Uiso   1.00
C211   C     0.16669   0.42017   0.25075   0.00000  Uiso   1.00
C212   C     0.19285   0.49955   0.14779   0.00000  Uiso   1.00
C213   C     0.21261   0.42674   0.03511   0.00000  Uiso   1.00
H214   H     0.24122   0.43142   0.10015   0.00000  Uiso   1.00
H215   H     0.22580   0.39537   0.02604   0.00000  Uiso   1.00
C216   C     0.20666   0.48822   0.09044   0.00000  Uiso   1.00
C217   C     0.10473   0.54989   0.42395   0.00000  Uiso   1.00
C218   C     0.09418   0.56490   0.47670   0.00000  Uiso   1.00
C219   C     0.11156   0.54342   0.01339   0.00000  Uiso   1.00
C220   C     0.13769   0.50554   0.49610   0.00000  Uiso   1.00
C221   C     0.13477   0.48567   0.44873   0.00000  Uiso   1.00
C222   C     0.16735   0.48679   0.02226   0.00000  Uiso   1.00
C223   C     0.18264   0.44487   0.00953   0.00000  Uiso   1.00
C224   C     0.16593   0.42154   0.47356   0.00000  Uiso   1.00
C225   C     0.14243   0.44225   0.44230   0.00000  Uiso   1.00
C226   C     0.18348   0.50876   0.05952   0.00000  Uiso   1.00
C227   C     0.22369   0.44800   0.07602   0.00000  Uiso   1.00
C228   C     0.12329   0.51010   0.41012   0.00000  Uiso   1.00
H229   H     0.17551   0.54119   0.06844   0.00000  Uiso   1.00
H230   H     0.09808   0.56937   0.39356   0.00000  Uiso   1.00
C231   C     0.19421   0.64483   0.27484   0.00000  Uiso   1.00
H232   H     0.21378   0.62794   0.29594   0.00000  Uiso   1.00
C233   C     0.19519   0.35411   0.27607   0.00000  Uiso   1.00
C234   C     0.16793   0.37604   0.25028   0.00000  Uiso   1.00
C235   C     0.14342   0.35547   0.22065   0.00000  Uiso   1.00
H236   H     0.12671   0.37278   0.19657   0.00000  Uiso   1.00
C237   C     0.14363   0.64599   0.21826   0.00000  Uiso   1.00
C238   C     0.16814   0.62413   0.24711   0.00000  Uiso   1.00
C239   C     0.31922   0.47493   0.21519   0.00000  Uiso   1.00
C240   C     0.03304   0.47350   0.21692   0.00000  Uiso   1.00
N241   N     0.04760   0.50001   0.25002   0.00000  Uiso   1.00
C242   C     0.01424   0.52621   0.28366   0.00000  Uiso   1.00
C243   C     0.29951   0.52515   0.28516   0.00000  Uiso   1.00
N244   N     0.28573   0.49998   0.25001   0.00000  Uiso   1.00
I245   I     0.23938   0.38059   0.31754   0.00000  Uiso   1.00
N246   N     0.12220   0.62539   0.18340   0.00000  Uiso   1.00
O247   O     0.14524   0.59614   0.15064   0.00000  Uiso   1.00
O248   O     0.08302   0.63952   0.17882   0.00000  Uiso   1.00
N249   N     0.30737   0.45096   0.17513   0.00000  Uiso   1.00
O250   O     0.32015   0.46450   0.12512   0.00000  Uiso   1.00
O251   O     0.29439   0.41228   0.18506   0.00000  Uiso   1.00
N252   N     0.06395   0.44172   0.18656   0.00000  Uiso   1.00
O253   O     0.09220   0.44971   0.13744   0.00000  Uiso   1.00
O254   O     0.05235   0.40317   0.19987   0.00000  Uiso   1.00
I255   I     0.03336   0.56945   0.33500   0.00000  Uiso   1.00
I256   I     0.24948   0.56301   0.34493   0.00000  Uiso   1.00
I257   I     0.17246   0.35486   0.47026   0.00000  Uiso   1.00
N258   N     0.09938   0.55870   0.06820   0.00000  Uiso   1.00
O259   O     0.08055   0.53393   0.10935   0.00000  Uiso   1.00
O260   O     0.10213   0.59838   0.07691   0.00000  Uiso   1.00
N261   N     0.06548   0.60165   0.49243   0.00000  Uiso   1.00
O262   O     0.06972   0.63163   0.45743   0.00000  Uiso   1.00
O263   O     0.02920   0.60174   0.03732   0.00000  Uiso   1.00
I264   I     0.10544   0.40695   0.39890   0.00000  Uiso   1.00
O265   O     0.46179   0.56108   0.25001   0.00000  Uiso   1.00
O266   O     0.53823   0.56107   0.25001   0.00000  Uiso   1.00
C267   C     0.50039   0.57986   0.24911   0.00000  Uiso   1.00
O268   O     0.44280   0.50000   0.32681   0.00000  Uiso   1.00
O269   O     0.51924   0.49999   0.32681   0.00000  Uiso   1.00
C270   C     0.47361   0.50020   0.35215   0.00000  Uiso   1.00
Zn271  Zn    0.44896   0.50001   0.25000   0.00000  Uiso   1.00
Zn272  Zn    0.55104   0.49999   0.25000   0.00000  Uiso   1.00
O273   O     0.46177   0.43893   0.25000   0.00000  Uiso   1.00
O274   O     0.53821   0.43892   0.25000   0.00000  Uiso   1.00
O275   O     0.48076   0.50001   0.17319   0.00000  Uiso   1.00
O276   O     0.55720   0.50000   0.17319   0.00000  Uiso   1.00
C277   C     0.50003   0.42017   0.25075   0.00000  Uiso   1.00
C278   C     0.52618   0.49955   0.14779   0.00000  Uiso   1.00
C279   C     0.54594   0.42674   0.03511   0.00000  Uiso   1.00
H280   H     0.57455   0.43142   0.10015   0.00000  Uiso   1.00
H281   H     0.55913   0.39537   0.02604   0.00000  Uiso   1.00
C282   C     0.54000   0.48822   0.09044   0.00000  Uiso   1.00
C283   C     0.43807   0.54989   0.42395   0.00000  Uiso   1.00
C284   C     0.42751   0.56490   0.47670   0.00000  Uiso   1.00
C285   C     0.44489   0.54342   0.01339   0.00000  Uiso   1.00
C286   C     0.47102   0.50554   0.49610   0.00000  Uiso   1.00
C287   C     0.46810   0.48567   0.44873   0.00000  Uiso   1.00
C288   C     0.50068   0.48679   0.02226   0.00000  Uiso   1.00
C289   C     0.51597   0.44487   0.00953   0.00000  Uiso   1.00
C290   C     0.49927   0.42154   0.47356   0.00000  Uiso   1.00
C291   C     0.47577   0.44225   0.44230   0.00000  Uiso   1.00
C292   C     0.51682   0.50876   0.05952   0.00000  Uiso   1.00
C293   C     0.55702   0.44800   0.07602   0.00000  Uiso   1.00
C294   C     0.45663   0.51010   0.41012   0.00000  Uiso   1.00
H295   H     0.50884   0.54119   0.06844   0.00000  Uiso   1.00
H296   H     0.43142   0.56937   0.39356   0.00000  Uiso   1.00
C297   C     0.52754   0.64483   0.27484   0.00000  Uiso   1.00
H298   H     0.54711   0.62794   0.29594   0.00000  Uiso   1.00
C299   C     0.52853   0.35411   0.27607   0.00000  Uiso   1.00
C300   C     0.50127   0.37604   0.25028   0.00000  Uiso   1.00
C301   C     0.47675   0.35547   0.22065   0.00000  Uiso   1.00
H302   H     0.46004   0.37278   0.19657   0.00000  Uiso   1.00
C303   C     0.47696   0.64599   0.21826   0.00000  Uiso   1.00
C304   C     0.50147   0.62413   0.24711   0.00000  Uiso   1.00
C305   C     0.65256   0.47493   0.21519   0.00000  Uiso   1.00
C306   C     0.36637   0.47350   0.21692   0.00000  Uiso   1.00
N307   N     0.38093   0.50001   0.25002   0.00000  Uiso   1.00
C308   C     0.34758   0.52621   0.28366   0.00000  Uiso   1.00
C309   C     0.63285   0.52515   0.28516   0.00000  Uiso   1.00
N310   N     0.61906   0.49998   0.25001   0.00000  Uiso   1.00
I311   I     0.57271   0.38059   0.31754   0.00000  Uiso   1.00
N312   N     0.45553   0.62539   0.18340   0.00000  Uiso   1.00
O313   O     0.47857   0.59614   0.15064   0.00000  Uiso   1.00
O314   O     0.41636   0.63952   0.17882   0.00000  Uiso   1.00
N315   N     0.64070   0.45096   0.17513   0.00000  Uiso   1.00
O316   O     0.65348   0.46450   0.12512   0.00000  Uiso   1.00
O317   O     0.62773   0.41228   0.18506   0.00000  Uiso   1.00
N318   N     0.39728   0.44172   0.18656   0.00000  Uiso   1.00
O319   O     0.42554   0.44971   0.13744   0.00000  Uiso   1.00
O320   O     0.38568   0.40317   0.19987   0.00000  Uiso   1.00
I321   I     0.36670   0.56945   0.33500   0.00000  Uiso   1.00
I322   I     0.58282   0.56301   0.34493   0.00000  Uiso   1.00
I323   I     0.50579   0.35486   0.47026   0.00000  Uiso   1.00
N324   N     0.43271   0.55870   0.06820   0.00000  Uiso   1.00
O325   O     0.41388   0.53393   0.10935   0.00000  Uiso   1.00
O326   O     0.43547   0.59838   0.07691   0.00000  Uiso   1.00
N327   N     0.39881   0.60165   0.49243   0.00000  Uiso   1.00
O328   O     0.40305   0.63163   0.45743   0.00000  Uiso   1.00
O329   O     0.36253   0.60174   0.03732   0.00000  Uiso   1.00
I330   I     0.43878   0.40695   0.39890   0.00000  Uiso   1.00
O331   O     0.79512   0.56108   0.25001   0.00000  Uiso   1.00
O332   O     0.87157   0.56107   0.25001   0.00000  Uiso   1.00
C333   C     0.83372   0.57986   0.24911   0.00000  Uiso   1.00
O334   O     0.77613   0.50000   0.32681   0.00000  Uiso   1.00
O335   O     0.85258   0.49999   0.32681   0.00000  Uiso   1.00
C336   C     0.80694   0.50020   0.35215   0.00000  Uiso   1.00
Zn337  Zn    0.78229   0.50001   0.25000   0.00000  Uiso   1.00
Zn338  Zn    0.88438   0.49999   0.25000   0.00000  Uiso   1.00
O339   O     0.79510   0.43893   0.25000   0.00000  Uiso   1.00
O340   O     0.87154   0.43892   0.25000   0.00000  Uiso   1.00
O341   O     0.81409   0.50001   0.17319   0.00000  Uiso   1.00
O342   O     0.89053   0.50000   0.17319   0.00000  Uiso   1.00
C343   C     0.83336   0.42017   0.25075   0.00000  Uiso   1.00
C344   C     0.85952   0.49955   0.14779   0.00000  Uiso   1.00
C345   C     0.87927   0.42674   0.03511   0.00000  Uiso   1.00
H346   H     0.90789   0.43142   0.10015   0.00000  Uiso   1.00
H347   H     0.89246   0.39537   0.02604   0.00000  Uiso   1.00
C348   C     0.87333   0.48822   0.09044   0.00000  Uiso   1.00
C349   C     0.77140   0.54989   0.42395   0.00000  Uiso   1.00
C350   C     0.76084   0.56490   0.47670   0.00000  Uiso   1.00
C351   C     0.77822   0.54342   0.01339   0.00000  Uiso   1.00
C352   C     0.80436   0.50554   0.49610   0.00000  Uiso   1.00
C353   C     0.80143   0.48567   0.44873   0.00000  Uiso   1.00
C354   C     0.83401   0.48679   0.02226   0.00000  Uiso   1.00
C355   C     0.84931   0.44487   0.00953   0.00000  Uiso   1.00
C356   C     0.83260   0.42154   0.47356   0.00000  Uiso   1.00
C357   C     0.80910   0.44225   0.44230   0.00000  Uiso   1.00
C358   C     0.85015   0.50876   0.05952   0.00000  Uiso   1.00
C359   C     0.89036   0.44800   0.07602   0.00000  Uiso   1.00
C360   C     0.78996   0.51010   0.41012   0.00000  Uiso   1.00
H361   H     0.84217   0.54119   0.06844   0.00000  Uiso   1.00
H362   H     0.76475   0.56937   0.39356   0.00000  Uiso   1.00
C363   C     0.86088   0.64483   0.27484   0.00000  Uiso   1.00
H364   H     0.88045   0.62794   0.29594   0.00000  Uiso   1.00
C365   C     0.86186   0.35411   0.27607   0.00000  Uiso   1.00
C366   C     0.83460   0.37604   0.25028   0.00000  Uiso   1.00
C367   C     0.81008   0.35547   0.22065   0.00000  Uiso   1.00
H368   H     0.79337   0.37278   0.19657   0.00000  Uiso   1.00
C369   C     0.81030   0.64599   0.21826   0.00000  Uiso   1.00
C370   C     0.83481   0.62413   0.24711   0.00000  Uiso   1.00
C371   C     0.98589   0.47493   0.21519   0.00000  Uiso   1.00
C372   C     0.69971   0.47350   0.21692   0.00000  Uiso   1.00
N373   N     0.71426   0.50001   0.25002   0.00000  Uiso   1.00
C374   C     0.68091   0.52621   0.28366   0.00000  Uiso   1.00
C375   C     0.96618   0.52515   0.28516   0.00000  Uiso   1.00
N376   N     0.95239   0.49998   0.25001   0.00000  Uiso   1.00
I377   I     0.90605   0.38059   0.31754   0.00000  Uiso   1.00
N378   N     0.78887   0.62539   0.18340   0.00000  Uiso   1.00
O379   O     0.81191   0.59614   0.15064   0.00000  Uiso   1.00
O380   O     0.74969   0.63952   0.17882   0.00000  Uiso   1.00
N381   N     0.97404   0.45096   0.17513   0.00000  Uiso   1.00
O382   O     0.98681   0.46450   0.12512   0.00000  Uiso   1.00
O383   O     0.96106   0.41228   0.18506   0.00000  Uiso   1.00
N384   N     0.73061   0.44172   0.18656   0.00000  Uiso   1.00
O385   O     0.75887   0.44971   0.13744   0.00000  Uiso   1.00
O386   O     0.71902   0.40317   0.19987   0.00000  Uiso   1.00
I387   I     0.70003   0.56945   0.33500   0.00000  Uiso   1.00
I388   I     0.91615   0.56301   0.34493   0.00000  Uiso   1.00
I389   I     0.83913   0.35486   0.47026   0.00000  Uiso   1.00
N390   N     0.76605   0.55870   0.06820   0.00000  Uiso   1.00
O391   O     0.74721   0.53393   0.10935   0.00000  Uiso   1.00
O392   O     0.76880   0.59838   0.07691   0.00000  Uiso   1.00
N393   N     0.73215   0.60165   0.49243   0.00000  Uiso   1.00
O394   O     0.73638   0.63163   0.45743   0.00000  Uiso   1.00
O395   O     0.69586   0.60174   0.03732   0.00000  Uiso   1.00
I396   I     0.77211   0.40695   0.39890   0.00000  Uiso   1.00
O397   O     0.12846   0.89442   0.25001   0.00000  Uiso   1.00
O398   O     0.20490   0.89441   0.25001   0.00000  Uiso   1.00
C399   C     0.16705   0.91319   0.24911   0.00000  Uiso   1.00
O400   O     0.10947   0.83333   0.32681   0.00000  Uiso   1.00
O401   O     0.18591   0.83332   0.32681   0.00000  Uiso   1.00
C402   C     0.14028   0.83354   0.35215   0.00000  Uiso   1.00
Zn403  Zn    0.11562   0.83334   0.25000   0.00000  Uiso   1.00
Zn404  Zn    0.21771   0.83333   0.25000   0.00000  Uiso   1.00
O405   O     0.12843   0.77226   0.25000   0.00000  Uiso   1.00
O406   O     0.20488   0.77225   0.25000   0.00000  Uiso   1.00
O407   O     0.14742   0.83335   0.17319   0.00000  Uiso   1.00
O408   O     0.22387   0.83334   0.17319   0.00000  Uiso   1.00
C409   C     0.16669   0.75351   0.25075   0.00000  Uiso   1.00
C410   C     0.19285   0.83289   0.14779   0.00000  Uiso   1.00
C411   C     0.21261   0.76008   0.03511   0.00000  Uiso   1.00
H412   H     0.24122   0.76475   0.10015   0.00000  Uiso   1.00
H413   H     0.22580   0.72870   0.02604   0.00000  Uiso   1.00
C414   C     0.20666   0.82155   0.09044   0.00000  Uiso   1.00
C415   C     0.10473   0.88322   0.42395   0.00000  Uiso   1.00
C416   C     0.09418   0.89823   0.47670   0.00000  Uiso   1.00
C417   C     0.11156   0.87675   0.01339   0.00000  Uiso   1.00
C418   C     0.13769   0.83888   0.49610   0.00000  Uiso   1.00
C419   C     0.13477   0.81900   0.44873   0.00000  Uiso   1.00
C420   C     0.16735   0.82012   0.02226   0.00000  Uiso   1.00
C421   C     0.18264   0.77820   0.00953   0.00000  Uiso   1.00
C422   C     0.16593   0.75488   0.47356   0.00000  Uiso   1.00
C423   C     0.14243   0.77558   0.44230   0.00000  Uiso   1.00
C424   C     0.18348   0.84210   0.05952   0.00000  Uiso   1.00
C425   C     0.22369   0.78133   0.07602   0.00000  Uiso   1.00
C426   C     0.12329   0.84344   0.41012   0.00000  Uiso   1.00
H427   H     0.17551   0.87453   0.06844   0.00000  Uiso   1.00
H428   H     0.09808   0.90270   0.39356   0.00000  Uiso   1.00
C429   C     0.19421   0.97816   0.27484   0.00000  Uiso   1.00
H430   H     0.21378   0.96127   0.29594   0.00000  Uiso   1.00
C431   C     0.19519   0.68745   0.27607   0.00000  Uiso   1.00
C432   C     0.16793   0.70937   0.25028   0.00000  Uiso   1.00
C433   C     0.14342   0.68880   0.22065   0.00000  Uiso   1.00
H434   H     0.12671   0.70611   0.19657   0.00000  Uiso   1.00
C435   C     0.14363   0.97933   0.21826   0.00000  Uiso   1.00
C436   C     0.16814   0.95747   0.24711   0.00000  Uiso   1.00
C437   C     0.31922   0.80826   0.21519   0.00000  Uiso   1.00
C438   C     0.03304   0.80683   0.21692   0.00000  Uiso   1.00
N439   N     0.04760   0.83334   0.25002   0.00000  Uiso   1.00
C440   C     0.01424   0.85954   0.28366   0.00000  Uiso   1.00
C441   C     0.29951   0.85849   0.28516   0.00000  Uiso   1.00
N442   N     0.28573   0.83331   0.25001   0.00000  Uiso   1.00
I443   I     0.23938   0.71393   0.31754   0.00000  Uiso   1.00
N444   N     0.12220   0.95872   0.18340   0.00000  Uiso   1.00
O445   O     0.14524   0.92947   0.15064   0.00000  Uiso   1.00
O446   O     0.08302   0.97286   0.17882   0.00000  Uiso   1.00
N447   N     0.30737   0.78429   0.17513   0.00000  Uiso   1.00
O448   O     0.32015   0.79783   0.12512   0.00000  Uiso   1.00
O449   O     0.29439   0.74562   0.18506   0.00000  Uiso   1.00
N450   N     0.06395   0.77505   0.18656   0.00000  Uiso   1.00
O451   O     0.09220   0.78304   0.13744   0.00000  Uiso   1.00
O452   O     0.05235   0.73651   0.19987   0.00000  Uiso   1.00
I453   I     0.03336   0.90279   0.33500   0.00000  Uiso   1.00
I454   I     0.24948   0.89634   0.34493   0.00000  Uiso   1.00
I455   I     0.17246   0.68819   0.47026   0.00000  Uiso   1.00
N456   N     0.09938   0.89204   0.06820   0.00000  Uiso   1.00
O457   O     0.08055   0.86726   0.10935   0.00000  Uiso   1.00
O458   O     0.10213   0.93171   0.07691   0.00000  Uiso   1.00
N459   N     0.06548   0.93499   0.49243   0.00000  Uiso   1.00
O460   O     0.06972   0.96496   0.45743   0.00000  Uiso   1.00
O461   O     0.02920   0.93507   0.03732   0.00000  Uiso   1.00
I462   I     0.10544   0.74028   0.39890   0.00000  Uiso   1.00
O463   O     0.46179   0.89442   0.25001   0.00000  Uiso   1.00
O464   O     0.53823   0.89441   0.25001   0.00000  Uiso   1.00
C465   C     0.50039   0.91319   0.24911   0.00000  Uiso   1.00
O466   O     0.44280   0.83333   0.32681   0.00000  Uiso   1.00
O467   O     0.51924   0.83332   0.32681   0.00000  Uiso   1.00
C468   C     0.47361   0.83354   0.35215   0.00000  Uiso   1.00
Zn469  Zn    0.44896   0.83334   0.25000   0.00000  Uiso   1.00
Zn470  Zn    0.55104   0.83333   0.25000   0.00000  Uiso   1.00
O471   O     0.46177   0.77226   0.25000   0.00000  Uiso   1.00
O472   O     0.53821   0.77225   0.25000   0.00000  Uiso   1.00
O473   O     0.48076   0.83335   0.17319   0.00000  Uiso   1.00
O474   O     0.55720   0.83334   0.17319   0.00000  Uiso   1.00
C475   C     0.50003   0.75351   0.25075   0.00000  Uiso   1.00
C476   C     0.52618   0.83289   0.14779   0.00000  Uiso   1.00
C477   C     0.54594   0.76008   0.03511   0.00000  Uiso   1.00
H478   H     0.57455   0.76475   0.10015   0.00000  Uiso   1.00
H479   H     0.55913   0.72870   0.02604   0.00000  Uiso   1.00
C480   C     0.54000   0.82155   0.09044   0.00000  Uiso   1.00
C481   C     0.43807   0.88322   0.42395   0.00000  Uiso   1.00
C482   C     0.42751   0.89823   0.47670   0.00000  Uiso   1.00
C483   C     0.44489   0.87675   0.01339   0.00000  Uiso   1.00
C484   C     0.47102   0.83888   0.49610   0.00000  Uiso   1.00
C485   C     0.46810   0.81900   0.44873   0.00000  Uiso   1.00
C486   C     0.50068   0.82012   0.02226   0.00000  Uiso   1.00
C487   C     0.51597   0.77820   0.00953   0.00000  Uiso   1.00
C488   C     0.49927   0.75488   0.47356   0.00000  Uiso   1.00
C489   C     0.47577   0.77558   0.44230   0.00000  Uiso   1.00
C490   C     0.51682   0.84210   0.05952   0.00000  Uiso   1.00
C491   C     0.55702   0.78133   0.07602   0.00000  Uiso   1.00
C492   C     0.45663   0.84344   0.41012   0.00000  Uiso   1.00
H493   H     0.50884   0.87453   0.06844   0.00000  Uiso   1.00
H494   H     0.43142   0.90270   0.39356   0.00000  Uiso   1.00
C495   C     0.52754   0.97816   0.27484   0.00000  Uiso   1.00
H496   H     0.54711   0.96127   0.29594   0.00000  Uiso   1.00
C497   C     0.52853   0.68745   0.27607   0.00000  Uiso   1.00
C498   C     0.50127   0.70937   0.25028   0.00000  Uiso   1.00
C499   C     0.47675   0.68880   0.22065   0.00000  Uiso   1.00
H500   H     0.46004   0.70611   0.19657   0.00000  Uiso   1.00
C501   C     0.47696   0.97933   0.21826   0.00000  Uiso   1.00
C502   C     0.50147   0.95747   0.24711   0.00000  Uiso   1.00
C503   C     0.65256   0.80826   0.21519   0.00000  Uiso   1.00
C504   C     0.36637   0.80683   0.21692   0.00000  Uiso   1.00
N505   N     0.38093   0.83334   0.25002   0.00000  Uiso   1.00
C506   C     0.34758   0.85954   0.28366   0.00000  Uiso   1.00
C507   C     0.63285   0.85849   0.28516   0.00000  Uiso   1.00
N508   N     0.61906   0.83331   0.25001   0.00000  Uiso   1.00
I509   I     0.57271   0.71393   0.31754   0.00000  Uiso   1.00
N510   N     0.45553   0.95872   0.18340   0.00000  Uiso   1.00
O511   O     0.47857   0.92947   0.15064   0.00000  Uiso   1.00
O512   O     0.41636   0.97286   0.17882   0.00000  Uiso   1.00
N513   N     0.64070   0.78429   0.17513   0.00000  Uiso   1.00
O514   O     0.65348   0.79783   0.12512   0.00000  Uiso   1.00
O515   O     0.62773   0.74562   0.18506   0.00000  Uiso   1.00
N516   N     0.39728   0.77505   0.18656   0.00000  Uiso   1.00
O517   O     0.42554   0.78304   0.13744   0.00000  Uiso   1.00
O518   O     0.38568   0.73651   0.19987   0.00000  Uiso   1.00
I519   I     0.36670   0.90279   0.33500   0.00000  Uiso   1.00
I520   I     0.58282   0.89634   0.34493   0.00000  Uiso   1.00
I521   I     0.50579   0.68819   0.47026   0.00000  Uiso   1.00
N522   N     0.43271   0.89204   0.06820   0.00000  Uiso   1.00
O523   O     0.41388   0.86726   0.10935   0.00000  Uiso   1.00
O524   O     0.43547   0.93171   0.07691   0.00000  Uiso   1.00
N525   N     0.39881   0.93499   0.49243   0.00000  Uiso   1.00
O526   O     0.40305   0.96496   0.45743   0.00000  Uiso   1.00
O527   O     0.36253   0.93507   0.03732   0.00000  Uiso   1.00
I528   I     0.43878   0.74028   0.39890   0.00000  Uiso   1.00
O529   O     0.79512   0.89442   0.25001   0.00000  Uiso   1.00
O530   O     0.87157   0.89441   0.25001   0.00000  Uiso   1.00
C531   C     0.83372   0.91319   0.24911   0.00000  Uiso   1.00
O532   O     0.77613   0.83333   0.32681   0.00000  Uiso   1.00
O533   O     0.85258   0.83332   0.32681   0.00000  Uiso   1.00
C534   C     0.80694   0.83354   0.35215   0.00000  Uiso   1.00
Zn535  Zn    0.78229   0.83334   0.25000   0.00000  Uiso   1.00
Zn536  Zn    0.88438   0.83333   0.25000   0.00000  Uiso   1.00
O537   O     0.79510   0.77226   0.25000   0.00000  Uiso   1.00
O538   O     0.87154   0.77225   0.25000   0.00000  Uiso   1.00
O539   O     0.81409   0.83335   0.17319   0.00000  Uiso   1.00
O540   O     0.89053   0.83334   0.17319   0.00000  Uiso   1.00
C541   C     0.83336   0.75351   0.25075   0.00000  Uiso   1.00
C542   C     0.85952   0.83289   0.14779   0.00000  Uiso   1.00
C543   C     0.87927   0.76008   0.03511   0.00000  Uiso   1.00
H544   H     0.90789   0.76475   0.10015   0.00000  Uiso   1.00
H545   H     0.89246   0.72870   0.02604   0.00000  Uiso   1.00
C546   C     0.87333   0.82155   0.09044   0.00000  Uiso   1.00
C547   C     0.77140   0.88322   0.42395   0.00000  Uiso   1.00
C548   C     0.76084   0.89823   0.47670   0.00000  Uiso   1.00
C549   C     0.77822   0.87675   0.01339   0.00000  Uiso   1.00
C550   C     0.80436   0.83888   0.49610   0.00000  Uiso   1.00
C551   C     0.80143   0.81900   0.44873   0.00000  Uiso   1.00
C552   C     0.83401   0.82012   0.02226   0.00000  Uiso   1.00
C553   C     0.84931   0.77820   0.00953   0.00000  Uiso   1.00
C554   C     0.83260   0.75488   0.47356   0.00000  Uiso   1.00
C555   C     0.80910   0.77558   0.44230   0.00000  Uiso   1.00
C556   C     0.85015   0.84210   0.05952   0.00000  Uiso   1.00
C557   C     0.89036   0.78133   0.07602   0.00000  Uiso   1.00
C558   C     0.78996   0.84344   0.41012   0.00000  Uiso   1.00
H559   H     0.84217   0.87453   0.06844   0.00000  Uiso   1.00
H560   H     0.76475   0.90270   0.39356   0.00000  Uiso   1.00
C561   C     0.86088   0.97816   0.27484   0.00000  Uiso   1.00
H562   H     0.88045   0.96127   0.29594   0.00000  Uiso   1.00
C563   C     0.86186   0.68745   0.27607   0.00000  Uiso   1.00
C564   C     0.83460   0.70937   0.25028   0.00000  Uiso   1.00
C565   C     0.81008   0.68880   0.22065   0.00000  Uiso   1.00
H566   H     0.79337   0.70611   0.19657   0.00000  Uiso   1.00
C567   C     0.81030   0.97933   0.21826   0.00000  Uiso   1.00
C568   C     0.83481   0.95747   0.24711   0.00000  Uiso   1.00
C569   C     0.98589   0.80826   0.21519   0.00000  Uiso   1.00
C570   C     0.69971   0.80683   0.21692   0.00000  Uiso   1.00
N571   N     0.71426   0.83334   0.25002   0.00000  Uiso   1.00
C572   C     0.68091   0.85954   0.28366   0.00000  Uiso   1.00
C573   C     0.96618   0.85849   0.28516   0.00000  Uiso   1.00
N574   N     0.95239   0.83331   0.25001   0.00000  Uiso   1.00
I575   I     0.90605   0.71393   0.31754   0.00000  Uiso   1.00
N576   N     0.78887   0.95872   0.18340   0.00000  Uiso   1.00
O577   O     0.81191   0.92947   0.15064   0.00000  Uiso   1.00
O578   O     0.74969   0.97286   0.17882   0.00000  Uiso   1.00
N579   N     0.97404   0.78429   0.17513   0.00000  Uiso   1.00
O580   O     0.98681   0.79783   0.12512   0.00000  Uiso   1.00
O581   O     0.96106   0.74562   0.18506   0.00000  Uiso   1.00
N582   N     0.73061   0.77505   0.18656   0.00000  Uiso   1.00
O583   O     0.75887   0.78304   0.13744   0.00000  Uiso   1.00
O584   O     0.71902   0.73651   0.19987   0.00000  Uiso   1.00
I585   I     0.70003   0.90279   0.33500   0.00000  Uiso   1.00
I586   I     0.91615   0.89634   0.34493   0.00000  Uiso   1.00
I587   I     0.83913   0.68819   0.47026   0.00000  Uiso   1.00
N588   N     0.76605   0.89204   0.06820   0.00000  Uiso   1.00
O589   O     0.74721   0.86726   0.10935   0.00000  Uiso   1.00
O590   O     0.76880   0.93171   0.07691   0.00000  Uiso   1.00
N591   N     0.73215   0.93499   0.49243   0.00000  Uiso   1.00
O592   O     0.73638   0.96496   0.45743   0.00000  Uiso   1.00
O593   O     0.69586   0.93507   0.03732   0.00000  Uiso   1.00
I594   I     0.77211   0.74028   0.39890   0.00000  Uiso   1.00
O595   O     0.12846   0.22775   0.75001   0.00000  Uiso   1.00
O596   O     0.20490   0.22774   0.75001   0.00000  Uiso   1.00
C597   C     0.16705   0.24653   0.74911   0.00000  Uiso   1.00
O598   O     0.10947   0.16666   0.82681   0.00000  Uiso   1.00
O599   O     0.18591   0.16665   0.82681   0.00000  Uiso   1.00
C600   C     0.14028   0.16687   0.85215   0.00000  Uiso   1.00
Zn601  Zn    0.11562   0.16667   0.75000   0.00000  Uiso   1.00
Zn602  Zn    0.21771   0.16666   0.75000   0.00000  Uiso   1.00
O603   O     0.12843   0.10559   0.75000   0.00000  Uiso   1.00
O604   O     0.20488   0.10558   0.75000   0.00000  Uiso   1.00
O605   O     0.14742   0.16668   0.67319   0.00000  Uiso   1.00
O606   O     0.22387   0.16667   0.67319   0.00000  Uiso   1.00
C607   C     0.16669   0.08684   0.75075   0.00000  Uiso   1.00
C608   C     0.19285   0.16622   0.64779   0.00000  Uiso   1.00
C609   C     0.21261   0.09341   0.53511   0.00000  Uiso   1.00
H610   H     0.24122   0.09808   0.60015   0.00000  Uiso   1.00
H611   H     0.22580   0.06203   0.52604   0.00000  Uiso   1.00
C612   C     0.20666   0.15489   0.59044   0.00000  Uiso   1.00
C613   C     0.10473   0.21656   0.92395   0.00000  Uiso   1.00
C614   C     0.09418   0.23157   0.97670   0.00000  Uiso   1.00
C615   C     0.11156   0.21008   0.51339   0.00000  Uiso   1.00
C616   C     0.13769   0.17221   0.99610   0.00000  Uiso   1.00
C617   C     0.13477   0.15234   0.94873   0.00000  Uiso   1.00
C618   C     0.16735   0.15346   0.52226   0.00000  Uiso   1.00
C619   C     0.18264   0.11153   0.50953   0.00000  Uiso   1.00
C620   C     0.16593   0.08821   0.97356   0.00000  Uiso   1.00
C621   C     0.14243   0.10891   0.94230   0.00000  Uiso   1.00
C622   C     0.18348   0.17543   0.55952   0.00000  Uiso   1.00
C623   C     0.22369   0.11466   0.57602   0.00000  Uiso   1.00
C624   C     0.12329   0.17677   0.91012   0.00000  Uiso   1.00
H625   H     0.17551   0.20786   0.56844   0.00000  Uiso   1.00
H626   H     0.09808   0.23603   0.89356   0.00000  Uiso   1.00
C627   C     0.19421   0.31149   0.77484   0.00000  Uiso   1.00
H628   H     0.21378   0.29460   0.79594   0.00000  Uiso   1.00
C629   C     0.19519   0.02078   0.77607   0.00000  Uiso   1.00
C630   C     0.16793   0.04270   0.75028   0.00000  Uiso   1.00
C631   C     0.14342   0.02213   0.72065   0.00000  Uiso   1.00
H632   H     0.12671   0.03945   0.69657   0.00000  Uiso   1.00
C633   C     0.14363   0.31266   0.71826   0.00000  Uiso   1.00
C634   C     0.16814   0.29080   0.74711   0.00000  Uiso   1.00
C635   C     0.31922   0.14160   0.71519   0.00000  Uiso   1.00
C636   C     0.03304   0.14017   0.71692   0.00000  Uiso   1.00
N637   N     0.04760   0.16668   0.75002   0.00000  Uiso   1.00
C638   C     0.01424   0.19287   0.78366   0.00000  Uiso   1.00
C639   C     0.29951   0.19182   0.78516   0.00000  Uiso   1.00
N640   N     0.28573   0.16665   0.75001   0.00000  Uiso   1.00
I641   I     0.23938   0.04726   0.81754   0.00000  Uiso   1.00
N642   N     0.12220   0.29206   0.68340   0.00000  Uiso   1.00
O643   O     0.14524   0.26281   0.65064   0.00000  Uiso   1.00
O644   O     0.08302   0.30619   0.67882   0.00000  Uiso   1.00
N645   N     0.30737   0.11762   0.67513   0.00000  Uiso   1.00
O646   O     0.32015   0.13116   0.62512   0.00000  Uiso   1.00
O647   O     0.29439   0.07895   0.68506   0.00000  Uiso   1.00
N648   N     0.06395   0.10838   0.68656   0.00000  Uiso   1.00
O649   O     0.09220   0.11638   0.63744   0.00000  Uiso   1.00
O650   O     0.05235   0.06984   0.69987   0.00000  Uiso   1.00
I651   I     0.03336   0.23612   0.83500   0.00000  Uiso   1.00
I652   I     0.24948   0.22968   0.84493   0.00000  Uiso   1.00
I653   I     0.17246   0.02152   0.97026   0.00000  Uiso   1.00
N654   N     0.09938   0.22537   0.56820   0.00000  Uiso   1.00
O655   O     0.08055   0.20060   0.60935   0.00000  Uiso   1.00
O656   O     0.10213   0.26505   0.57691   0.00000  Uiso   1.00
N657   N     0.06548   0.26832   0.99243   0.00000  Uiso   1.00
O658   O     0.06972   0.29830   0.95743   0.00000  Uiso   1.00
O659   O     0.02920   0.26840   0.53732   0.00000  Uiso   1.00
I660   I     0.10544   0.07362   0.89890   0.00000  Uiso   1.00
O661   O     0.46179   0.22775   0.75001   0.00000  Uiso   1.00
O662   O     0.53823   0.22774   0.75001   0.00000  Uiso   1.00
C663   C     0.50039   0.24653   0.74911   0.00000  Uiso   1.00
O664   O     0.44280   0.16666   0.82681   0.00000  Uiso   1.00
O665   O     0.51924   0.16665   0.82681   0.00000  Uiso   1.00
C666   C     0.47361   0.16687   0.85215   0.00000  Uiso   1.00
Zn667  Zn    0.44896   0.16667   0.75000   0.00000  Uiso   1.00
Zn668  Zn    0.55104   0.16666   0.75000   0.00000  Uiso   1.00
O669   O     0.46177   0.10559   0.75000   0.00000  Uiso   1.00
O670   O     0.53821   0.10558   0.75000   0.00000  Uiso   1.00
O671   O     0.48076   0.16668   0.67319   0.00000  Uiso   1.00
O672   O     0.55720   0.16667   0.67319   0.00000  Uiso   1.00
C673   C     0.50003   0.08684   0.75075   0.00000  Uiso   1.00
C674   C     0.52618   0.16622   0.64779   0.00000  Uiso   1.00
C675   C     0.54594   0.09341   0.53511   0.00000  Uiso   1.00
H676   H     0.57455   0.09808   0.60015   0.00000  Uiso   1.00
H677   H     0.55913   0.06203   0.52604   0.00000  Uiso   1.00
C678   C     0.54000   0.15489   0.59044   0.00000  Uiso   1.00
C679   C     0.43807   0.21656   0.92395   0.00000  Uiso   1.00
C680   C     0.42751   0.23157   0.97670   0.00000  Uiso   1.00
C681   C     0.44489   0.21008   0.51339   0.00000  Uiso   1.00
C682   C     0.47102   0.17221   0.99610   0.00000  Uiso   1.00
C683   C     0.46810   0.15234   0.94873   0.00000  Uiso   1.00
C684   C     0.50068   0.15346   0.52226   0.00000  Uiso   1.00
C685   C     0.51597   0.11153   0.50953   0.00000  Uiso   1.00
C686   C     0.49927   0.08821   0.97356   0.00000  Uiso   1.00
C687   C     0.47577   0.10891   0.94230   0.00000  Uiso   1.00
C688   C     0.51682   0.17543   0.55952   0.00000  Uiso   1.00
C689   C     0.55702   0.11466   0.57602   0.00000  Uiso   1.00
C690   C     0.45663   0.17677   0.91012   0.00000  Uiso   1.00
H691   H     0.50884   0.20786   0.56844   0.00000  Uiso   1.00
H692   H     0.43142   0.23603   0.89356   0.00000  Uiso   1.00
C693   C     0.52754   0.31149   0.77484   0.00000  Uiso   1.00
H694   H     0.54711   0.29460   0.79594   0.00000  Uiso   1.00
C695   C     0.52853   0.02078   0.77607   0.00000  Uiso   1.00
C696   C     0.50127   0.04270   0.75028   0.00000  Uiso   1.00
C697   C     0.47675   0.02213   0.72065   0.00000  Uiso   1.00
H698   H     0.46004   0.03945   0.69657   0.00000  Uiso   1.00
C699   C     0.47696   0.31266   0.71826   0.00000  Uiso   1.00
C700   C     0.50147   0.29080   0.74711   0.00000  Uiso   1.00
C701   C     0.65256   0.14160   0.71519   0.00000  Uiso   1.00
C702   C     0.36637   0.14017   0.71692   0.00000  Uiso   1.00
N703   N     0.38093   0.16668   0.75002   0.00000  Uiso   1.00
C704   C     0.34758   0.19287   0.78366   0.00000  Uiso   1.00
C705   C     0.63285   0.19182   0.78516   0.00000  Uiso   1.00
N706   N     0.61906   0.16665   0.75001   0.00000  Uiso   1.00
I707   I     0.57271   0.04726   0.81754   0.00000  Uiso   1.00
N708   N     0.45553   0.29206   0.68340   0.00000  Uiso   1.00
O709   O     0.47857   0.26281   0.65064   0.00000  Uiso   1.00
O710   O     0.41636   0.30619   0.67882   0.00000  Uiso   1.00
N711   N     0.64070   0.11762   0.67513   0.00000  Uiso   1.00
O712   O     0.65348   0.13116   0.62512   0.00000  Uiso   1.00
O713   O     0.62773   0.07895   0.68506   0.00000  Uiso   1.00
N714   N     0.39728   0.10838   0.68656   0.00000  Uiso   1.00
O715   O     0.42554   0.11638   0.63744   0.00000  Uiso   1.00
O716   O     0.38568   0.06984   0.69987   0.00000  Uiso   1.00
I717   I     0.36670   0.23612   0.83500   0.00000  Uiso   1.00
I718   I     0.58282   0.22968   0.84493   0.00000  Uiso   1.00
I719   I     0.50579   0.02152   0.97026   0.00000  Uiso   1.00
N720   N     0.43271   0.22537   0.56820   0.00000  Uiso   1.00
O721   O     0.41388   0.20060   0.60935   0.00000  Uiso   1.00
O722   O     0.43547   0.26505   0.57691   0.00000  Uiso   1.00
N723   N     0.39881   0.26832   0.99243   0.00000  Uiso   1.00
O724   O     0.40305   0.29830   0.95743   0.00000  Uiso   1.00
O725   O     0.36253   0.26840   0.53732   0.00000  Uiso   1.00
I726   I     0.43878   0.07362   0.89890   0.00000  Uiso   1.00
O727   O     0.79512   0.22775   0.75001   0.00000  Uiso   1.00
O728   O     0.87157   0.22774   0.75001   0.00000  Uiso   1.00
C729   C     0.83372   0.24653   0.74911   0.00000  Uiso   1.00
O730   O     0.77613   0.16666   0.82681   0.00000  Uiso   1.00
O731   O     0.85258   0.16665   0.82681   0.00000  Uiso   1.00
C732   C     0.80694   0.16687   0.85215   0.00000  Uiso   1.00
Zn733  Zn    0.78229   0.16667   0.75000   0.00000  Uiso   1.00
Zn734  Zn    0.88438   0.16666   0.75000   0.00000  Uiso   1.00
O735   O     0.79510   0.10559   0.75000   0.00000  Uiso   1.00
O736   O     0.87154   0.10558   0.75000   0.00000  Uiso   1.00
O737   O     0.81409   0.16668   0.67319   0.00000  Uiso   1.00
O738   O     0.89053   0.16667   0.67319   0.00000  Uiso   1.00
C739   C     0.83336   0.08684   0.75075   0.00000  Uiso   1.00
C740   C     0.85952   0.16622   0.64779   0.00000  Uiso   1.00
C741   C     0.87927   0.09341   0.53511   0.00000  Uiso   1.00
H742   H     0.90789   0.09808   0.60015   0.00000  Uiso   1.00
H743   H     0.89246   0.06203   0.52604   0.00000  Uiso   1.00
C744   C     0.87333   0.15489   0.59044   0.00000  Uiso   1.00
C745   C     0.77140   0.21656   0.92395   0.00000  Uiso   1.00
C746   C     0.76084   0.23157   0.97670   0.00000  Uiso   1.00
C747   C     0.77822   0.21008   0.51339   0.00000  Uiso   1.00
C748   C     0.80436   0.17221   0.99610   0.00000  Uiso   1.00
C749   C     0.80143   0.15234   0.94873   0.00000  Uiso   1.00
C750   C     0.83401   0.15346   0.52226   0.00000  Uiso   1.00
C751   C     0.84931   0.11153   0.50953   0.00000  Uiso   1.00
C752   C     0.83260   0.08821   0.97356   0.00000  Uiso   1.00
C753   C     0.80910   0.10891   0.94230   0.00000  Uiso   1.00
C754   C     0.85015   0.17543   0.55952   0.00000  Uiso   1.00
C755   C     0.89036   0.11466   0.57602   0.00000  Uiso   1.00
C756   C     0.78996   0.17677   0.91012   0.00000  Uiso   1.00
H757   H     0.84217   0.20786   0.56844   0.00000  Uiso   1.00
H758   H     0.76475   0.23603   0.89356   0.00000  Uiso   1.00
C759   C     0.86088   0.31149   0.77484   0.00000  Uiso   1.00
H760   H     0.88045   0.29460   0.79594   0.00000  Uiso   1.00
C761   C     0.86186   0.02078   0.77607   0.00000  Uiso   1.00
C762   C     0.83460   0.04270   0.75028   0.00000  Uiso   1.00
C763   C     0.81008   0.02213   0.72065   0.00000  Uiso   1.00
H764   H     0.79337   0.03945   0.69657   0.00000  Uiso   1.00
C765   C     0.81030   0.31266   0.71826   0.00000  Uiso   1.00
C766   C     0.83481   0.29080   0.74711   0.00000  Uiso   1.00
C767   C     0.98589   0.14160   0.71519   0.00000  Uiso   1.00
C768   C     0.69971   0.14017   0.71692   0.00000  Uiso   1.00
N769   N     0.71426   0.16668   0.75002   0.00000  Uiso   1.00
C770   C     0.68091   0.19287   0.78366   0.00000  Uiso   1.00
C771   C     0.96618   0.19182   0.78516   0.00000  Uiso   1.00
N772   N     0.95239   0.16665   0.75001   0.00000  Uiso   1.00
I773   I     0.90605   0.04726   0.81754   0.00000  Uiso   1.00
N774   N     0.78887   0.29206   0.68340   0.00000  Uiso   1.00
O775   O     0.81191   0.26281   0.65064   0.00000  Uiso   1.00
O776   O     0.74969   0.30619   0.67882   0.00000  Uiso   1.00
N777   N     0.97404   0.11762   0.67513   0.00000  Uiso   1.00
O778   O     0.98681   0.13116   0.62512   0.00000  Uiso   1.00
O779   O     0.96106   0.07895   0.68506   0.00000  Uiso   1.00
N780   N     0.73061   0.10838   0.68656   0.00000  Uiso   1.00
O781   O     0.75887   0.11638   0.63744   0.00000  Uiso   1.00
O782   O     0.71902   0.06984   0.69987   0.00000  Uiso   1.00
I783   I     0.70003   0.23612   0.83500   0.00000  Uiso   1.00
I784   I     0.91615   0.22968   0.84493   0.00000  Uiso   1.00
I785   I     0.83913   0.02152   0.97026   0.00000  Uiso   1.00
N786   N     0.76605   0.22537   0.56820   0.00000  Uiso   1.00
O787   O     0.74721   0.20060   0.60935   0.00000  Uiso   1.00
O788   O     0.76880   0.26505   0.57691   0.00000  Uiso   1.00
N789   N     0.73215   0.26832   0.99243   0.00000  Uiso   1.00
O790   O     0.73638   0.29830   0.95743   0.00000  Uiso   1.00
O791   O     0.69586   0.26840   0.53732   0.00000  Uiso   1.00
I792   I     0.77211   0.07362   0.89890   0.00000  Uiso   1.00
O793   O     0.12846   0.56108   0.75001   0.00000  Uiso   1.00
O794   O     0.20490   0.56107   0.75001   0.00000  Uiso   1.00
C795   C     0.16705   0.57986   0.74911   0.00000  Uiso   1.00
O796   O     0.10947   0.50000   0.82681   0.00000  Uiso   1.00
O797   O     0.18591   0.49999   0.82681   0.00000  Uiso   1.00
C798   C     0.14028   0.50020   0.85215   0.00000  Uiso   1.00
Zn799  Zn    0.11562   0.50001   0.75000   0.00000  Uiso   1.00
Zn800  Zn    0.21771   0.49999   0.75000   0.00000  Uiso   1.00
O801   O     0.12843   0.43893   0.75000   0.00000  Uiso   1.00
O802   O     0.20488   0.43892   0.75000   0.00000  Uiso   1.00
O803   O     0.14742   0.50001   0.67319   0.00000  Uiso   1.00
O804   O     0.22387   0.50000   0.67319   0.00000  Uiso   1.00
C805   C     0.16669   0.42017   0.75075   0.00000  Uiso   1.00
C806   C     0.19285   0.49955   0.64779   0.00000  Uiso   1.00
C807   C     0.21261   0.42674   0.53511   0.00000  Uiso   1.00
H808   H     0.24122   0.43142   0.60015   0.00000  Uiso   1.00
H809   H     0.22580   0.39537   0.52604   0.00000  Uiso   1.00
C810   C     0.20666   0.48822   0.59044   0.00000  Uiso   1.00
C811   C     0.10473   0.54989   0.92395   0.00000  Uiso   1.00
C812   C     0.09418   0.56490   0.97670   0.00000  Uiso   1.00
C813   C     0.11156   0.54342   0.51339   0.00000  Uiso   1.00
C814   C     0.13769   0.50554   0.99610   0.00000  Uiso   1.00
C815   C     0.13477   0.48567   0.94873   0.00000  Uiso   1.00
C816   C     0.16735   0.48679   0.52226   0.00000  Uiso   1.00
C817   C     0.18264   0.44487   0.50953   0.00000  Uiso   1.00
C818   C     0.16593   0.42154   0.97356   0.00000  Uiso   1.00
C819   C     0.14243   0.44225   0.94230   0.00000  Uiso   1.00
C820   C     0.18348   0.50876   0.55952   0.00000  Uiso   1.00
C821   C     0.22369   0.44800   0.57602   0.00000  Uiso   1.00
C822   C     0.12329   0.51010   0.91012   0.00000  Uiso   1.00
H823   H     0.17551   0.54119   0.56844   0.00000  Uiso   1.00
H824   H     0.09808   0.56937   0.89356   0.00000  Uiso   1.00
C825   C     0.19421   0.64483   0.77484   0.00000  Uiso   1.00
H826   H     0.21378   0.62794   0.79594   0.00000  Uiso   1.00
C827   C     0.19519   0.35411   0.77607   0.00000  Uiso   1.00
C828   C     0.16793   0.37604   0.75028   0.00000  Uiso   1.00
C829   C     0.14342   0.35547   0.72065   0.00000  Uiso   1.00
H830   H     0.12671   0.37278   0.69657   0.00000  Uiso   1.00
C831   C     0.14363   0.64599   0.71826   0.00000  Uiso   1.00
C832   C     0.16814   0.62413   0.74711   0.00000  Uiso   1.00
C833   C     0.31922   0.47493   0.71519   0.00000  Uiso   1.00
C834   C     0.03304   0.47350   0.71692   0.00000  Uiso   1.00
N835   N     0.04760   0.50001   0.75002   0.00000  Uiso   1.00
C836   C     0.01424   0.52621   0.78366   0.00000  Uiso   1.00
C837   C     0.29951   0.52515   0.78516   0.00000  Uiso   1.00
N838   N     0.28573   0.49998   0.75001   0.00000  Uiso   1.00
I839   I     0.23938   0.38059   0.81754   0.00000  Uiso   1.00
N840   N     0.12220   0.62539   0.68340   0.00000  Uiso   1.00
O841   O     0.14524   0.59614   0.65064   0.00000  Uiso   1.00
O842   O     0.08302   0.63952   0.67882   0.00000  Uiso   1.00
N843   N     0.30737   0.45096   0.67513   0.00000  Uiso   1.00
O844   O     0.32015   0.46450   0.62512   0.00000  Uiso   1.00
O845   O     0.29439   0.41228   0.68506   0.00000  Uiso   1.00
N846   N     0.06395   0.44172   0.68656   0.00000  Uiso   1.00
O847   O     0.09220   0.44971   0.63744   0.00000  Uiso   1.00
O848   O     0.05235   0.40317   0.69987   0.00000  Uiso   1.00
I849   I     0.03336   0.56945   0.83500   0.00000  Uiso   1.00
I850   I     0.24948   0.56301   0.84493   0.00000  Uiso   1.00
I851   I     0.17246   0.35486   0.97026   0.00000  Uiso   1.00
N852   N     0.09938   0.55870   0.56820   0.00000  Uiso   1.00
O853   O     0.08055   0.53393   0.60935   0.00000  Uiso   1.00
O854   O     0.10213   0.59838   0.57691   0.00000  Uiso   1.00
N855   N     0.06548   0.60165   0.99243   0.00000  Uiso   1.00
O856   O     0.06972   0.63163   0.95743   0.00000  Uiso   1.00
O857   O     0.02920   0.60174   0.53732   0.00000  Uiso   1.00
I858   I     0.10544   0.40695   0.89890   0.00000  Uiso   1.00
O859   O     0.46179   0.56108   0.75001   0.00000  Uiso   1.00
O860   O     0.53823   0.56107   0.75001   0.00000  Uiso   1.00
C861   C     0.50039   0.57986   0.74911   0.00000  Uiso   1.00
O862   O     0.44280   0.50000   0.82681   0.00000  Uiso   1.00
O863   O     0.51924   0.49999   0.82681   0.00000  Uiso   1.00
C864   C     0.47361   0.50020   0.85215   0.00000  Uiso   1.00
Zn865  Zn    0.44896   0.50001   0.75000   0.00000  Uiso   1.00
Zn866  Zn    0.55104   0.49999   0.75000   0.00000  Uiso   1.00
O867   O     0.46177   0.43893   0.75000   0.00000  Uiso   1.00
O868   O     0.53821   0.43892   0.75000   0.00000  Uiso   1.00
O869   O     0.48076   0.50001   0.67319   0.00000  Uiso   1.00
O870   O     0.55720   0.50000   0.67319   0.00000  Uiso   1.00
C871   C     0.50003   0.42017   0.75075   0.00000  Uiso   1.00
C872   C     0.52618   0.49955   0.64779   0.00000  Uiso   1.00
C873   C     0.54594   0.42674   0.53511   0.00000  Uiso   1.00
H874   H     0.57455   0.43142   0.60015   0.00000  Uiso   1.00
H875   H     0.55913   0.39537   0.52604   0.00000  Uiso   1.00
C876   C     0.54000   0.48822   0.59044   0.00000  Uiso   1.00
C877   C     0.43807   0.54989   0.92395   0.00000  Uiso   1.00
C878   C     0.42751   0.56490   0.97670   0.00000  Uiso   1.00
C879   C     0.44489   0.54342   0.51339   0.00000  Uiso   1.00
C880   C     0.47102   0.50554   0.99610   0.00000  Uiso   1.00
C881   C     0.46810   0.48567   0.94873   0.00000  Uiso   1.00
C882   C     0.50068   0.48679   0.52226   0.00000  Uiso   1.00
C883   C     0.51597   0.44487   0.50953   0.00000  Uiso   1.00
C884   C     0.49927   0.42154   0.97356   0.00000  Uiso   1.00
C885   C     0.47577   0.44225   0.94230   0.00000  Uiso   1.00
C886   C     0.51682   0.50876   0.55952   0.00000  Uiso   1.00
C887   C     0.55702   0.44800   0.57602   0.00000  Uiso   1.00
C888   C     0.45663   0.51010   0.91012   0.00000  Uiso   1.00
H889   H     0.50884   0.54119   0.56844   0.00000  Uiso   1.00
H890   H     0.43142   0.56937   0.89356   0.00000  Uiso   1.00
C891   C     0.52754   0.64483   0.77484   0.00000  Uiso   1.00
H892   H     0.54711   0.62794   0.79594   0.00000  Uiso   1.00
C893   C     0.52853   0.35411   0.77607   0.00000  Uiso   1.00
C894   C     0.50127   0.37604   0.75028   0.00000  Uiso   1.00
C895   C     0.47675   0.35547   0.72065   0.00000  Uiso   1.00
H896   H     0.46004   0.37278   0.69657   0.00000  Uiso   1.00
C897   C     0.47696   0.64599   0.71826   0.00000  Uiso   1.00
C898   C     0.50147   0.62413   0.74711   0.00000  Uiso   1.00
C899   C     0.65256   0.47493   0.71519   0.00000  Uiso   1.00
C900   C     0.36637   0.47350   0.71692   0.00000  Uiso   1.00
N901   N     0.38093   0.50001   0.75002   0.00000  Uiso   1.00
C902   C     0.34758   0.52621   0.78366   0.00000  Uiso   1.00
C903   C     0.63285   0.52515   0.78516   0.00000  Uiso   1.00
N904   N     0.61906   0.49998   0.75001   0.00000  Uiso   1.00
I905   I     0.57271   0.38059   0.81754   0.00000  Uiso   1.00
N906   N     0.45553   0.62539   0.68340   0.00000  Uiso   1.00
O907   O     0.47857   0.59614   0.65064   0.00000  Uiso   1.00
O908   O     0.41636   0.63952   0.67882   0.00000  Uiso   1.00
N909   N     0.64070   0.45096   0.67513   0.00000  Uiso   1.00
O910   O     0.65348   0.46450   0.62512   0.00000  Uiso   1.00
O911   O     0.62773   0.41228   0.68506   0.00000  Uiso   1.00
N912   N     0.39728   0.44172   0.68656   0.00000  Uiso   1.00
O913   O     0.42554   0.44971   0.63744   0.00000  Uiso   1.00
O914   O     0.38568   0.40317   0.69987   0.00000  Uiso   1.00
I915   I     0.36670   0.56945   0.83500   0.00000  Uiso   1.00
I916   I     0.58282   0.56301   0.84493   0.00000  Uiso   1.00
I917   I     0.50579   0.35486   0.97026   0.00000  Uiso   1.00
N918   N     0.43271   0.55870   0.56820   0.00000  Uiso   1.00
O919   O     0.41388   0.53393   0.60935   0.00000  Uiso   1.00
O920   O     0.43547   0.59838   0.57691   0.00000  Uiso   1.00
N921   N     0.39881   0.60165   0.99243   0.00000  Uiso   1.00
O922   O     0.40305   0.63163   0.95743   0.00000  Uiso   1.00
O923   O     0.36253   0.60174   0.53732   0.00000  Uiso   1.00
I924   I     0.43878   0.40695   0.89890   0.00000  Uiso   1.00
O925   O     0.79512   0.56108   0.75001   0.00000  Uiso   1.00
O926   O     0.87157   0.56107   0.75001   0.00000  Uiso   1.00
C927   C     0.83372   0.57986   0.74911   0.00000  Uiso   1.00
O928   O     0.77613   0.50000   0.82681   0.00000  Uiso   1.00
O929   O     0.85258   0.49999   0.82681   0.00000  Uiso   1.00
C930   C     0.80694   0.50020   0.85215   0.00000  Uiso   1.00
Zn931  Zn    0.78229   0.50001   0.75000   0.00000  Uiso   1.00
Zn932  Zn    0.88438   0.49999   0.75000   0.00000  Uiso   1.00
O933   O     0.79510   0.43893   0.75000   0.00000  Uiso   1.00
O934   O     0.87154   0.43892   0.75000   0.00000  Uiso   1.00
O935   O     0.81409   0.50001   0.67319   0.00000  Uiso   1.00
O936   O     0.89053   0.50000   0.67319   0.00000  Uiso   1.00
C937   C     0.83336   0.42017   0.75075   0.00000  Uiso   1.00
C938   C     0.85952   0.49955   0.64779   0.00000  Uiso   1.00
C939   C     0.87927   0.42674   0.53511   0.00000  Uiso   1.00
H940   H     0.90789   0.43142   0.60015   0.00000  Uiso   1.00
H941   H     0.89246   0.39537   0.52604   0.00000  Uiso   1.00
C942   C     0.87333   0.48822   0.59044   0.00000  Uiso   1.00
C943   C     0.77140   0.54989   0.92395   0.00000  Uiso   1.00
C944   C     0.76084   0.56490   0.97670   0.00000  Uiso   1.00
C945   C     0.77822   0.54342   0.51339   0.00000  Uiso   1.00
C946   C     0.80436   0.50554   0.99610   0.00000  Uiso   1.00
C947   C     0.80143   0.48567   0.94873   0.00000  Uiso   1.00
C948   C     0.83401   0.48679   0.52226   0.00000  Uiso   1.00
C949   C     0.84931   0.44487   0.50953   0.00000  Uiso   1.00
C950   C     0.83260   0.42154   0.97356   0.00000  Uiso   1.00
C951   C     0.80910   0.44225   0.94230   0.00000  Uiso   1.00
C952   C     0.85015   0.50876   0.55952   0.00000  Uiso   1.00
C953   C     0.89036   0.44800   0.57602   0.00000  Uiso   1.00
C954   C     0.78996   0.51010   0.91012   0.00000  Uiso   1.00
H955   H     0.84217   0.54119   0.56844   0.00000  Uiso   1.00
H956   H     0.76475   0.56937   0.89356   0.00000  Uiso   1.00
C957   C     0.86088   0.64483   0.77484   0.00000  Uiso   1.00
H958   H     0.88045   0.62794   0.79594   0.00000  Uiso   1.00
C959   C     0.86186   0.35411   0.77607   0.00000  Uiso   1.00
C960   C     0.83460   0.37604   0.75028   0.00000  Uiso   1.00
C961   C     0.81008   0.35547   0.72065   0.00000  Uiso   1.00
H962   H     0.79337   0.37278   0.69657   0.00000  Uiso   1.00
C963   C     0.81030   0.64599   0.71826   0.00000  Uiso   1.00
C964   C     0.83481   0.62413   0.74711   0.00000  Uiso   1.00
C965   C     0.98589   0.47493   0.71519   0.00000  Uiso   1.00
C966   C     0.69971   0.47350   0.71692   0.00000  Uiso   1.00
N967   N     0.71426   0.50001   0.75002   0.00000  Uiso   1.00
C968   C     0.68091   0.52621   0.78366   0.00000  Uiso   1.00
C969   C     0.96618   0.52515   0.78516   0.00000  Uiso   1.00
N970   N     0.95239   0.49998   0.75001   0.00000  Uiso   1.00
I971   I     0.90605   0.38059   0.81754   0.00000  Uiso   1.00
N972   N     0.78887   0.62539   0.68340   0.00000  Uiso   1.00
O973   O     0.81191   0.59614   0.65064   0.00000  Uiso   1.00
O974   O     0.74969   0.63952   0.67882   0.00000  Uiso   1.00
N975   N     0.97404   0.45096   0.67513   0.00000  Uiso   1.00
O976   O     0.98681   0.46450   0.62512   0.00000  Uiso   1.00
O977   O     0.96106   0.41228   0.68506   0.00000  Uiso   1.00
N978   N     0.73061   0.44172   0.68656   0.00000  Uiso   1.00
O979   O     0.75887   0.44971   0.63744   0.00000  Uiso   1.00
O980   O     0.71902   0.40317   0.69987   0.00000  Uiso   1.00
I981   I     0.70003   0.56945   0.83500   0.00000  Uiso   1.00
I982   I     0.91615   0.56301   0.84493   0.00000  Uiso   1.00
I983   I     0.83913   0.35486   0.97026   0.00000  Uiso   1.00
N984   N     0.76605   0.55870   0.56820   0.00000  Uiso   1.00
O985   O     0.74721   0.53393   0.60935   0.00000  Uiso   1.00
O986   O     0.76880   0.59838   0.57691   0.00000  Uiso   1.00
N987   N     0.73215   0.60165   0.99243   0.00000  Uiso   1.00
O988   O     0.73638   0.63163   0.95743   0.00000  Uiso   1.00
O989   O     0.69586   0.60174   0.53732   0.00000  Uiso   1.00
I990   I     0.77211   0.40695   0.89890   0.00000  Uiso   1.00
O991   O     0.12846   0.89442   0.75001   0.00000  Uiso   1.00
O992   O     0.20490   0.89441   0.75001   0.00000  Uiso   1.00
C993   C     0.16705   0.91319   0.74911   0.00000  Uiso   1.00
O994   O     0.10947   0.83333   0.82681   0.00000  Uiso   1.00
O995   O     0.18591   0.83332   0.82681   0.00000  Uiso   1.00
C996   C     0.14028   0.83354   0.85215   0.00000  Uiso   1.00
Zn997  Zn    0.11562   0.83334   0.75000   0.00000  Uiso   1.00
Zn998  Zn    0.21771   0.83333   0.75000   0.00000  Uiso   1.00
O999   O     0.12843   0.77226   0.75000   0.00000  Uiso   1.00
O1000  O     0.20488   0.77225   0.75000   0.00000  Uiso   1.00
O1001  O     0.14742   0.83335   0.67319   0.00000  Uiso   1.00
O1002  O     0.22387   0.83334   0.67319   0.00000  Uiso   1.00
C1003  C     0.16669   0.75351   0.75075   0.00000  Uiso   1.00
C1004  C     0.19285   0.83289   0.64779   0.00000  Uiso   1.00
C1005  C     0.21261   0.76008   0.53511   0.00000  Uiso   1.00
H1006  H     0.24122   0.76475   0.60015   0.00000  Uiso   1.00
H1007  H     0.22580   0.72870   0.52604   0.00000  Uiso   1.00
C1008  C     0.20666   0.82155   0.59044   0.00000  Uiso   1.00
C1009  C     0.10473   0.88322   0.92395   0.00000  Uiso   1.00
C1010  C     0.09418   0.89823   0.97670   0.00000  Uiso   1.00
C1011  C     0.11156   0.87675   0.51339   0.00000  Uiso   1.00
C1012  C     0.13769   0.83888   0.99610   0.00000  Uiso   1.00
C1013  C     0.13477   0.81900   0.94873   0.00000  Uiso   1.00
C1014  C     0.16735   0.82012   0.52226   0.00000  Uiso   1.00
C1015  C     0.18264   0.77820   0.50953   0.00000  Uiso   1.00
C1016  C     0.16593   0.75488   0.97356   0.00000  Uiso   1.00
C1017  C     0.14243   0.77558   0.94230   0.00000  Uiso   1.00
C1018  C     0.18348   0.84210   0.55952   0.00000  Uiso   1.00
C1019  C     0.22369   0.78133   0.57602   0.00000  Uiso   1.00
C1020  C     0.12329   0.84344   0.91012   0.00000  Uiso   1.00
H1021  H     0.17551   0.87453   0.56844   0.00000  Uiso   1.00
H1022  H     0.09808   0.90270   0.89356   0.00000  Uiso   1.00
C1023  C     0.19421   0.97816   0.77484   0.00000  Uiso   1.00
H1024  H     0.21378   0.96127   0.79594   0.00000  Uiso   1.00
C1025  C     0.19519   0.68745   0.77607   0.00000  Uiso   1.00
C1026  C     0.16793   0.70937   0.75028   0.00000  Uiso   1.00
C1027  C     0.14342   0.68880   0.72065   0.00000  Uiso   1.00
H1028  H     0.12671   0.70611   0.69657   0.00000  Uiso   1.00
C1029  C     0.14363   0.97933   0.71826   0.00000  Uiso   1.00
C1030  C     0.16814   0.95747   0.74711   0.00000  Uiso   1.00
C1031  C     0.31922   0.80826   0.71519   0.00000  Uiso   1.00
C1032  C     0.03304   0.80683   0.71692   0.00000  Uiso   1.00
N1033  N     0.04760   0.83334   0.75002   0.00000  Uiso   1.00
C1034  C     0.01424   0.85954   0.78366   0.00000  Uiso   1.00
C1035  C     0.29951   0.85849   0.78516   0.00000  Uiso   1.00
N1036  N     0.28573   0.83331   0.75001   0.00000  Uiso   1.00
I1037  I     0.23938   0.71393   0.81754   0.00000  Uiso   1.00
N1038  N     0.12220   0.95872   0.68340   0.00000  Uiso   1.00
O1039  O     0.14524   0.92947   0.65064   0.00000  Uiso   1.00
O1040  O     0.08302   0.97286   0.67882   0.00000  Uiso   1.00
N1041  N     0.30737   0.78429   0.67513   0.00000  Uiso   1.00
O1042  O     0.32015   0.79783   0.62512   0.00000  Uiso   1.00
O1043  O     0.29439   0.74562   0.68506   0.00000  Uiso   1.00
N1044  N     0.06395   0.77505   0.68656   0.00000  Uiso   1.00
O1045  O     0.09220   0.78304   0.63744   0.00000  Uiso   1.00
O1046  O     0.05235   0.73651   0.69987   0.00000  Uiso   1.00
I1047  I     0.03336   0.90279   0.83500   0.00000  Uiso   1.00
I1048  I     0.24948   0.89634   0.84493   0.00000  Uiso   1.00
I1049  I     0.17246   0.68819   0.97026   0.00000  Uiso   1.00
N1050  N     0.09938   0.89204   0.56820   0.00000  Uiso   1.00
O1051  O     0.08055   0.86726   0.60935   0.00000  Uiso   1.00
O1052  O     0.10213   0.93171   0.57691   0.00000  Uiso   1.00
N1053  N     0.06548   0.93499   0.99243   0.00000  Uiso   1.00
O1054  O     0.06972   0.96496   0.95743   0.00000  Uiso   1.00
O1055  O     0.02920   0.93507   0.53732   0.00000  Uiso   1.00
I1056  I     0.10544   0.74028   0.89890   0.00000  Uiso   1.00
O1057  O     0.46179   0.89442   0.75001   0.00000  Uiso   1.00
O1058  O     0.53823   0.89441   0.75001   0.00000  Uiso   1.00
C1059  C     0.50039   0.91319   0.74911   0.00000  Uiso   1.00
O1060  O     0.44280   0.83333   0.82681   0.00000  Uiso   1.00
O1061  O     0.51924   0.83332   0.82681   0.00000  Uiso   1.00
C1062  C     0.47361   0.83354   0.85215   0.00000  Uiso   1.00
Zn1063 Zn    0.44896   0.83334   0.75000   0.00000  Uiso   1.00
Zn1064 Zn    0.55104   0.83333   0.75000   0.00000  Uiso   1.00
O1065  O     0.46177   0.77226   0.75000   0.00000  Uiso   1.00
O1066  O     0.53821   0.77225   0.75000   0.00000  Uiso   1.00
O1067  O     0.48076   0.83335   0.67319   0.00000  Uiso   1.00
O1068  O     0.55720   0.83334   0.67319   0.00000  Uiso   1.00
C1069  C     0.50003   0.75351   0.75075   0.00000  Uiso   1.00
C1070  C     0.52618   0.83289   0.64779   0.00000  Uiso   1.00
C1071  C     0.54594   0.76008   0.53511   0.00000  Uiso   1.00
H1072  H     0.57455   0.76475   0.60015   0.00000  Uiso   1.00
H1073  H     0.55913   0.72870   0.52604   0.00000  Uiso   1.00
C1074  C     0.54000   0.82155   0.59044   0.00000  Uiso   1.00
C1075  C     0.43807   0.88322   0.92395   0.00000  Uiso   1.00
C1076  C     0.42751   0.89823   0.97670   0.00000  Uiso   1.00
C1077  C     0.44489   0.87675   0.51339   0.00000  Uiso   1.00
C1078  C     0.47102   0.83888   0.99610   0.00000  Uiso   1.00
C1079  C     0.46810   0.81900   0.94873   0.00000  Uiso   1.00
C1080  C     0.50068   0.82012   0.52226   0.00000  Uiso   1.00
C1081  C     0.51597   0.77820   0.50953   0.00000  Uiso   1.00
C1082  C     0.49927   0.75488   0.97356   0.00000  Uiso   1.00
C1083  C     0.47577   0.77558   0.94230   0.00000  Uiso   1.00
C1084  C     0.51682   0.84210   0.55952   0.00000  Uiso   1.00
C1085  C     0.55702   0.78133   0.57602   0.00000  Uiso   1.00
C1086  C     0.45663   0.84344   0.91012   0.00000  Uiso   1.00
H1087  H     0.50884   0.87453   0.56844   0.00000  Uiso   1.00
H1088  H     0.43142   0.90270   0.89356   0.00000  Uiso   1.00
C1089  C     0.52754   0.97816   0.77484   0.00000  Uiso   1.00
H1090  H     0.54711   0.96127   0.79594   0.00000  Uiso   1.00
C1091  C     0.52853   0.68745   0.77607   0.00000  Uiso   1.00
C1092  C     0.50127   0.70937   0.75028   0.00000  Uiso   1.00
C1093  C     0.47675   0.68880   0.72065   0.00000  Uiso   1.00
H1094  H     0.46004   0.70611   0.69657   0.00000  Uiso   1.00
C1095  C     0.47696   0.97933   0.71826   0.00000  Uiso   1.00
C1096  C     0.50147   0.95747   0.74711   0.00000  Uiso   1.00
C1097  C     0.65256   0.80826   0.71519   0.00000  Uiso   1.00
C1098  C     0.36637   0.80683   0.71692   0.00000  Uiso   1.00
N1099  N     0.38093   0.83334   0.75002   0.00000  Uiso   1.00
C1100  C     0.34758   0.85954   0.78366   0.00000  Uiso   1.00
C1101  C     0.63285   0.85849   0.78516   0.00000  Uiso   1.00
N1102  N     0.61906   0.83331   0.75001   0.00000  Uiso   1.00
I1103  I     0.57271   0.71393   0.81754   0.00000  Uiso   1.00
N1104  N     0.45553   0.95872   0.68340   0.00000  Uiso   1.00
O1105  O     0.47857   0.92947   0.65064   0.00000  Uiso   1.00
O1106  O     0.41636   0.97286   0.67882   0.00000  Uiso   1.00
N1107  N     0.64070   0.78429   0.67513   0.00000  Uiso   1.00
O1108  O     0.65348   0.79783   0.62512   0.00000  Uiso   1.00
O1109  O     0.62773   0.74562   0.68506   0.00000  Uiso   1.00
N1110  N     0.39728   0.77505   0.68656   0.00000  Uiso   1.00
O1111  O     0.42554   0.78304   0.63744   0.00000  Uiso   1.00
O1112  O     0.38568   0.73651   0.69987   0.00000  Uiso   1.00
I1113  I     0.36670   0.90279   0.83500   0.00000  Uiso   1.00
I1114  I     0.58282   0.89634   0.84493   0.00000  Uiso   1.00
I1115  I     0.50579   0.68819   0.97026   0.00000  Uiso   1.00
N1116  N     0.43271   0.89204   0.56820   0.00000  Uiso   1.00
O1117  O     0.41388   0.86726   0.60935   0.00000  Uiso   1.00
O1118  O     0.43547   0.93171   0.57691   0.00000  Uiso   1.00
N1119  N     0.39881   0.93499   0.99243   0.00000  Uiso   1.00
O1120  O     0.40305   0.96496   0.95743   0.00000  Uiso   1.00
O1121  O     0.36253   0.93507   0.53732   0.00000  Uiso   1.00
I1122  I     0.43878   0.74028   0.89890   0.00000  Uiso   1.00
O1123  O     0.79512   0.89442   0.75001   0.00000  Uiso   1.00
O1124  O     0.87157   0.89441   0.75001   0.00000  Uiso   1.00
C1125  C     0.83372   0.91319   0.74911   0.00000  Uiso   1.00
O1126  O     0.77613   0.83333   0.82681   0.00000  Uiso   1.00
O1127  O     0.85258   0.83332   0.82681   0.00000  Uiso   1.00
C1128  C     0.80694   0.83354   0.85215   0.00000  Uiso   1.00
Zn1129 Zn    0.78229   0.83334   0.75000   0.00000  Uiso   1.00
Zn1130 Zn    0.88438   0.83333   0.75000   0.00000  Uiso   1.00
O1131  O     0.79510   0.77226   0.75000   0.00000  Uiso   1.00
O1132  O     0.87154   0.77225   0.75000   0.00000  Uiso   1.00
O1133  O     0.81409   0.83335   0.67319   0.00000  Uiso   1.00
O1134  O     0.89053   0.83334   0.67319   0.00000  Uiso   1.00
C1135  C     0.83336   0.75351   0.75075   0.00000  Uiso   1.00
C1136  C     0.85952   0.83289   0.64779   0.00000  Uiso   1.00
C1137  C     0.87927   0.76008   0.53511   0.00000  Uiso   1.00
H1138  H     0.90789   0.76475   0.60015   0.00000  Uiso   1.00
H1139  H     0.89246   0.72870   0.52604   0.00000  Uiso   1.00
C1140  C     0.87333   0.82155   0.59044   0.00000  Uiso   1.00
C1141  C     0.77140   0.88322   0.92395   0.00000  Uiso   1.00
C1142  C     0.76084   0.89823   0.97670   0.00000  Uiso   1.00
C1143  C     0.77822   0.87675   0.51339   0.00000  Uiso   1.00
C1144  C     0.80436   0.83888   0.99610   0.00000  Uiso   1.00
C1145  C     0.80143   0.81900   0.94873   0.00000  Uiso   1.00
C1146  C     0.83401   0.82012   0.52226   0.00000  Uiso   1.00
C1147  C     0.84931   0.77820   0.50953   0.00000  Uiso   1.00
C1148  C     0.83260   0.75488   0.97356   0.00000  Uiso   1.00
C1149  C     0.80910   0.77558   0.94230   0.00000  Uiso   1.00
C1150  C     0.85015   0.84210   0.55952   0.00000  Uiso   1.00
C1151  C     0.89036   0.78133   0.57602   0.00000  Uiso   1.00
C1152  C     0.78996   0.84344   0.91012   0.00000  Uiso   1.00
H1153  H     0.84217   0.87453   0.56844   0.00000  Uiso   1.00
H1154  H     0.76475   0.90270   0.89356   0.00000  Uiso   1.00
C1155  C     0.86088   0.97816   0.77484   0.00000  Uiso   1.00
H1156  H     0.88045   0.96127   0.79594   0.00000  Uiso   1.00
C1157  C     0.86186   0.68745   0.77607   0.00000  Uiso   1.00
C1158  C     0.83460   0.70937   0.75028   0.00000  Uiso   1.00
C1159  C     0.81008   0.68880   0.72065   0.00000  Uiso   1.00
H1160  H     0.79337   0.70611   0.69657   0.00000  Uiso   1.00
C1161  C     0.81030   0.97933   0.71826   0.00000  Uiso   1.00
C1162  C     0.83481   0.95747   0.74711   0.00000  Uiso   1.00
C1163  C     0.98589   0.80826   0.71519   0.00000  Uiso   1.00
C1164  C     0.69971   0.80683   0.71692   0.00000  Uiso   1.00
N1165  N     0.71426   0.83334   0.75002   0.00000  Uiso   1.00
C1166  C     0.68091   0.85954   0.78366   0.00000  Uiso   1.00
C1167  C     0.96618   0.85849   0.78516   0.00000  Uiso   1.00
N1168  N     0.95239   0.83331   0.75001   0.00000  Uiso   1.00
I1169  I     0.90605   0.71393   0.81754   0.00000  Uiso   1.00
N1170  N     0.78887   0.95872   0.68340   0.00000  Uiso   1.00
O1171  O     0.81191   0.92947   0.65064   0.00000  Uiso   1.00
O1172  O     0.74969   0.97286   0.67882   0.00000  Uiso   1.00
N1173  N     0.97404   0.78429   0.67513   0.00000  Uiso   1.00
O1174  O     0.98681   0.79783   0.62512   0.00000  Uiso   1.00
O1175  O     0.96106   0.74562   0.68506   0.00000  Uiso   1.00
N1176  N     0.73061   0.77505   0.68656   0.00000  Uiso   1.00
O1177  O     0.75887   0.78304   0.63744   0.00000  Uiso   1.00
O1178  O     0.71902   0.73651   0.69987   0.00000  Uiso   1.00
I1179  I     0.70003   0.90279   0.83500   0.00000  Uiso   1.00
I1180  I     0.91615   0.89634   0.84493   0.00000  Uiso   1.00
I1181  I     0.83913   0.68819   0.97026   0.00000  Uiso   1.00
N1182  N     0.76605   0.89204   0.56820   0.00000  Uiso   1.00
O1183  O     0.74721   0.86726   0.60935   0.00000  Uiso   1.00
O1184  O     0.76880   0.93171   0.57691   0.00000  Uiso   1.00
N1185  N     0.73215   0.93499   0.99243   0.00000  Uiso   1.00
O1186  O     0.73638   0.96496   0.95743   0.00000  Uiso   1.00
O1187  O     0.69586   0.93507   0.53732   0.00000  Uiso   1.00
I1188  I     0.77211   0.74028   0.89890   0.00000  Uiso   1.00
loop_
_geom_bond_atom_site_label_1
_geom_bond_atom_site_label_2
_geom_bond_distance
_geom_bond_site_symmetry_2
_ccdc_geom_bond_type
O1     Zn7     1.997   .     S
O1     C3      1.295   .     A
O2     C3      1.293   .     A
O2     Zn8     2.000   .     S
C3     C40     1.422   .     S
O4     Zn7     1.941   .     S
O4     C6      1.300   .     A
O5     Zn8     1.902   .     S
O5     C6      1.304   .     A
C6     C30     1.454   .     S
Zn7    N43     2.037   .     S
Zn7    O11     1.902   .     S
Zn7    O9      2.000   .     S
Zn8    O12     1.941   .     S
Zn8    O10     1.997   .     S
Zn8    N46     2.037   .     S
O9     C13     1.302   .     A
O10    C13     1.284   .     A
O11    C14     1.299   .     A
O12    C14     1.306   .     A
C13    C36     1.418   .     S
C14    C18     1.452   .     S
C15    H17     1.080   .     S
C15    C29     1.391   .     A
C15    C25     1.410   .     A
H16    C29     1.084   .     S
C18    C29     1.394   .     A
C18    C28     1.392   .     A
C19    C20     1.385   .     A
C19    H32     1.078   .     S
C19    C30     1.393   .     A
C20    N63     1.438   .     S
C20    C615    1.411   .     S
C21    N60     1.432   .     S
C21    C614    1.411   1_554 S
C21    C616    1.436   1_554 S
C22    C23     1.412   .     A
C22    C615    1.436   .     S
C22    C618    1.422   .     S
C23    C27     1.414   .     A
C23    C30     1.405   .     A
C24    C25     1.426   .     A
C24    C28     1.405   .     A
C24    C616    1.422   1_554 S
C25    C620    1.410   1_554 S
C26    C27     1.408   .     A
C26    I59     2.150   .     S
C26    C619    1.410   .     S
C27    I66     2.144   .     S
C28    H31     1.076   .     S
C33    H34     1.075   .     S
C33    C40     1.392   .     A
C33    C233    1.369   .     S
C35    I47     2.138   .     S
C35    C36     1.408   .     A
C35    C429    1.369   1_545 S
C36    C37     1.392   .     A
C37    H38     1.078   .     S
C37    C435    1.376   1_545 S
C39    C40     1.402   .     A
C39    N48     1.432   .     S
C39    C235    1.376   .     S
C41    N46     1.367   .     A
C41    N51     1.428   .     S
C41    C108    1.428   .     S
C42    N54     1.427   .     S
C42    N43     1.377   .     A
C42    C173    1.428   1_455 S
N43    C44     1.374   .     A
C44    I57     2.128   .     S
C44    C177    1.427   1_455 S
C45    N46     1.379   .     A
C45    I58     2.141   .     S
C45    C110    1.427   .     S
N48    O50     1.301   .     A
N48    O49     1.300   .     A
N51    O52     1.301   .     A
N51    O53     1.300   .     A
N54    O56     1.300   .     A
N54    O55     1.299   .     A
N60    O61     1.300   .     A
N60    O62     1.300   .     A
N63    O64     1.302   .     A
N63    O659    1.302   .     S
O65    N657    1.302   1_554 S
O67    Zn73    1.997   .     S
O67    C69     1.295   .     A
O68    C69     1.293   .     A
O68    Zn74    2.000   .     S
C69    C106    1.422   .     S
O70    Zn73    1.941   .     S
O70    C72     1.300   .     A
O71    Zn74    1.902   .     S
O71    C72     1.304   .     A
C72    C96     1.454   .     S
Zn73   N109    2.037   .     S
Zn73   O77     1.902   .     S
Zn73   O75     2.000   .     S
Zn74   O78     1.941   .     S
Zn74   O76     1.997   .     S
Zn74   N112    2.037   .     S
O75    C79     1.302   .     A
O76    C79     1.284   .     A
O77    C80     1.299   .     A
O78    C80     1.306   .     A
C79    C102    1.418   .     S
C80    C84     1.452   .     S
C81    H83     1.080   .     S
C81    C95     1.391   .     A
C81    C91     1.410   .     A
H82    C95     1.084   .     S
C84    C95     1.394   .     A
C84    C94     1.392   .     A
C85    C86     1.385   .     A
C85    H98     1.078   .     S
C85    C96     1.393   .     A
C86    N129    1.438   .     S
C86    C681    1.411   .     S
C87    N126    1.432   .     S
C87    C680    1.411   1_554 S
C87    C682    1.436   1_554 S
C88    C89     1.412   .     A
C88    C681    1.436   .     S
C88    C684    1.422   .     S
C89    C93     1.414   .     A
C89    C96     1.405   .     A
C90    C91     1.426   .     A
C90    C94     1.405   .     A
C90    C682    1.422   1_554 S
C91    C686    1.410   1_554 S
C92    C93     1.408   .     A
C92    I125    2.150   .     S
C92    C685    1.410   .     S
C93    I132    2.144   .     S
C94    H97     1.076   .     S
C99    H100    1.075   .     S
C99    C106    1.392   .     A
C99    C299    1.369   .     S
C101   I113    2.138   .     S
C101   C102    1.408   .     A
C101   C495    1.369   1_545 S
C102   C103    1.392   .     A
C103   H104    1.078   .     S
C103   C501    1.376   1_545 S
C105   C106    1.402   .     A
C105   N114    1.432   .     S
C105   C301    1.376   .     S
C107   N112    1.367   .     A
C107   N117    1.428   .     S
C107   C174    1.428   .     S
C108   N120    1.427   .     S
C108   N109    1.377   .     A
N109   C110    1.374   .     A
C110   I123    2.128   .     S
C111   N112    1.379   .     A
C111   I124    2.141   .     S
C111   C176    1.427   .     S
N114   O116    1.301   .     A
N114   O115    1.300   .     A
N117   O118    1.301   .     A
N117   O119    1.300   .     A
N120   O122    1.300   .     A
N120   O121    1.299   .     A
N126   O127    1.300   .     A
N126   O128    1.300   .     A
N129   O130    1.302   .     A
N129   O725    1.302   .     S
O131   N723    1.302   1_554 S
O133   Zn139   1.997   .     S
O133   C135    1.295   .     A
O134   C135    1.293   .     A
O134   Zn140   2.000   .     S
C135   C172    1.422   .     S
O136   Zn139   1.941   .     S
O136   C138    1.300   .     A
O137   Zn140   1.902   .     S
O137   C138    1.304   .     A
C138   C162    1.454   .     S
Zn139  N175    2.037   .     S
Zn139  O143    1.902   .     S
Zn139  O141    2.000   .     S
Zn140  O144    1.941   .     S
Zn140  O142    1.997   .     S
Zn140  N178    2.037   .     S
O141   C145    1.302   .     A
O142   C145    1.284   .     A
O143   C146    1.299   .     A
O144   C146    1.306   .     A
C145   C168    1.418   .     S
C146   C150    1.452   .     S
C147   H149    1.080   .     S
C147   C161    1.391   .     A
C147   C157    1.410   .     A
H148   C161    1.084   .     S
C150   C161    1.394   .     A
C150   C160    1.392   .     A
C151   C152    1.385   .     A
C151   H164    1.078   .     S
C151   C162    1.393   .     A
C152   N195    1.438   .     S
C152   C747    1.411   .     S
C153   N192    1.432   .     S
C153   C746    1.411   1_554 S
C153   C748    1.436   1_554 S
C154   C155    1.412   .     A
C154   C747    1.436   .     S
C154   C750    1.422   .     S
C155   C159    1.414   .     A
C155   C162    1.405   .     A
C156   C157    1.426   .     A
C156   C160    1.405   .     A
C156   C748    1.422   1_554 S
C157   C752    1.410   1_554 S
C158   C159    1.408   .     A
C158   I191    2.150   .     S
C158   C751    1.410   .     S
C159   I198    2.144   .     S
C160   H163    1.076   .     S
C165   H166    1.075   .     S
C165   C172    1.392   .     A
C165   C365    1.369   .     S
C167   I179    2.138   .     S
C167   C168    1.408   .     A
C167   C561    1.369   1_545 S
C168   C169    1.392   .     A
C169   H170    1.078   .     S
C169   C567    1.376   1_545 S
C171   C172    1.402   .     A
C171   N180    1.432   .     S
C171   C367    1.376   .     S
C173   N178    1.367   .     A
C173   N183    1.428   .     S
C173   C42     1.428   1_655 S
C174   N186    1.427   .     S
C174   N175    1.377   .     A
N175   C176    1.374   .     A
C176   I189    2.128   .     S
C177   N178    1.379   .     A
C177   I190    2.141   .     S
C177   C44     1.427   1_655 S
N180   O182    1.301   .     A
N180   O181    1.300   .     A
N183   O184    1.301   .     A
N183   O185    1.300   .     A
N186   O188    1.300   .     A
N186   O187    1.299   .     A
N192   O193    1.300   .     A
N192   O194    1.300   .     A
N195   O196    1.302   .     A
N195   O791    1.302   .     S
O197   N789    1.302   1_554 S
O199   Zn205   1.997   .     S
O199   C201    1.295   .     A
O200   C201    1.293   .     A
O200   Zn206   2.000   .     S
C201   C238    1.422   .     S
O202   Zn205   1.941   .     S
O202   C204    1.300   .     A
O203   Zn206   1.902   .     S
O203   C204    1.304   .     A
C204   C228    1.454   .     S
Zn205  N241    2.037   .     S
Zn205  O209    1.902   .     S
Zn205  O207    2.000   .     S
Zn206  O210    1.941   .     S
Zn206  O208    1.997   .     S
Zn206  N244    2.037   .     S
O207   C211    1.302   .     A
O208   C211    1.284   .     A
O209   C212    1.299   .     A
O210   C212    1.306   .     A
C211   C234    1.418   .     S
C212   C216    1.452   .     S
C213   H215    1.080   .     S
C213   C227    1.391   .     A
C213   C223    1.410   .     A
H214   C227    1.084   .     S
C216   C227    1.394   .     A
C216   C226    1.392   .     A
C217   C218    1.385   .     A
C217   H230    1.078   .     S
C217   C228    1.393   .     A
C218   N261    1.438   .     S
C218   C813    1.411   .     S
C219   N258    1.432   .     S
C219   C812    1.411   1_554 S
C219   C814    1.436   1_554 S
C220   C221    1.412   .     A
C220   C813    1.436   .     S
C220   C816    1.422   .     S
C221   C225    1.414   .     A
C221   C228    1.405   .     A
C222   C223    1.426   .     A
C222   C226    1.405   .     A
C222   C814    1.422   1_554 S
C223   C818    1.410   1_554 S
C224   C225    1.408   .     A
C224   I257    2.150   .     S
C224   C817    1.410   .     S
C225   I264    2.144   .     S
C226   H229    1.076   .     S
C231   H232    1.075   .     S
C231   C238    1.392   .     A
C231   C431    1.369   .     S
C233   I245    2.138   .     S
C233   C234    1.408   .     A
C234   C235    1.392   .     A
C235   H236    1.078   .     S
C237   C238    1.402   .     A
C237   N246    1.432   .     S
C237   C433    1.376   .     S
C239   N244    1.367   .     A
C239   N249    1.428   .     S
C239   C306    1.428   .     S
C240   N252    1.427   .     S
C240   N241    1.377   .     A
C240   C371    1.428   1_455 S
N241   C242    1.374   .     A
C242   I255    2.128   .     S
C242   C375    1.427   1_455 S
C243   N244    1.379   .     A
C243   I256    2.141   .     S
C243   C308    1.427   .     S
N246   O248    1.301   .     A
N246   O247    1.300   .     A
N249   O250    1.301   .     A
N249   O251    1.300   .     A
N252   O254    1.300   .     A
N252   O253    1.299   .     A
N258   O259    1.300   .     A
N258   O260    1.300   .     A
N261   O262    1.302   .     A
N261   O857    1.302   .     S
O263   N855    1.302   1_554 S
O265   Zn271   1.997   .     S
O265   C267    1.295   .     A
O266   C267    1.293   .     A
O266   Zn272   2.000   .     S
C267   C304    1.422   .     S
O268   Zn271   1.941   .     S
O268   C270    1.300   .     A
O269   Zn272   1.902   .     S
O269   C270    1.304   .     A
C270   C294    1.454   .     S
Zn271  N307    2.037   .     S
Zn271  O275    1.902   .     S
Zn271  O273    2.000   .     S
Zn272  O276    1.941   .     S
Zn272  O274    1.997   .     S
Zn272  N310    2.037   .     S
O273   C277    1.302   .     A
O274   C277    1.284   .     A
O275   C278    1.299   .     A
O276   C278    1.306   .     A
C277   C300    1.418   .     S
C278   C282    1.452   .     S
C279   H281    1.080   .     S
C279   C293    1.391   .     A
C279   C289    1.410   .     A
H280   C293    1.084   .     S
C282   C293    1.394   .     A
C282   C292    1.392   .     A
C283   C284    1.385   .     A
C283   H296    1.078   .     S
C283   C294    1.393   .     A
C284   N327    1.438   .     S
C284   C879    1.411   .     S
C285   N324    1.432   .     S
C285   C878    1.411   1_554 S
C285   C880    1.436   1_554 S
C286   C287    1.412   .     A
C286   C879    1.436   .     S
C286   C882    1.422   .     S
C287   C291    1.414   .     A
C287   C294    1.405   .     A
C288   C289    1.426   .     A
C288   C292    1.405   .     A
C288   C880    1.422   1_554 S
C289   C884    1.410   1_554 S
C290   C291    1.408   .     A
C290   I323    2.150   .     S
C290   C883    1.410   .     S
C291   I330    2.144   .     S
C292   H295    1.076   .     S
C297   H298    1.075   .     S
C297   C304    1.392   .     A
C297   C497    1.369   .     S
C299   I311    2.138   .     S
C299   C300    1.408   .     A
C300   C301    1.392   .     A
C301   H302    1.078   .     S
C303   C304    1.402   .     A
C303   N312    1.432   .     S
C303   C499    1.376   .     S
C305   N310    1.367   .     A
C305   N315    1.428   .     S
C305   C372    1.428   .     S
C306   N318    1.427   .     S
C306   N307    1.377   .     A
N307   C308    1.374   .     A
C308   I321    2.128   .     S
C309   N310    1.379   .     A
C309   I322    2.141   .     S
C309   C374    1.427   .     S
N312   O314    1.301   .     A
N312   O313    1.300   .     A
N315   O316    1.301   .     A
N315   O317    1.300   .     A
N318   O320    1.300   .     A
N318   O319    1.299   .     A
N324   O325    1.300   .     A
N324   O326    1.300   .     A
N327   O328    1.302   .     A
N327   O923    1.302   .     S
O329   N921    1.302   1_554 S
O331   Zn337   1.997   .     S
O331   C333    1.295   .     A
O332   C333    1.293   .     A
O332   Zn338   2.000   .     S
C333   C370    1.422   .     S
O334   Zn337   1.941   .     S
O334   C336    1.300   .     A
O335   Zn338   1.902   .     S
O335   C336    1.304   .     A
C336   C360    1.454   .     S
Zn337  N373    2.037   .     S
Zn337  O341    1.902   .     S
Zn337  O339    2.000   .     S
Zn338  O342    1.941   .     S
Zn338  O340    1.997   .     S
Zn338  N376    2.037   .     S
O339   C343    1.302   .     A
O340   C343    1.284   .     A
O341   C344    1.299   .     A
O342   C344    1.306   .     A
C343   C366    1.418   .     S
C344   C348    1.452   .     S
C345   H347    1.080   .     S
C345   C359    1.391   .     A
C345   C355    1.410   .     A
H346   C359    1.084   .     S
C348   C359    1.394   .     A
C348   C358    1.392   .     A
C349   C350    1.385   .     A
C349   H362    1.078   .     S
C349   C360    1.393   .     A
C350   N393    1.438   .     S
C350   C945    1.411   .     S
C351   N390    1.432   .     S
C351   C944    1.411   1_554 S
C351   C946    1.436   1_554 S
C352   C353    1.412   .     A
C352   C945    1.436   .     S
C352   C948    1.422   .     S
C353   C357    1.414   .     A
C353   C360    1.405   .     A
C354   C355    1.426   .     A
C354   C358    1.405   .     A
C354   C946    1.422   1_554 S
C355   C950    1.410   1_554 S
C356   C357    1.408   .     A
C356   I389    2.150   .     S
C356   C949    1.410   .     S
C357   I396    2.144   .     S
C358   H361    1.076   .     S
C363   H364    1.075   .     S
C363   C370    1.392   .     A
C363   C563    1.369   .     S
C365   I377    2.138   .     S
C365   C366    1.408   .     A
C366   C367    1.392   .     A
C367   H368    1.078   .     S
C369   C370    1.402   .     A
C369   N378    1.432   .     S
C369   C565    1.376   .     S
C371   N376    1.367   .     A
C371   N381    1.428   .     S
C371   C240    1.428   1_655 S
C372   N384    1.427   .     S
C372   N373    1.377   .     A
N373   C374    1.374   .     A
C374   I387    2.128   .     S
C375   N376    1.379   .     A
C375   I388    2.141   .     S
C375   C242    1.427   1_655 S
N378   O380    1.301   .     A
N378   O379    1.300   .     A
N381   O382    1.301   .     A
N381   O383    1.300   .     A
N384   O386    1.300   .     A
N384   O385    1.299   .     A
N390   O391    1.300   .     A
N390   O392    1.300   .     A
N393   O394    1.302   .     A
N393   O989    1.302   .     S
O395   N987    1.302   1_554 S
O397   Zn403   1.997   .     S
O397   C399    1.295   .     A
O398   C399    1.293   .     A
O398   Zn404   2.000   .     S
C399   C436    1.422   .     S
O400   Zn403   1.941   .     S
O400   C402    1.300   .     A
O401   Zn404   1.902   .     S
O401   C402    1.304   .     A
C402   C426    1.454   .     S
Zn403  N439    2.037   .     S
Zn403  O407    1.902   .     S
Zn403  O405    2.000   .     S
Zn404  O408    1.941   .     S
Zn404  O406    1.997   .     S
Zn404  N442    2.037   .     S
O405   C409    1.302   .     A
O406   C409    1.284   .     A
O407   C410    1.299   .     A
O408   C410    1.306   .     A
C409   C432    1.418   .     S
C410   C414    1.452   .     S
C411   H413    1.080   .     S
C411   C425    1.391   .     A
C411   C421    1.410   .     A
H412   C425    1.084   .     S
C414   C425    1.394   .     A
C414   C424    1.392   .     A
C415   C416    1.385   .     A
C415   H428    1.078   .     S
C415   C426    1.393   .     A
C416   N459    1.438   .     S
C416   C1011   1.411   .     S
C417   N456    1.432   .     S
C417   C1010   1.411   1_554 S
C417   C1012   1.436   1_554 S
C418   C419    1.412   .     A
C418   C1011   1.436   .     S
C418   C1014   1.422   .     S
C419   C423    1.414   .     A
C419   C426    1.405   .     A
C420   C421    1.426   .     A
C420   C424    1.405   .     A
C420   C1012   1.422   1_554 S
C421   C1016   1.410   1_554 S
C422   C423    1.408   .     A
C422   I455    2.150   .     S
C422   C1015   1.410   .     S
C423   I462    2.144   .     S
C424   H427    1.076   .     S
C429   H430    1.075   .     S
C429   C436    1.392   .     A
C429   C35     1.369   1_565 S
C431   I443    2.138   .     S
C431   C432    1.408   .     A
C432   C433    1.392   .     A
C433   H434    1.078   .     S
C435   C436    1.402   .     A
C435   N444    1.432   .     S
C435   C37     1.376   1_565 S
C437   N442    1.367   .     A
C437   N447    1.428   .     S
C437   C504    1.428   .     S
C438   N450    1.427   .     S
C438   N439    1.377   .     A
C438   C569    1.428   1_455 S
N439   C440    1.374   .     A
C440   I453    2.128   .     S
C440   C573    1.427   1_455 S
C441   N442    1.379   .     A
C441   I454    2.141   .     S
C441   C506    1.427   .     S
N444   O446    1.301   .     A
N444   O445    1.300   .     A
N447   O448    1.301   .     A
N447   O449    1.300   .     A
N450   O452    1.300   .     A
N450   O451    1.299   .     A
N456   O457    1.300   .     A
N456   O458    1.300   .     A
N459   O460    1.302   .     A
N459   O1055   1.302   .     S
O461   N1053   1.302   1_554 S
O463   Zn469   1.997   .     S
O463   C465    1.295   .     A
O464   C465    1.293   .     A
O464   Zn470   2.000   .     S
C465   C502    1.422   .     S
O466   Zn469   1.941   .     S
O466   C468    1.300   .     A
O467   Zn470   1.902   .     S
O467   C468    1.304   .     A
C468   C492    1.454   .     S
Zn469  N505    2.037   .     S
Zn469  O473    1.902   .     S
Zn469  O471    2.000   .     S
Zn470  O474    1.941   .     S
Zn470  O472    1.997   .     S
Zn470  N508    2.037   .     S
O471   C475    1.302   .     A
O472   C475    1.284   .     A
O473   C476    1.299   .     A
O474   C476    1.306   .     A
C475   C498    1.418   .     S
C476   C480    1.452   .     S
C477   H479    1.080   .     S
C477   C491    1.391   .     A
C477   C487    1.410   .     A
H478   C491    1.084   .     S
C480   C491    1.394   .     A
C480   C490    1.392   .     A
C481   C482    1.385   .     A
C481   H494    1.078   .     S
C481   C492    1.393   .     A
C482   N525    1.438   .     S
C482   C1077   1.411   .     S
C483   N522    1.432   .     S
C483   C1076   1.411   1_554 S
C483   C1078   1.436   1_554 S
C484   C485    1.412   .     A
C484   C1077   1.436   .     S
C484   C1080   1.422   .     S
C485   C489    1.414   .     A
C485   C492    1.405   .     A
C486   C487    1.426   .     A
C486   C490    1.405   .     A
C486   C1078   1.422   1_554 S
C487   C1082   1.410   1_554 S
C488   C489    1.408   .     A
C488   I521    2.150   .     S
C488   C1081   1.410   .     S
C489   I528    2.144   .     S
C490   H493    1.076   .     S
C495   H496    1.075   .     S
C495   C502    1.392   .     A
C495   C101    1.369   1_565 S
C497   I509    2.138   .     S
C497   C498    1.408   .     A
C498   C499    1.392   .     A
C499   H500    1.078   .     S
C501   C502    1.402   .     A
C501   N510    1.432   .     S
C501   C103    1.376   1_565 S
C503   N508    1.367   .     A
C503   N513    1.428   .     S
C503   C570    1.428   .     S
C504   N516    1.427   .     S
C504   N505    1.377   .     A
N505   C506    1.374   .     A
C506   I519    2.128   .     S
C507   N508    1.379   .     A
C507   I520    2.141   .     S
C507   C572    1.427   .     S
N510   O512    1.301   .     A
N510   O511    1.300   .     A
N513   O514    1.301   .     A
N513   O515    1.300   .     A
N516   O518    1.300   .     A
N516   O517    1.299   .     A
N522   O523    1.300   .     A
N522   O524    1.300   .     A
N525   O526    1.302   .     A
N525   O1121   1.302   .     S
O527   N1119   1.302   1_554 S
O529   Zn535   1.997   .     S
O529   C531    1.295   .     A
O530   C531    1.293   .     A
O530   Zn536   2.000   .     S
C531   C568    1.422   .     S
O532   Zn535   1.941   .     S
O532   C534    1.300   .     A
O533   Zn536   1.902   .     S
O533   C534    1.304   .     A
C534   C558    1.454   .     S
Zn535  N571    2.037   .     S
Zn535  O539    1.902   .     S
Zn535  O537    2.000   .     S
Zn536  O540    1.941   .     S
Zn536  O538    1.997   .     S
Zn536  N574    2.037   .     S
O537   C541    1.302   .     A
O538   C541    1.284   .     A
O539   C542    1.299   .     A
O540   C542    1.306   .     A
C541   C564    1.418   .     S
C542   C546    1.452   .     S
C543   H545    1.080   .     S
C543   C557    1.391   .     A
C543   C553    1.410   .     A
H544   C557    1.084   .     S
C546   C557    1.394   .     A
C546   C556    1.392   .     A
C547   C548    1.385   .     A
C547   H560    1.078   .     S
C547   C558    1.393   .     A
C548   N591    1.438   .     S
C548   C1143   1.411   .     S
C549   N588    1.432   .     S
C549   C1142   1.411   1_554 S
C549   C1144   1.436   1_554 S
C550   C551    1.412   .     A
C550   C1143   1.436   .     S
C550   C1146   1.422   .     S
C551   C555    1.414   .     A
C551   C558    1.405   .     A
C552   C553    1.426   .     A
C552   C556    1.405   .     A
C552   C1144   1.422   1_554 S
C553   C1148   1.410   1_554 S
C554   C555    1.408   .     A
C554   I587    2.150   .     S
C554   C1147   1.410   .     S
C555   I594    2.144   .     S
C556   H559    1.076   .     S
C561   H562    1.075   .     S
C561   C568    1.392   .     A
C561   C167    1.369   1_565 S
C563   I575    2.138   .     S
C563   C564    1.408   .     A
C564   C565    1.392   .     A
C565   H566    1.078   .     S
C567   C568    1.402   .     A
C567   N576    1.432   .     S
C567   C169    1.376   1_565 S
C569   N574    1.367   .     A
C569   N579    1.428   .     S
C569   C438    1.428   1_655 S
C570   N582    1.427   .     S
C570   N571    1.377   .     A
N571   C572    1.374   .     A
C572   I585    2.128   .     S
C573   N574    1.379   .     A
C573   I586    2.141   .     S
C573   C440    1.427   1_655 S
N576   O578    1.301   .     A
N576   O577    1.300   .     A
N579   O580    1.301   .     A
N579   O581    1.300   .     A
N582   O584    1.300   .     A
N582   O583    1.299   .     A
N588   O589    1.300   .     A
N588   O590    1.300   .     A
N591   O592    1.302   .     A
N591   O1187   1.302   .     S
O593   N1185   1.302   1_554 S
O595   Zn601   1.997   .     S
O595   C597    1.295   .     A
O596   C597    1.293   .     A
O596   Zn602   2.000   .     S
C597   C634    1.422   .     S
O598   Zn601   1.941   .     S
O598   C600    1.300   .     A
O599   Zn602   1.902   .     S
O599   C600    1.304   .     A
C600   C624    1.454   .     S
Zn601  N637    2.037   .     S
Zn601  O605    1.902   .     S
Zn601  O603    2.000   .     S
Zn602  O606    1.941   .     S
Zn602  O604    1.997   .     S
Zn602  N640    2.037   .     S
O603   C607    1.302   .     A
O604   C607    1.284   .     A
O605   C608    1.299   .     A
O606   C608    1.306   .     A
C607   C630    1.418   .     S
C608   C612    1.452   .     S
C609   H611    1.080   .     S
C609   C623    1.391   .     A
C609   C619    1.410   .     A
H610   C623    1.084   .     S
C612   C623    1.394   .     A
C612   C622    1.392   .     A
C613   C614    1.385   .     A
C613   H626    1.078   .     S
C613   C624    1.393   .     A
C614   N657    1.438   .     S
C614   C21     1.411   1_556 S
C615   N654    1.432   .     S
C616   C617    1.412   .     A
C616   C21     1.436   1_556 S
C616   C24     1.422   1_556 S
C617   C621    1.414   .     A
C617   C624    1.405   .     A
C618   C619    1.426   .     A
C618   C622    1.405   .     A
C620   C621    1.408   .     A
C620   I653    2.150   .     S
C620   C25     1.410   1_556 S
C621   I660    2.144   .     S
C622   H625    1.076   .     S
C627   H628    1.075   .     S
C627   C634    1.392   .     A
C627   C827    1.369   .     S
C629   I641    2.138   .     S
C629   C630    1.408   .     A
C629   C1023   1.369   1_545 S
C630   C631    1.392   .     A
C631   H632    1.078   .     S
C631   C1029   1.376   1_545 S
C633   C634    1.402   .     A
C633   N642    1.432   .     S
C633   C829    1.376   .     S
C635   N640    1.367   .     A
C635   N645    1.428   .     S
C635   C702    1.428   .     S
C636   N648    1.427   .     S
C636   N637    1.377   .     A
C636   C767    1.428   1_455 S
N637   C638    1.374   .     A
C638   I651    2.128   .     S
C638   C771    1.427   1_455 S
C639   N640    1.379   .     A
C639   I652    2.141   .     S
C639   C704    1.427   .     S
N642   O644    1.301   .     A
N642   O643    1.300   .     A
N645   O646    1.301   .     A
N645   O647    1.300   .     A
N648   O650    1.300   .     A
N648   O649    1.299   .     A
N654   O655    1.300   .     A
N654   O656    1.300   .     A
N657   O658    1.302   .     A
N657   O65     1.302   1_556 S
O661   Zn667   1.997   .     S
O661   C663    1.295   .     A
O662   C663    1.293   .     A
O662   Zn668   2.000   .     S
C663   C700    1.422   .     S
O664   Zn667   1.941   .     S
O664   C666    1.300   .     A
O665   Zn668   1.902   .     S
O665   C666    1.304   .     A
C666   C690    1.454   .     S
Zn667  N703    2.037   .     S
Zn667  O671    1.902   .     S
Zn667  O669    2.000   .     S
Zn668  O672    1.941   .     S
Zn668  O670    1.997   .     S
Zn668  N706    2.037   .     S
O669   C673    1.302   .     A
O670   C673    1.284   .     A
O671   C674    1.299   .     A
O672   C674    1.306   .     A
C673   C696    1.418   .     S
C674   C678    1.452   .     S
C675   H677    1.080   .     S
C675   C689    1.391   .     A
C675   C685    1.410   .     A
H676   C689    1.084   .     S
C678   C689    1.394   .     A
C678   C688    1.392   .     A
C679   C680    1.385   .     A
C679   H692    1.078   .     S
C679   C690    1.393   .     A
C680   N723    1.438   .     S
C680   C87     1.411   1_556 S
C681   N720    1.432   .     S
C682   C683    1.412   .     A
C682   C87     1.436   1_556 S
C682   C90     1.422   1_556 S
C683   C687    1.414   .     A
C683   C690    1.405   .     A
C684   C685    1.426   .     A
C684   C688    1.405   .     A
C686   C687    1.408   .     A
C686   I719    2.150   .     S
C686   C91     1.410   1_556 S
C687   I726    2.144   .     S
C688   H691    1.076   .     S
C693   H694    1.075   .     S
C693   C700    1.392   .     A
C693   C893    1.369   .     S
C695   I707    2.138   .     S
C695   C696    1.408   .     A
C695   C1089   1.369   1_545 S
C696   C697    1.392   .     A
C697   H698    1.078   .     S
C697   C1095   1.376   1_545 S
C699   C700    1.402   .     A
C699   N708    1.432   .     S
C699   C895    1.376   .     S
C701   N706    1.367   .     A
C701   N711    1.428   .     S
C701   C768    1.428   .     S
C702   N714    1.427   .     S
C702   N703    1.377   .     A
N703   C704    1.374   .     A
C704   I717    2.128   .     S
C705   N706    1.379   .     A
C705   I718    2.141   .     S
C705   C770    1.427   .     S
N708   O710    1.301   .     A
N708   O709    1.300   .     A
N711   O712    1.301   .     A
N711   O713    1.300   .     A
N714   O716    1.300   .     A
N714   O715    1.299   .     A
N720   O721    1.300   .     A
N720   O722    1.300   .     A
N723   O724    1.302   .     A
N723   O131    1.302   1_556 S
O727   Zn733   1.997   .     S
O727   C729    1.295   .     A
O728   C729    1.293   .     A
O728   Zn734   2.000   .     S
C729   C766    1.422   .     S
O730   Zn733   1.941   .     S
O730   C732    1.300   .     A
O731   Zn734   1.902   .     S
O731   C732    1.304   .     A
C732   C756    1.454   .     S
Zn733  N769    2.037   .     S
Zn733  O737    1.902   .     S
Zn733  O735    2.000   .     S
Zn734  O738    1.941   .     S
Zn734  O736    1.997   .     S
Zn734  N772    2.037   .     S
O735   C739    1.302   .     A
O736   C739    1.284   .     A
O737   C740    1.299   .     A
O738   C740    1.306   .     A
C739   C762    1.418   .     S
C740   C744    1.452   .     S
C741   H743    1.080   .     S
C741   C755    1.391   .     A
C741   C751    1.410   .     A
H742   C755    1.084   .     S
C744   C755    1.394   .     A
C744   C754    1.392   .     A
C745   C746    1.385   .     A
C745   H758    1.078   .     S
C745   C756    1.393   .     A
C746   N789    1.438   .     S
C746   C153    1.411   1_556 S
C747   N786    1.432   .     S
C748   C749    1.412   .     A
C748   C153    1.436   1_556 S
C748   C156    1.422   1_556 S
C749   C753    1.414   .     A
C749   C756    1.405   .     A
C750   C751    1.426   .     A
C750   C754    1.405   .     A
C752   C753    1.408   .     A
C752   I785    2.150   .     S
C752   C157    1.410   1_556 S
C753   I792    2.144   .     S
C754   H757    1.076   .     S
C759   H760    1.075   .     S
C759   C766    1.392   .     A
C759   C959    1.369   .     S
C761   I773    2.138   .     S
C761   C762    1.408   .     A
C761   C1155   1.369   1_545 S
C762   C763    1.392   .     A
C763   H764    1.078   .     S
C763   C1161   1.376   1_545 S
C765   C766    1.402   .     A
C765   N774    1.432   .     S
C765   C961    1.376   .     S
C767   N772    1.367   .     A
C767   N777    1.428   .     S
C767   C636    1.428   1_655 S
C768   N780    1.427   .     S
C768   N769    1.377   .     A
N769   C770    1.374   .     A
C770   I783    2.128   .     S
C771   N772    1.379   .     A
C771   I784    2.141   .     S
C771   C638    1.427   1_655 S
N774   O776    1.301   .     A
N774   O775    1.300   .     A
N777   O778    1.301   .     A
N777   O779    1.300   .     A
N780   O782    1.300   .     A
N780   O781    1.299   .     A
N786   O787    1.300   .     A
N786   O788    1.300   .     A
N789   O790    1.302   .     A
N789   O197    1.302   1_556 S
O793   Zn799   1.997   .     S
O793   C795    1.295   .     A
O794   C795    1.293   .     A
O794   Zn800   2.000   .     S
C795   C832    1.422   .     S
O796   Zn799   1.941   .     S
O796   C798    1.300   .     A
O797   Zn800   1.902   .     S
O797   C798    1.304   .     A
C798   C822    1.454   .     S
Zn799  N835    2.037   .     S
Zn799  O803    1.902   .     S
Zn799  O801    2.000   .     S
Zn800  O804    1.941   .     S
Zn800  O802    1.997   .     S
Zn800  N838    2.037   .     S
O801   C805    1.302   .     A
O802   C805    1.284   .     A
O803   C806    1.299   .     A
O804   C806    1.306   .     A
C805   C828    1.418   .     S
C806   C810    1.452   .     S
C807   H809    1.080   .     S
C807   C821    1.391   .     A
C807   C817    1.410   .     A
H808   C821    1.084   .     S
C810   C821    1.394   .     A
C810   C820    1.392   .     A
C811   C812    1.385   .     A
C811   H824    1.078   .     S
C811   C822    1.393   .     A
C812   N855    1.438   .     S
C812   C219    1.411   1_556 S
C813   N852    1.432   .     S
C814   C815    1.412   .     A
C814   C219    1.436   1_556 S
C814   C222    1.422   1_556 S
C815   C819    1.414   .     A
C815   C822    1.405   .     A
C816   C817    1.426   .     A
C816   C820    1.405   .     A
C818   C819    1.408   .     A
C818   I851    2.150   .     S
C818   C223    1.410   1_556 S
C819   I858    2.144   .     S
C820   H823    1.076   .     S
C825   H826    1.075   .     S
C825   C832    1.392   .     A
C825   C1025   1.369   .     S
C827   I839    2.138   .     S
C827   C828    1.408   .     A
C828   C829    1.392   .     A
C829   H830    1.078   .     S
C831   C832    1.402   .     A
C831   N840    1.432   .     S
C831   C1027   1.376   .     S
C833   N838    1.367   .     A
C833   N843    1.428   .     S
C833   C900    1.428   .     S
C834   N846    1.427   .     S
C834   N835    1.377   .     A
C834   C965    1.428   1_455 S
N835   C836    1.374   .     A
C836   I849    2.128   .     S
C836   C969    1.427   1_455 S
C837   N838    1.379   .     A
C837   I850    2.141   .     S
C837   C902    1.427   .     S
N840   O842    1.301   .     A
N840   O841    1.300   .     A
N843   O844    1.301   .     A
N843   O845    1.300   .     A
N846   O848    1.300   .     A
N846   O847    1.299   .     A
N852   O853    1.300   .     A
N852   O854    1.300   .     A
N855   O856    1.302   .     A
N855   O263    1.302   1_556 S
O859   Zn865   1.997   .     S
O859   C861    1.295   .     A
O860   C861    1.293   .     A
O860   Zn866   2.000   .     S
C861   C898    1.422   .     S
O862   Zn865   1.941   .     S
O862   C864    1.300   .     A
O863   Zn866   1.902   .     S
O863   C864    1.304   .     A
C864   C888    1.454   .     S
Zn865  N901    2.037   .     S
Zn865  O869    1.902   .     S
Zn865  O867    2.000   .     S
Zn866  O870    1.941   .     S
Zn866  O868    1.997   .     S
Zn866  N904    2.037   .     S
O867   C871    1.302   .     A
O868   C871    1.284   .     A
O869   C872    1.299   .     A
O870   C872    1.306   .     A
C871   C894    1.418   .     S
C872   C876    1.452   .     S
C873   H875    1.080   .     S
C873   C887    1.391   .     A
C873   C883    1.410   .     A
H874   C887    1.084   .     S
C876   C887    1.394   .     A
C876   C886    1.392   .     A
C877   C878    1.385   .     A
C877   H890    1.078   .     S
C877   C888    1.393   .     A
C878   N921    1.438   .     S
C878   C285    1.411   1_556 S
C879   N918    1.432   .     S
C880   C881    1.412   .     A
C880   C285    1.436   1_556 S
C880   C288    1.422   1_556 S
C881   C885    1.414   .     A
C881   C888    1.405   .     A
C882   C883    1.426   .     A
C882   C886    1.405   .     A
C884   C885    1.408   .     A
C884   I917    2.150   .     S
C884   C289    1.410   1_556 S
C885   I924    2.144   .     S
C886   H889    1.076   .     S
C891   H892    1.075   .     S
C891   C898    1.392   .     A
C891   C1091   1.369   .     S
C893   I905    2.138   .     S
C893   C894    1.408   .     A
C894   C895    1.392   .     A
C895   H896    1.078   .     S
C897   C898    1.402   .     A
C897   N906    1.432   .     S
C897   C1093   1.376   .     S
C899   N904    1.367   .     A
C899   N909    1.428   .     S
C899   C966    1.428   .     S
C900   N912    1.427   .     S
C900   N901    1.377   .     A
N901   C902    1.374   .     A
C902   I915    2.128   .     S
C903   N904    1.379   .     A
C903   I916    2.141   .     S
C903   C968    1.427   .     S
N906   O908    1.301   .     A
N906   O907    1.300   .     A
N909   O910    1.301   .     A
N909   O911    1.300   .     A
N912   O914    1.300   .     A
N912   O913    1.299   .     A
N918   O919    1.300   .     A
N918   O920    1.300   .     A
N921   O922    1.302   .     A
N921   O329    1.302   1_556 S
O925   Zn931   1.997   .     S
O925   C927    1.295   .     A
O926   C927    1.293   .     A
O926   Zn932   2.000   .     S
C927   C964    1.422   .     S
O928   Zn931   1.941   .     S
O928   C930    1.300   .     A
O929   Zn932   1.902   .     S
O929   C930    1.304   .     A
C930   C954    1.454   .     S
Zn931  N967    2.037   .     S
Zn931  O935    1.902   .     S
Zn931  O933    2.000   .     S
Zn932  O936    1.941   .     S
Zn932  O934    1.997   .     S
Zn932  N970    2.037   .     S
O933   C937    1.302   .     A
O934   C937    1.284   .     A
O935   C938    1.299   .     A
O936   C938    1.306   .     A
C937   C960    1.418   .     S
C938   C942    1.452   .     S
C939   H941    1.080   .     S
C939   C953    1.391   .     A
C939   C949    1.410   .     A
H940   C953    1.084   .     S
C942   C953    1.394   .     A
C942   C952    1.392   .     A
C943   C944    1.385   .     A
C943   H956    1.078   .     S
C943   C954    1.393   .     A
C944   N987    1.438   .     S
C944   C351    1.411   1_556 S
C945   N984    1.432   .     S
C946   C947    1.412   .     A
C946   C351    1.436   1_556 S
C946   C354    1.422   1_556 S
C947   C951    1.414   .     A
C947   C954    1.405   .     A
C948   C949    1.426   .     A
C948   C952    1.405   .     A
C950   C951    1.408   .     A
C950   I983    2.150   .     S
C950   C355    1.410   1_556 S
C951   I990    2.144   .     S
C952   H955    1.076   .     S
C957   H958    1.075   .     S
C957   C964    1.392   .     A
C957   C1157   1.369   .     S
C959   I971    2.138   .     S
C959   C960    1.408   .     A
C960   C961    1.392   .     A
C961   H962    1.078   .     S
C963   C964    1.402   .     A
C963   N972    1.432   .     S
C963   C1159   1.376   .     S
C965   N970    1.367   .     A
C965   N975    1.428   .     S
C965   C834    1.428   1_655 S
C966   N978    1.427   .     S
C966   N967    1.377   .     A
N967   C968    1.374   .     A
C968   I981    2.128   .     S
C969   N970    1.379   .     A
C969   I982    2.141   .     S
C969   C836    1.427   1_655 S
N972   O974    1.301   .     A
N972   O973    1.300   .     A
N975   O976    1.301   .     A
N975   O977    1.300   .     A
N978   O980    1.300   .     A
N978   O979    1.299   .     A
N984   O985    1.300   .     A
N984   O986    1.300   .     A
N987   O988    1.302   .     A
N987   O395    1.302   1_556 S
O991   Zn997   1.997   .     S
O991   C993    1.295   .     A
O992   C993    1.293   .     A
O992   Zn998   2.000   .     S
C993   C1030   1.422   .     S
O994   Zn997   1.941   .     S
O994   C996    1.300   .     A
O995   Zn998   1.902   .     S
O995   C996    1.304   .     A
C996   C1020   1.454   .     S
Zn997  N1033   2.037   .     S
Zn997  O1001   1.902   .     S
Zn997  O999    2.000   .     S
Zn998  O1002   1.941   .     S
Zn998  O1000   1.997   .     S
Zn998  N1036   2.037   .     S
O999   C1003   1.302   .     A
O1000  C1003   1.284   .     A
O1001  C1004   1.299   .     A
O1002  C1004   1.306   .     A
C1003  C1026   1.418   .     S
C1004  C1008   1.452   .     S
C1005  H1007   1.080   .     S
C1005  C1019   1.391   .     A
C1005  C1015   1.410   .     A
H1006  C1019   1.084   .     S
C1008  C1019   1.394   .     A
C1008  C1018   1.392   .     A
C1009  C1010   1.385   .     A
C1009  H1022   1.078   .     S
C1009  C1020   1.393   .     A
C1010  N1053   1.438   .     S
C1010  C417    1.411   1_556 S
C1011  N1050   1.432   .     S
C1012  C1013   1.412   .     A
C1012  C417    1.436   1_556 S
C1012  C420    1.422   1_556 S
C1013  C1017   1.414   .     A
C1013  C1020   1.405   .     A
C1014  C1015   1.426   .     A
C1014  C1018   1.405   .     A
C1016  C1017   1.408   .     A
C1016  I1049   2.150   .     S
C1016  C421    1.410   1_556 S
C1017  I1056   2.144   .     S
C1018  H1021   1.076   .     S
C1023  H1024   1.075   .     S
C1023  C1030   1.392   .     A
C1023  C629    1.369   1_565 S
C1025  I1037   2.138   .     S
C1025  C1026   1.408   .     A
C1026  C1027   1.392   .     A
C1027  H1028   1.078   .     S
C1029  C1030   1.402   .     A
C1029  N1038   1.432   .     S
C1029  C631    1.376   1_565 S
C1031  N1036   1.367   .     A
C1031  N1041   1.428   .     S
C1031  C1098   1.428   .     S
C1032  N1044   1.427   .     S
C1032  N1033   1.377   .     A
C1032  C1163   1.428   1_455 S
N1033  C1034   1.374   .     A
C1034  I1047   2.128   .     S
C1034  C1167   1.427   1_455 S
C1035  N1036   1.379   .     A
C1035  I1048   2.141   .     S
C1035  C1100   1.427   .     S
N1038  O1040   1.301   .     A
N1038  O1039   1.300   .     A
N1041  O1042   1.301   .     A
N1041  O1043   1.300   .     A
N1044  O1046   1.300   .     A
N1044  O1045   1.299   .     A
N1050  O1051   1.300   .     A
N1050  O1052   1.300   .     A
N1053  O1054   1.302   .     A
N1053  O461    1.302   1_556 S
O1057  Zn1063  1.997   .     S
O1057  C1059   1.295   .     A
O1058  C1059   1.293   .     A
O1058  Zn1064  2.000   .     S
C1059  C1096   1.422   .     S
O1060  Zn1063  1.941   .     S
O1060  C1062   1.300   .     A
O1061  Zn1064  1.902   .     S
O1061  C1062   1.304   .     A
C1062  C1086   1.454   .     S
Zn1063 N1099   2.037   .     S
Zn1063 O1067   1.902   .     S
Zn1063 O1065   2.000   .     S
Zn1064 O1068   1.941   .     S
Zn1064 O1066   1.997   .     S
Zn1064 N1102   2.037   .     S
O1065  C1069   1.302   .     A
O1066  C1069   1.284   .     A
O1067  C1070   1.299   .     A
O1068  C1070   1.306   .     A
C1069  C1092   1.418   .     S
C1070  C1074   1.452   .     S
C1071  H1073   1.080   .     S
C1071  C1085   1.391   .     A
C1071  C1081   1.410   .     A
H1072  C1085   1.084   .     S
C1074  C1085   1.394   .     A
C1074  C1084   1.392   .     A
C1075  C1076   1.385   .     A
C1075  H1088   1.078   .     S
C1075  C1086   1.393   .     A
C1076  N1119   1.438   .     S
C1076  C483    1.411   1_556 S
C1077  N1116   1.432   .     S
C1078  C1079   1.412   .     A
C1078  C483    1.436   1_556 S
C1078  C486    1.422   1_556 S
C1079  C1083   1.414   .     A
C1079  C1086   1.405   .     A
C1080  C1081   1.426   .     A
C1080  C1084   1.405   .     A
C1082  C1083   1.408   .     A
C1082  I1115   2.150   .     S
C1082  C487    1.410   1_556 S
C1083  I1122   2.144   .     S
C1084  H1087   1.076   .     S
C1089  H1090   1.075   .     S
C1089  C1096   1.392   .     A
C1089  C695    1.369   1_565 S
C1091  I1103   2.138   .     S
C1091  C1092   1.408   .     A
C1092  C1093   1.392   .     A
C1093  H1094   1.078   .     S
C1095  C1096   1.402   .     A
C1095  N1104   1.432   .     S
C1095  C697    1.376   1_565 S
C1097  N1102   1.367   .     A
C1097  N1107   1.428   .     S
C1097  C1164   1.428   .     S
C1098  N1110   1.427   .     S
C1098  N1099   1.377   .     A
N1099  C1100   1.374   .     A
C1100  I1113   2.128   .     S
C1101  N1102   1.379   .     A
C1101  I1114   2.141   .     S
C1101  C1166   1.427   .     S
N1104  O1106   1.301   .     A
N1104  O1105   1.300   .     A
N1107  O1108   1.301   .     A
N1107  O1109   1.300   .     A
N1110  O1112   1.300   .     A
N1110  O1111   1.299   .     A
N1116  O1117   1.300   .     A
N1116  O1118   1.300   .     A
N1119  O1120   1.302   .     A
N1119  O527    1.302   1_556 S
O1123  Zn1129  1.997   .     S
O1123  C1125   1.295   .     A
O1124  C1125   1.293   .     A
O1124  Zn1130  2.000   .     S
C1125  C1162   1.422   .     S
O1126  Zn1129  1.941   .     S
O1126  C1128   1.300   .     A
O1127  Zn1130  1.902   .     S
O1127  C1128   1.304   .     A
C1128  C1152   1.454   .     S
Zn1129 N1165   2.037   .     S
Zn1129 O1133   1.902   .     S
Zn1129 O1131   2.000   .     S
Zn1130 O1134   1.941   .     S
Zn1130 O1132   1.997   .     S
Zn1130 N1168   2.037   .     S
O1131  C1135   1.302   .     A
O1132  C1135   1.284   .     A
O1133  C1136   1.299   .     A
O1134  C1136   1.306   .     A
C1135  C1158   1.418   .     S
C1136  C1140   1.452   .     S
C1137  H1139   1.080   .     S
C1137  C1151   1.391   .     A
C1137  C1147   1.410   .     A
H1138  C1151   1.084   .     S
C1140  C1151   1.394   .     A
C1140  C1150   1.392   .     A
C1141  C1142   1.385   .     A
C1141  H1154   1.078   .     S
C1141  C1152   1.393   .     A
C1142  N1185   1.438   .     S
C1142  C549    1.411   1_556 S
C1143  N1182   1.432   .     S
C1144  C1145   1.412   .     A
C1144  C549    1.436   1_556 S
C1144  C552    1.422   1_556 S
C1145  C1149   1.414   .     A
C1145  C1152   1.405   .     A
C1146  C1147   1.426   .     A
C1146  C1150   1.405   .     A
C1148  C1149   1.408   .     A
C1148  I1181   2.150   .     S
C1148  C553    1.410   1_556 S
C1149  I1188   2.144   .     S
C1150  H1153   1.076   .     S
C1155  H1156   1.075   .     S
C1155  C1162   1.392   .     A
C1155  C761    1.369   1_565 S
C1157  I1169   2.138   .     S
C1157  C1158   1.408   .     A
C1158  C1159   1.392   .     A
C1159  H1160   1.078   .     S
C1161  C1162   1.402   .     A
C1161  N1170   1.432   .     S
C1161  C763    1.376   1_565 S
C1163  N1168   1.367   .     A
C1163  N1173   1.428   .     S
C1163  C1032   1.428   1_655 S
C1164  N1176   1.427   .     S
C1164  N1165   1.377   .     A
N1165  C1166   1.374   .     A
C1166  I1179   2.128   .     S
C1167  N1168   1.379   .     A
C1167  I1180   2.141   .     S
C1167  C1034   1.427   1_655 S
N1170  O1172   1.301   .     A
N1170  O1171   1.300   .     A
N1173  O1174   1.301   .     A
N1173  O1175   1.300   .     A
N1176  O1178   1.300   .     A
N1176  O1177   1.299   .     A
N1182  O1183   1.300   .     A
N1182  O1184   1.300   .     A
N1185  O1186   1.302   .     A
N1185  O593    1.302   1_556 S
