data_str_m3_o2_o10_pcu_sym.112
_audit_creation_date              2020-01-03
_audit_creation_method            'Materials Studio'
_symmetry_space_group_name_H-M    'P1'
_symmetry_Int_Tables_number       1
_symmetry_cell_setting            triclinic
loop_
_symmetry_equiv_pos_as_xyz
  x,y,z
_cell_length_a                    25.7988
_cell_length_b                    29.9528
_cell_length_c                    28.4470
_cell_angle_alpha                 89.2603
_cell_angle_beta                  97.7429
_cell_angle_gamma                 90.2019
loop_
_atom_site_label
_atom_site_type_symbol
_atom_site_fract_x
_atom_site_fract_y
_atom_site_fract_z
_atom_site_U_iso_or_equiv
_atom_site_adp_type
_atom_site_occupancy
C1     C     0.16671   0.16396   0.25028   0.00000  Uiso   1.00
C2     C     0.16699   0.33590   0.24981   0.00000  Uiso   1.00
C3     C     0.15253   0.21131   0.05175   0.00000  Uiso   1.00
C4     C     0.20900   0.26677   0.45219   0.00000  Uiso   1.00
C5     C     0.15118   0.21280   0.10097   0.00000  Uiso   1.00
C6     C     0.20741   0.26825   0.40262   0.00000  Uiso   1.00
C7     C     0.18423   0.28654   0.10352   0.00000  Uiso   1.00
C8     C     0.12689   0.22920   0.39287   0.00000  Uiso   1.00
C9     C     0.18300   0.28747   0.05334   0.00000  Uiso   1.00
C10    C     0.12527   0.22948   0.44271   0.00000  Uiso   1.00
C11    C     0.16762   0.24905   0.02670   0.00000  Uiso   1.00
C12    C     0.16723   0.24826   0.47329   0.00000  Uiso   1.00
C13    C     0.06725   0.24968   0.23803   0.00000  Uiso   1.00
C14    C     0.26606   0.25035   0.26196   0.00000  Uiso   1.00
C15    C     0.01334   0.24204   0.23324   0.00000  Uiso   1.00
C16    C     0.31992   0.25810   0.26668   0.00000  Uiso   1.00
C17    C     0.20201   0.04683   0.28674   0.00000  Uiso   1.00
C18    C     0.21071   0.45284   0.23410   0.00000  Uiso   1.00
C19    C     0.20122   0.09331   0.28627   0.00000  Uiso   1.00
C20    C     0.20973   0.40635   0.23349   0.00000  Uiso   1.00
C21    C     0.16741   0.11590   0.25094   0.00000  Uiso   1.00
C22    C     0.16774   0.38371   0.24970   0.00000  Uiso   1.00
C23    C     0.13459   0.09266   0.21599   0.00000  Uiso   1.00
C24    C     0.12737   0.40648   0.26762   0.00000  Uiso   1.00
C25    C     0.13639   0.04608   0.21595   0.00000  Uiso   1.00
C26    C     0.12871   0.45304   0.26883   0.00000  Uiso   1.00
C27    C     0.17002   0.02378   0.25133   0.00000  Uiso   1.00
C28    C     0.17021   0.47564   0.25179   0.00000  Uiso   1.00
H29    H     0.14190   0.18048   0.03346   0.00000  Uiso   1.00
H30    H     0.24305   0.28012   0.47391   0.00000  Uiso   1.00
H31    H     0.13844   0.18366   0.11906   0.00000  Uiso   1.00
H32    H     0.23946   0.28336   0.38724   0.00000  Uiso   1.00
N33    N     0.16667   0.24999   0.12623   0.00000  Uiso   1.00
N34    N     0.16667   0.25001   0.37376   0.00000  Uiso   1.00
O35    O     0.16667   0.18454   0.28974   0.00000  Uiso   1.00
O36    O     0.16666   0.31547   0.21026   0.00000  Uiso   1.00
O37    O     0.16667   0.18453   0.21026   0.00000  Uiso   1.00
O38    O     0.16666   0.31547   0.28974   0.00000  Uiso   1.00
O39    O     0.09058   0.25000   0.28044   0.00000  Uiso   1.00
O40    O     0.24275   0.25000   0.21955   0.00000  Uiso   1.00
O41    O     0.09058   0.25000   0.20096   0.00000  Uiso   1.00
O42    O     0.24275   0.25001   0.29903   0.00000  Uiso   1.00
Zn43   Zn    0.16667   0.25001   0.30307   0.00000  Uiso   1.00
Zn44   Zn    0.16667   0.25000   0.19693   0.00000  Uiso   1.00
Cl45   Cl    0.32224   0.20277   0.18919   0.00000  Uiso   1.00
Cl46   Cl    0.01075   0.29764   0.31046   0.00000  Uiso   1.00
Cl47   Cl    0.24289   0.01761   0.33179   0.00000  Uiso   1.00
Cl48   Cl    0.26242   0.48231   0.21253   0.00000  Uiso   1.00
N49    N     0.23536   0.11794   0.32072   0.00000  Uiso   1.00
H50    H     0.22704   0.10901   0.35456   0.00000  Uiso   1.00
H51    H     0.27400   0.10903   0.31806   0.00000  Uiso   1.00
N52    N     0.25190   0.38172   0.21817   0.00000  Uiso   1.00
H53    H     0.28626   0.38955   0.24041   0.00000  Uiso   1.00
H54    H     0.25627   0.39216   0.18373   0.00000  Uiso   1.00
N55    N     0.09876   0.11662   0.18173   0.00000  Uiso   1.00
H56    H     0.10650   0.10864   0.14772   0.00000  Uiso   1.00
H57    H     0.06063   0.10660   0.18533   0.00000  Uiso   1.00
N58    N     0.08508   0.38193   0.28369   0.00000  Uiso   1.00
H59    H     0.05006   0.39195   0.26361   0.00000  Uiso   1.00
H60    H     0.08357   0.38940   0.31926   0.00000  Uiso   1.00
N61    N     0.10423   0.02086   0.18053   0.00000  Uiso   1.00
H62    H     0.11318   0.03040   0.14708   0.00000  Uiso   1.00
H63    H     0.06498   0.02816   0.18236   0.00000  Uiso   1.00
N64    N     0.08835   0.47789   0.28695   0.00000  Uiso   1.00
H65    H     0.05244   0.47048   0.26690   0.00000  Uiso   1.00
H66    H     0.08698   0.46806   0.32214   0.00000  Uiso   1.00
N67    N     0.20539   0.32350   0.13099   0.00000  Uiso   1.00
H68    H     0.24421   0.32821   0.12524   0.00000  Uiso   1.00
H69    H     0.18395   0.35215   0.11986   0.00000  Uiso   1.00
N70    N     0.08776   0.20583   0.36212   0.00000  Uiso   1.00
H71    H     0.08900   0.17210   0.37205   0.00000  Uiso   1.00
H72    H     0.05099   0.21846   0.36627   0.00000  Uiso   1.00
N73    N     0.19575   0.32769   0.02942   0.00000  Uiso   1.00
H74    H     0.23397   0.33717   0.04243   0.00000  Uiso   1.00
H75    H     0.17015   0.35290   0.03663   0.00000  Uiso   1.00
N76    N     0.08061   0.21210   0.46197   0.00000  Uiso   1.00
H77    H     0.07559   0.17858   0.45264   0.00000  Uiso   1.00
H78    H     0.04751   0.22994   0.44719   0.00000  Uiso   1.00
C79    C     0.50004   0.16396   0.25028   0.00000  Uiso   1.00
C80    C     0.50033   0.33590   0.24981   0.00000  Uiso   1.00
C81    C     0.48587   0.21131   0.05175   0.00000  Uiso   1.00
C82    C     0.54233   0.26677   0.45219   0.00000  Uiso   1.00
C83    C     0.48451   0.21280   0.10097   0.00000  Uiso   1.00
C84    C     0.54075   0.26825   0.40262   0.00000  Uiso   1.00
C85    C     0.51756   0.28654   0.10352   0.00000  Uiso   1.00
C86    C     0.46022   0.22920   0.39287   0.00000  Uiso   1.00
C87    C     0.51633   0.28747   0.05334   0.00000  Uiso   1.00
C88    C     0.45861   0.22948   0.44271   0.00000  Uiso   1.00
C89    C     0.50096   0.24905   0.02670   0.00000  Uiso   1.00
C90    C     0.50056   0.24826   0.47329   0.00000  Uiso   1.00
C91    C     0.40059   0.24968   0.23803   0.00000  Uiso   1.00
C92    C     0.59940   0.25035   0.26196   0.00000  Uiso   1.00
C93    C     0.34668   0.24204   0.23324   0.00000  Uiso   1.00
C94    C     0.65325   0.25810   0.26668   0.00000  Uiso   1.00
C95    C     0.53535   0.04683   0.28674   0.00000  Uiso   1.00
C96    C     0.54404   0.45284   0.23410   0.00000  Uiso   1.00
C97    C     0.53455   0.09331   0.28627   0.00000  Uiso   1.00
C98    C     0.54306   0.40635   0.23349   0.00000  Uiso   1.00
C99    C     0.50075   0.11590   0.25094   0.00000  Uiso   1.00
C100   C     0.50107   0.38371   0.24970   0.00000  Uiso   1.00
C101   C     0.46793   0.09266   0.21599   0.00000  Uiso   1.00
C102   C     0.46070   0.40648   0.26762   0.00000  Uiso   1.00
C103   C     0.46973   0.04608   0.21595   0.00000  Uiso   1.00
C104   C     0.46204   0.45304   0.26883   0.00000  Uiso   1.00
C105   C     0.50335   0.02378   0.25133   0.00000  Uiso   1.00
C106   C     0.50354   0.47564   0.25179   0.00000  Uiso   1.00
H107   H     0.47523   0.18048   0.03346   0.00000  Uiso   1.00
H108   H     0.57638   0.28012   0.47391   0.00000  Uiso   1.00
H109   H     0.47178   0.18366   0.11906   0.00000  Uiso   1.00
H110   H     0.57280   0.28336   0.38724   0.00000  Uiso   1.00
N111   N     0.50000   0.24999   0.12623   0.00000  Uiso   1.00
N112   N     0.50000   0.25001   0.37376   0.00000  Uiso   1.00
O113   O     0.50000   0.18454   0.28974   0.00000  Uiso   1.00
O114   O     0.50000   0.31547   0.21026   0.00000  Uiso   1.00
O115   O     0.50000   0.18453   0.21026   0.00000  Uiso   1.00
O116   O     0.50000   0.31547   0.28974   0.00000  Uiso   1.00
O117   O     0.42392   0.25000   0.28044   0.00000  Uiso   1.00
O118   O     0.57608   0.25000   0.21955   0.00000  Uiso   1.00
O119   O     0.42392   0.25000   0.20096   0.00000  Uiso   1.00
O120   O     0.57608   0.25001   0.29903   0.00000  Uiso   1.00
Zn121  Zn    0.50000   0.25001   0.30307   0.00000  Uiso   1.00
Zn122  Zn    0.50000   0.25000   0.19693   0.00000  Uiso   1.00
Cl123  Cl    0.65557   0.20277   0.18919   0.00000  Uiso   1.00
Cl124  Cl    0.34408   0.29764   0.31046   0.00000  Uiso   1.00
Cl125  Cl    0.57622   0.01761   0.33179   0.00000  Uiso   1.00
Cl126  Cl    0.59576   0.48231   0.21253   0.00000  Uiso   1.00
N127   N     0.56869   0.11794   0.32072   0.00000  Uiso   1.00
H128   H     0.56038   0.10901   0.35456   0.00000  Uiso   1.00
H129   H     0.60733   0.10903   0.31806   0.00000  Uiso   1.00
N130   N     0.58523   0.38172   0.21817   0.00000  Uiso   1.00
H131   H     0.61960   0.38955   0.24041   0.00000  Uiso   1.00
H132   H     0.58960   0.39216   0.18373   0.00000  Uiso   1.00
N133   N     0.43209   0.11662   0.18173   0.00000  Uiso   1.00
H134   H     0.43983   0.10864   0.14772   0.00000  Uiso   1.00
H135   H     0.39397   0.10660   0.18533   0.00000  Uiso   1.00
N136   N     0.41841   0.38193   0.28369   0.00000  Uiso   1.00
H137   H     0.38339   0.39195   0.26361   0.00000  Uiso   1.00
H138   H     0.41690   0.38940   0.31926   0.00000  Uiso   1.00
N139   N     0.43757   0.02086   0.18053   0.00000  Uiso   1.00
H140   H     0.44651   0.03040   0.14708   0.00000  Uiso   1.00
H141   H     0.39831   0.02816   0.18236   0.00000  Uiso   1.00
N142   N     0.42169   0.47789   0.28695   0.00000  Uiso   1.00
H143   H     0.38578   0.47048   0.26690   0.00000  Uiso   1.00
H144   H     0.42031   0.46806   0.32214   0.00000  Uiso   1.00
N145   N     0.53873   0.32350   0.13099   0.00000  Uiso   1.00
H146   H     0.57755   0.32821   0.12524   0.00000  Uiso   1.00
H147   H     0.51728   0.35215   0.11986   0.00000  Uiso   1.00
N148   N     0.42110   0.20583   0.36212   0.00000  Uiso   1.00
H149   H     0.42233   0.17210   0.37205   0.00000  Uiso   1.00
H150   H     0.38433   0.21846   0.36627   0.00000  Uiso   1.00
N151   N     0.52908   0.32769   0.02942   0.00000  Uiso   1.00
H152   H     0.56730   0.33717   0.04243   0.00000  Uiso   1.00
H153   H     0.50349   0.35290   0.03663   0.00000  Uiso   1.00
N154   N     0.41394   0.21210   0.46197   0.00000  Uiso   1.00
H155   H     0.40893   0.17858   0.45264   0.00000  Uiso   1.00
H156   H     0.38084   0.22994   0.44719   0.00000  Uiso   1.00
C157   C     0.83338   0.16396   0.25028   0.00000  Uiso   1.00
C158   C     0.83366   0.33590   0.24981   0.00000  Uiso   1.00
C159   C     0.81920   0.21131   0.05175   0.00000  Uiso   1.00
C160   C     0.87567   0.26677   0.45219   0.00000  Uiso   1.00
C161   C     0.81784   0.21280   0.10097   0.00000  Uiso   1.00
C162   C     0.87408   0.26825   0.40262   0.00000  Uiso   1.00
C163   C     0.85090   0.28654   0.10352   0.00000  Uiso   1.00
C164   C     0.79355   0.22920   0.39287   0.00000  Uiso   1.00
C165   C     0.84966   0.28747   0.05334   0.00000  Uiso   1.00
C166   C     0.79194   0.22948   0.44271   0.00000  Uiso   1.00
C167   C     0.83429   0.24905   0.02670   0.00000  Uiso   1.00
C168   C     0.83390   0.24826   0.47329   0.00000  Uiso   1.00
C169   C     0.73392   0.24968   0.23803   0.00000  Uiso   1.00
C170   C     0.93273   0.25035   0.26196   0.00000  Uiso   1.00
C171   C     0.68001   0.24204   0.23324   0.00000  Uiso   1.00
C172   C     0.98658   0.25810   0.26668   0.00000  Uiso   1.00
C173   C     0.86868   0.04683   0.28674   0.00000  Uiso   1.00
C174   C     0.87737   0.45284   0.23410   0.00000  Uiso   1.00
C175   C     0.86788   0.09331   0.28627   0.00000  Uiso   1.00
C176   C     0.87640   0.40635   0.23349   0.00000  Uiso   1.00
C177   C     0.83408   0.11590   0.25094   0.00000  Uiso   1.00
C178   C     0.83440   0.38371   0.24970   0.00000  Uiso   1.00
C179   C     0.80126   0.09266   0.21599   0.00000  Uiso   1.00
C180   C     0.79404   0.40648   0.26762   0.00000  Uiso   1.00
C181   C     0.80306   0.04608   0.21595   0.00000  Uiso   1.00
C182   C     0.79538   0.45304   0.26883   0.00000  Uiso   1.00
C183   C     0.83669   0.02378   0.25133   0.00000  Uiso   1.00
C184   C     0.83687   0.47564   0.25179   0.00000  Uiso   1.00
H185   H     0.80857   0.18048   0.03346   0.00000  Uiso   1.00
H186   H     0.90972   0.28012   0.47391   0.00000  Uiso   1.00
H187   H     0.80511   0.18366   0.11906   0.00000  Uiso   1.00
H188   H     0.90613   0.28336   0.38724   0.00000  Uiso   1.00
N189   N     0.83333   0.24999   0.12623   0.00000  Uiso   1.00
N190   N     0.83333   0.25001   0.37376   0.00000  Uiso   1.00
O191   O     0.83334   0.18454   0.28974   0.00000  Uiso   1.00
O192   O     0.83333   0.31547   0.21026   0.00000  Uiso   1.00
O193   O     0.83334   0.18453   0.21026   0.00000  Uiso   1.00
O194   O     0.83333   0.31547   0.28974   0.00000  Uiso   1.00
O195   O     0.75725   0.25000   0.28044   0.00000  Uiso   1.00
O196   O     0.90942   0.25000   0.21955   0.00000  Uiso   1.00
O197   O     0.75725   0.25000   0.20096   0.00000  Uiso   1.00
O198   O     0.90942   0.25001   0.29903   0.00000  Uiso   1.00
Zn199  Zn    0.83333   0.25001   0.30307   0.00000  Uiso   1.00
Zn200  Zn    0.83333   0.25000   0.19693   0.00000  Uiso   1.00
Cl201  Cl    0.98891   0.20277   0.18919   0.00000  Uiso   1.00
Cl202  Cl    0.67742   0.29764   0.31046   0.00000  Uiso   1.00
Cl203  Cl    0.90955   0.01761   0.33179   0.00000  Uiso   1.00
Cl204  Cl    0.92909   0.48231   0.21253   0.00000  Uiso   1.00
N205   N     0.90203   0.11794   0.32072   0.00000  Uiso   1.00
H206   H     0.89371   0.10901   0.35456   0.00000  Uiso   1.00
H207   H     0.94066   0.10903   0.31806   0.00000  Uiso   1.00
N208   N     0.91857   0.38172   0.21817   0.00000  Uiso   1.00
H209   H     0.95293   0.38955   0.24041   0.00000  Uiso   1.00
H210   H     0.92294   0.39216   0.18373   0.00000  Uiso   1.00
N211   N     0.76542   0.11662   0.18173   0.00000  Uiso   1.00
H212   H     0.77317   0.10864   0.14772   0.00000  Uiso   1.00
H213   H     0.72730   0.10660   0.18533   0.00000  Uiso   1.00
N214   N     0.75174   0.38193   0.28369   0.00000  Uiso   1.00
H215   H     0.71672   0.39195   0.26361   0.00000  Uiso   1.00
H216   H     0.75024   0.38940   0.31926   0.00000  Uiso   1.00
N217   N     0.77090   0.02086   0.18053   0.00000  Uiso   1.00
H218   H     0.77984   0.03040   0.14708   0.00000  Uiso   1.00
H219   H     0.73165   0.02816   0.18236   0.00000  Uiso   1.00
N220   N     0.75502   0.47789   0.28695   0.00000  Uiso   1.00
H221   H     0.71911   0.47048   0.26690   0.00000  Uiso   1.00
H222   H     0.75364   0.46806   0.32214   0.00000  Uiso   1.00
N223   N     0.87206   0.32350   0.13099   0.00000  Uiso   1.00
H224   H     0.91088   0.32821   0.12524   0.00000  Uiso   1.00
H225   H     0.85061   0.35215   0.11986   0.00000  Uiso   1.00
N226   N     0.75443   0.20583   0.36212   0.00000  Uiso   1.00
H227   H     0.75566   0.17210   0.37205   0.00000  Uiso   1.00
H228   H     0.71766   0.21846   0.36627   0.00000  Uiso   1.00
N229   N     0.86242   0.32769   0.02942   0.00000  Uiso   1.00
H230   H     0.90063   0.33717   0.04243   0.00000  Uiso   1.00
H231   H     0.83682   0.35290   0.03663   0.00000  Uiso   1.00
N232   N     0.74727   0.21210   0.46197   0.00000  Uiso   1.00
H233   H     0.74226   0.17858   0.45264   0.00000  Uiso   1.00
H234   H     0.71418   0.22994   0.44719   0.00000  Uiso   1.00
C235   C     0.16671   0.66396   0.25028   0.00000  Uiso   1.00
C236   C     0.16699   0.83590   0.24981   0.00000  Uiso   1.00
C237   C     0.15253   0.71131   0.05175   0.00000  Uiso   1.00
C238   C     0.20900   0.76677   0.45219   0.00000  Uiso   1.00
C239   C     0.15118   0.71280   0.10097   0.00000  Uiso   1.00
C240   C     0.20741   0.76825   0.40262   0.00000  Uiso   1.00
C241   C     0.18423   0.78654   0.10352   0.00000  Uiso   1.00
C242   C     0.12689   0.72920   0.39287   0.00000  Uiso   1.00
C243   C     0.18300   0.78747   0.05334   0.00000  Uiso   1.00
C244   C     0.12527   0.72948   0.44271   0.00000  Uiso   1.00
C245   C     0.16762   0.74905   0.02670   0.00000  Uiso   1.00
C246   C     0.16723   0.74826   0.47329   0.00000  Uiso   1.00
C247   C     0.06725   0.74968   0.23803   0.00000  Uiso   1.00
C248   C     0.26606   0.75035   0.26196   0.00000  Uiso   1.00
C249   C     0.01334   0.74204   0.23324   0.00000  Uiso   1.00
C250   C     0.31992   0.75810   0.26668   0.00000  Uiso   1.00
C251   C     0.20201   0.54683   0.28674   0.00000  Uiso   1.00
C252   C     0.21071   0.95284   0.23410   0.00000  Uiso   1.00
C253   C     0.20122   0.59331   0.28627   0.00000  Uiso   1.00
C254   C     0.20973   0.90635   0.23349   0.00000  Uiso   1.00
C255   C     0.16741   0.61590   0.25094   0.00000  Uiso   1.00
C256   C     0.16774   0.88371   0.24970   0.00000  Uiso   1.00
C257   C     0.13459   0.59266   0.21599   0.00000  Uiso   1.00
C258   C     0.12737   0.90648   0.26762   0.00000  Uiso   1.00
C259   C     0.13639   0.54608   0.21595   0.00000  Uiso   1.00
C260   C     0.12871   0.95304   0.26883   0.00000  Uiso   1.00
C261   C     0.17002   0.52378   0.25133   0.00000  Uiso   1.00
C262   C     0.17021   0.97564   0.25179   0.00000  Uiso   1.00
H263   H     0.14190   0.68048   0.03346   0.00000  Uiso   1.00
H264   H     0.24305   0.78012   0.47391   0.00000  Uiso   1.00
H265   H     0.13844   0.68366   0.11906   0.00000  Uiso   1.00
H266   H     0.23946   0.78336   0.38724   0.00000  Uiso   1.00
N267   N     0.16667   0.74999   0.12623   0.00000  Uiso   1.00
N268   N     0.16667   0.75001   0.37376   0.00000  Uiso   1.00
O269   O     0.16667   0.68454   0.28974   0.00000  Uiso   1.00
O270   O     0.16666   0.81547   0.21026   0.00000  Uiso   1.00
O271   O     0.16667   0.68453   0.21026   0.00000  Uiso   1.00
O272   O     0.16666   0.81547   0.28974   0.00000  Uiso   1.00
O273   O     0.09058   0.75000   0.28044   0.00000  Uiso   1.00
O274   O     0.24275   0.75000   0.21955   0.00000  Uiso   1.00
O275   O     0.09058   0.75000   0.20096   0.00000  Uiso   1.00
O276   O     0.24275   0.75001   0.29903   0.00000  Uiso   1.00
Zn277  Zn    0.16667   0.75001   0.30307   0.00000  Uiso   1.00
Zn278  Zn    0.16667   0.75000   0.19693   0.00000  Uiso   1.00
Cl279  Cl    0.32224   0.70277   0.18919   0.00000  Uiso   1.00
Cl280  Cl    0.01075   0.79764   0.31046   0.00000  Uiso   1.00
Cl281  Cl    0.24289   0.51761   0.33179   0.00000  Uiso   1.00
Cl282  Cl    0.26242   0.98231   0.21253   0.00000  Uiso   1.00
N283   N     0.23536   0.61794   0.32072   0.00000  Uiso   1.00
H284   H     0.22704   0.60901   0.35456   0.00000  Uiso   1.00
H285   H     0.27400   0.60903   0.31806   0.00000  Uiso   1.00
N286   N     0.25190   0.88172   0.21817   0.00000  Uiso   1.00
H287   H     0.28626   0.88955   0.24041   0.00000  Uiso   1.00
H288   H     0.25627   0.89216   0.18373   0.00000  Uiso   1.00
N289   N     0.09876   0.61662   0.18173   0.00000  Uiso   1.00
H290   H     0.10650   0.60864   0.14772   0.00000  Uiso   1.00
H291   H     0.06063   0.60660   0.18533   0.00000  Uiso   1.00
N292   N     0.08508   0.88193   0.28369   0.00000  Uiso   1.00
H293   H     0.05006   0.89195   0.26361   0.00000  Uiso   1.00
H294   H     0.08357   0.88940   0.31926   0.00000  Uiso   1.00
N295   N     0.10423   0.52086   0.18053   0.00000  Uiso   1.00
H296   H     0.11318   0.53040   0.14708   0.00000  Uiso   1.00
H297   H     0.06498   0.52816   0.18236   0.00000  Uiso   1.00
N298   N     0.08835   0.97789   0.28695   0.00000  Uiso   1.00
H299   H     0.05244   0.97048   0.26690   0.00000  Uiso   1.00
H300   H     0.08698   0.96806   0.32214   0.00000  Uiso   1.00
N301   N     0.20539   0.82350   0.13099   0.00000  Uiso   1.00
H302   H     0.24421   0.82821   0.12524   0.00000  Uiso   1.00
H303   H     0.18395   0.85215   0.11986   0.00000  Uiso   1.00
N304   N     0.08776   0.70583   0.36212   0.00000  Uiso   1.00
H305   H     0.08900   0.67210   0.37205   0.00000  Uiso   1.00
H306   H     0.05099   0.71846   0.36627   0.00000  Uiso   1.00
N307   N     0.19575   0.82769   0.02942   0.00000  Uiso   1.00
H308   H     0.23397   0.83717   0.04243   0.00000  Uiso   1.00
H309   H     0.17015   0.85290   0.03663   0.00000  Uiso   1.00
N310   N     0.08061   0.71210   0.46197   0.00000  Uiso   1.00
H311   H     0.07559   0.67858   0.45264   0.00000  Uiso   1.00
H312   H     0.04751   0.72994   0.44719   0.00000  Uiso   1.00
C313   C     0.50004   0.66396   0.25028   0.00000  Uiso   1.00
C314   C     0.50033   0.83590   0.24981   0.00000  Uiso   1.00
C315   C     0.48587   0.71131   0.05175   0.00000  Uiso   1.00
C316   C     0.54233   0.76677   0.45219   0.00000  Uiso   1.00
C317   C     0.48451   0.71280   0.10097   0.00000  Uiso   1.00
C318   C     0.54075   0.76825   0.40262   0.00000  Uiso   1.00
C319   C     0.51756   0.78654   0.10352   0.00000  Uiso   1.00
C320   C     0.46022   0.72920   0.39287   0.00000  Uiso   1.00
C321   C     0.51633   0.78747   0.05334   0.00000  Uiso   1.00
C322   C     0.45861   0.72948   0.44271   0.00000  Uiso   1.00
C323   C     0.50096   0.74905   0.02670   0.00000  Uiso   1.00
C324   C     0.50056   0.74826   0.47329   0.00000  Uiso   1.00
C325   C     0.40059   0.74968   0.23803   0.00000  Uiso   1.00
C326   C     0.59940   0.75035   0.26196   0.00000  Uiso   1.00
C327   C     0.34668   0.74204   0.23324   0.00000  Uiso   1.00
C328   C     0.65325   0.75810   0.26668   0.00000  Uiso   1.00
C329   C     0.53535   0.54683   0.28674   0.00000  Uiso   1.00
C330   C     0.54404   0.95284   0.23410   0.00000  Uiso   1.00
C331   C     0.53455   0.59331   0.28627   0.00000  Uiso   1.00
C332   C     0.54306   0.90635   0.23349   0.00000  Uiso   1.00
C333   C     0.50075   0.61590   0.25094   0.00000  Uiso   1.00
C334   C     0.50107   0.88371   0.24970   0.00000  Uiso   1.00
C335   C     0.46793   0.59266   0.21599   0.00000  Uiso   1.00
C336   C     0.46070   0.90648   0.26762   0.00000  Uiso   1.00
C337   C     0.46973   0.54608   0.21595   0.00000  Uiso   1.00
C338   C     0.46204   0.95304   0.26883   0.00000  Uiso   1.00
C339   C     0.50335   0.52378   0.25133   0.00000  Uiso   1.00
C340   C     0.50354   0.97564   0.25179   0.00000  Uiso   1.00
H341   H     0.47523   0.68048   0.03346   0.00000  Uiso   1.00
H342   H     0.57638   0.78012   0.47391   0.00000  Uiso   1.00
H343   H     0.47178   0.68366   0.11906   0.00000  Uiso   1.00
H344   H     0.57280   0.78336   0.38724   0.00000  Uiso   1.00
N345   N     0.50000   0.74999   0.12623   0.00000  Uiso   1.00
N346   N     0.50000   0.75001   0.37376   0.00000  Uiso   1.00
O347   O     0.50000   0.68454   0.28974   0.00000  Uiso   1.00
O348   O     0.50000   0.81547   0.21026   0.00000  Uiso   1.00
O349   O     0.50000   0.68453   0.21026   0.00000  Uiso   1.00
O350   O     0.50000   0.81547   0.28974   0.00000  Uiso   1.00
O351   O     0.42392   0.75000   0.28044   0.00000  Uiso   1.00
O352   O     0.57608   0.75000   0.21955   0.00000  Uiso   1.00
O353   O     0.42392   0.75000   0.20096   0.00000  Uiso   1.00
O354   O     0.57608   0.75001   0.29903   0.00000  Uiso   1.00
Zn355  Zn    0.50000   0.75001   0.30307   0.00000  Uiso   1.00
Zn356  Zn    0.50000   0.75000   0.19693   0.00000  Uiso   1.00
Cl357  Cl    0.65557   0.70277   0.18919   0.00000  Uiso   1.00
Cl358  Cl    0.34408   0.79764   0.31046   0.00000  Uiso   1.00
Cl359  Cl    0.57622   0.51761   0.33179   0.00000  Uiso   1.00
Cl360  Cl    0.59576   0.98231   0.21253   0.00000  Uiso   1.00
N361   N     0.56869   0.61794   0.32072   0.00000  Uiso   1.00
H362   H     0.56038   0.60901   0.35456   0.00000  Uiso   1.00
H363   H     0.60733   0.60903   0.31806   0.00000  Uiso   1.00
N364   N     0.58523   0.88172   0.21817   0.00000  Uiso   1.00
H365   H     0.61960   0.88955   0.24041   0.00000  Uiso   1.00
H366   H     0.58960   0.89216   0.18373   0.00000  Uiso   1.00
N367   N     0.43209   0.61662   0.18173   0.00000  Uiso   1.00
H368   H     0.43983   0.60864   0.14772   0.00000  Uiso   1.00
H369   H     0.39397   0.60660   0.18533   0.00000  Uiso   1.00
N370   N     0.41841   0.88193   0.28369   0.00000  Uiso   1.00
H371   H     0.38339   0.89195   0.26361   0.00000  Uiso   1.00
H372   H     0.41690   0.88940   0.31926   0.00000  Uiso   1.00
N373   N     0.43757   0.52086   0.18053   0.00000  Uiso   1.00
H374   H     0.44651   0.53040   0.14708   0.00000  Uiso   1.00
H375   H     0.39831   0.52816   0.18236   0.00000  Uiso   1.00
N376   N     0.42169   0.97789   0.28695   0.00000  Uiso   1.00
H377   H     0.38578   0.97048   0.26690   0.00000  Uiso   1.00
H378   H     0.42031   0.96806   0.32214   0.00000  Uiso   1.00
N379   N     0.53873   0.82350   0.13099   0.00000  Uiso   1.00
H380   H     0.57755   0.82821   0.12524   0.00000  Uiso   1.00
H381   H     0.51728   0.85215   0.11986   0.00000  Uiso   1.00
N382   N     0.42110   0.70583   0.36212   0.00000  Uiso   1.00
H383   H     0.42233   0.67210   0.37205   0.00000  Uiso   1.00
H384   H     0.38433   0.71846   0.36627   0.00000  Uiso   1.00
N385   N     0.52908   0.82769   0.02942   0.00000  Uiso   1.00
H386   H     0.56730   0.83717   0.04243   0.00000  Uiso   1.00
H387   H     0.50349   0.85290   0.03663   0.00000  Uiso   1.00
N388   N     0.41394   0.71210   0.46197   0.00000  Uiso   1.00
H389   H     0.40893   0.67858   0.45264   0.00000  Uiso   1.00
H390   H     0.38084   0.72994   0.44719   0.00000  Uiso   1.00
C391   C     0.83338   0.66396   0.25028   0.00000  Uiso   1.00
C392   C     0.83366   0.83590   0.24981   0.00000  Uiso   1.00
C393   C     0.81920   0.71131   0.05175   0.00000  Uiso   1.00
C394   C     0.87567   0.76677   0.45219   0.00000  Uiso   1.00
C395   C     0.81784   0.71280   0.10097   0.00000  Uiso   1.00
C396   C     0.87408   0.76825   0.40262   0.00000  Uiso   1.00
C397   C     0.85090   0.78654   0.10352   0.00000  Uiso   1.00
C398   C     0.79355   0.72920   0.39287   0.00000  Uiso   1.00
C399   C     0.84966   0.78747   0.05334   0.00000  Uiso   1.00
C400   C     0.79194   0.72948   0.44271   0.00000  Uiso   1.00
C401   C     0.83429   0.74905   0.02670   0.00000  Uiso   1.00
C402   C     0.83390   0.74826   0.47329   0.00000  Uiso   1.00
C403   C     0.73392   0.74968   0.23803   0.00000  Uiso   1.00
C404   C     0.93273   0.75035   0.26196   0.00000  Uiso   1.00
C405   C     0.68001   0.74204   0.23324   0.00000  Uiso   1.00
C406   C     0.98658   0.75810   0.26668   0.00000  Uiso   1.00
C407   C     0.86868   0.54683   0.28674   0.00000  Uiso   1.00
C408   C     0.87737   0.95284   0.23410   0.00000  Uiso   1.00
C409   C     0.86788   0.59331   0.28627   0.00000  Uiso   1.00
C410   C     0.87640   0.90635   0.23349   0.00000  Uiso   1.00
C411   C     0.83408   0.61590   0.25094   0.00000  Uiso   1.00
C412   C     0.83440   0.88371   0.24970   0.00000  Uiso   1.00
C413   C     0.80126   0.59266   0.21599   0.00000  Uiso   1.00
C414   C     0.79404   0.90648   0.26762   0.00000  Uiso   1.00
C415   C     0.80306   0.54608   0.21595   0.00000  Uiso   1.00
C416   C     0.79538   0.95304   0.26883   0.00000  Uiso   1.00
C417   C     0.83669   0.52378   0.25133   0.00000  Uiso   1.00
C418   C     0.83687   0.97564   0.25179   0.00000  Uiso   1.00
H419   H     0.80857   0.68048   0.03346   0.00000  Uiso   1.00
H420   H     0.90972   0.78012   0.47391   0.00000  Uiso   1.00
H421   H     0.80511   0.68366   0.11906   0.00000  Uiso   1.00
H422   H     0.90613   0.78336   0.38724   0.00000  Uiso   1.00
N423   N     0.83333   0.74999   0.12623   0.00000  Uiso   1.00
N424   N     0.83333   0.75001   0.37376   0.00000  Uiso   1.00
O425   O     0.83334   0.68454   0.28974   0.00000  Uiso   1.00
O426   O     0.83333   0.81547   0.21026   0.00000  Uiso   1.00
O427   O     0.83334   0.68453   0.21026   0.00000  Uiso   1.00
O428   O     0.83333   0.81547   0.28974   0.00000  Uiso   1.00
O429   O     0.75725   0.75000   0.28044   0.00000  Uiso   1.00
O430   O     0.90942   0.75000   0.21955   0.00000  Uiso   1.00
O431   O     0.75725   0.75000   0.20096   0.00000  Uiso   1.00
O432   O     0.90942   0.75001   0.29903   0.00000  Uiso   1.00
Zn433  Zn    0.83333   0.75001   0.30307   0.00000  Uiso   1.00
Zn434  Zn    0.83333   0.75000   0.19693   0.00000  Uiso   1.00
Cl435  Cl    0.98891   0.70277   0.18919   0.00000  Uiso   1.00
Cl436  Cl    0.67742   0.79764   0.31046   0.00000  Uiso   1.00
Cl437  Cl    0.90955   0.51761   0.33179   0.00000  Uiso   1.00
Cl438  Cl    0.92909   0.98231   0.21253   0.00000  Uiso   1.00
N439   N     0.90203   0.61794   0.32072   0.00000  Uiso   1.00
H440   H     0.89371   0.60901   0.35456   0.00000  Uiso   1.00
H441   H     0.94066   0.60903   0.31806   0.00000  Uiso   1.00
N442   N     0.91857   0.88172   0.21817   0.00000  Uiso   1.00
H443   H     0.95293   0.88955   0.24041   0.00000  Uiso   1.00
H444   H     0.92294   0.89216   0.18373   0.00000  Uiso   1.00
N445   N     0.76542   0.61662   0.18173   0.00000  Uiso   1.00
H446   H     0.77317   0.60864   0.14772   0.00000  Uiso   1.00
H447   H     0.72730   0.60660   0.18533   0.00000  Uiso   1.00
N448   N     0.75174   0.88193   0.28369   0.00000  Uiso   1.00
H449   H     0.71672   0.89195   0.26361   0.00000  Uiso   1.00
H450   H     0.75024   0.88940   0.31926   0.00000  Uiso   1.00
N451   N     0.77090   0.52086   0.18053   0.00000  Uiso   1.00
H452   H     0.77984   0.53040   0.14708   0.00000  Uiso   1.00
H453   H     0.73165   0.52816   0.18236   0.00000  Uiso   1.00
N454   N     0.75502   0.97789   0.28695   0.00000  Uiso   1.00
H455   H     0.71911   0.97048   0.26690   0.00000  Uiso   1.00
H456   H     0.75364   0.96806   0.32214   0.00000  Uiso   1.00
N457   N     0.87206   0.82350   0.13099   0.00000  Uiso   1.00
H458   H     0.91088   0.82821   0.12524   0.00000  Uiso   1.00
H459   H     0.85061   0.85215   0.11986   0.00000  Uiso   1.00
N460   N     0.75443   0.70583   0.36212   0.00000  Uiso   1.00
H461   H     0.75566   0.67210   0.37205   0.00000  Uiso   1.00
H462   H     0.71766   0.71846   0.36627   0.00000  Uiso   1.00
N463   N     0.86242   0.82769   0.02942   0.00000  Uiso   1.00
H464   H     0.90063   0.83717   0.04243   0.00000  Uiso   1.00
H465   H     0.83682   0.85290   0.03663   0.00000  Uiso   1.00
N466   N     0.74727   0.71210   0.46197   0.00000  Uiso   1.00
H467   H     0.74226   0.67858   0.45264   0.00000  Uiso   1.00
H468   H     0.71418   0.72994   0.44719   0.00000  Uiso   1.00
C469   C     0.16671   0.16396   0.75028   0.00000  Uiso   1.00
C470   C     0.16699   0.33590   0.74981   0.00000  Uiso   1.00
C471   C     0.15253   0.21131   0.55175   0.00000  Uiso   1.00
C472   C     0.20900   0.26677   0.95219   0.00000  Uiso   1.00
C473   C     0.15118   0.21280   0.60097   0.00000  Uiso   1.00
C474   C     0.20741   0.26825   0.90262   0.00000  Uiso   1.00
C475   C     0.18423   0.28654   0.60352   0.00000  Uiso   1.00
C476   C     0.12689   0.22920   0.89287   0.00000  Uiso   1.00
C477   C     0.18300   0.28747   0.55334   0.00000  Uiso   1.00
C478   C     0.12527   0.22948   0.94271   0.00000  Uiso   1.00
C479   C     0.16762   0.24905   0.52670   0.00000  Uiso   1.00
C480   C     0.16723   0.24826   0.97329   0.00000  Uiso   1.00
C481   C     0.06725   0.24968   0.73803   0.00000  Uiso   1.00
C482   C     0.26606   0.25035   0.76196   0.00000  Uiso   1.00
C483   C     0.01334   0.24204   0.73324   0.00000  Uiso   1.00
C484   C     0.31992   0.25810   0.76668   0.00000  Uiso   1.00
C485   C     0.20201   0.04683   0.78674   0.00000  Uiso   1.00
C486   C     0.21071   0.45284   0.73410   0.00000  Uiso   1.00
C487   C     0.20122   0.09331   0.78627   0.00000  Uiso   1.00
C488   C     0.20973   0.40635   0.73349   0.00000  Uiso   1.00
C489   C     0.16741   0.11590   0.75094   0.00000  Uiso   1.00
C490   C     0.16774   0.38371   0.74970   0.00000  Uiso   1.00
C491   C     0.13459   0.09266   0.71599   0.00000  Uiso   1.00
C492   C     0.12737   0.40648   0.76762   0.00000  Uiso   1.00
C493   C     0.13639   0.04608   0.71595   0.00000  Uiso   1.00
C494   C     0.12871   0.45304   0.76883   0.00000  Uiso   1.00
C495   C     0.17002   0.02378   0.75133   0.00000  Uiso   1.00
C496   C     0.17021   0.47564   0.75179   0.00000  Uiso   1.00
H497   H     0.14190   0.18048   0.53346   0.00000  Uiso   1.00
H498   H     0.24305   0.28012   0.97391   0.00000  Uiso   1.00
H499   H     0.13844   0.18366   0.61906   0.00000  Uiso   1.00
H500   H     0.23946   0.28336   0.88724   0.00000  Uiso   1.00
N501   N     0.16667   0.24999   0.62623   0.00000  Uiso   1.00
N502   N     0.16667   0.25001   0.87376   0.00000  Uiso   1.00
O503   O     0.16667   0.18454   0.78974   0.00000  Uiso   1.00
O504   O     0.16666   0.31547   0.71026   0.00000  Uiso   1.00
O505   O     0.16667   0.18453   0.71026   0.00000  Uiso   1.00
O506   O     0.16666   0.31547   0.78974   0.00000  Uiso   1.00
O507   O     0.09058   0.25000   0.78044   0.00000  Uiso   1.00
O508   O     0.24275   0.25000   0.71955   0.00000  Uiso   1.00
O509   O     0.09058   0.25000   0.70096   0.00000  Uiso   1.00
O510   O     0.24275   0.25001   0.79903   0.00000  Uiso   1.00
Zn511  Zn    0.16667   0.25001   0.80307   0.00000  Uiso   1.00
Zn512  Zn    0.16667   0.25000   0.69693   0.00000  Uiso   1.00
Cl513  Cl    0.32224   0.20277   0.68919   0.00000  Uiso   1.00
Cl514  Cl    0.01075   0.29764   0.81046   0.00000  Uiso   1.00
Cl515  Cl    0.24289   0.01761   0.83179   0.00000  Uiso   1.00
Cl516  Cl    0.26242   0.48231   0.71253   0.00000  Uiso   1.00
N517   N     0.23536   0.11794   0.82072   0.00000  Uiso   1.00
H518   H     0.22704   0.10901   0.85456   0.00000  Uiso   1.00
H519   H     0.27400   0.10903   0.81806   0.00000  Uiso   1.00
N520   N     0.25190   0.38172   0.71817   0.00000  Uiso   1.00
H521   H     0.28626   0.38955   0.74041   0.00000  Uiso   1.00
H522   H     0.25627   0.39216   0.68373   0.00000  Uiso   1.00
N523   N     0.09876   0.11662   0.68173   0.00000  Uiso   1.00
H524   H     0.10650   0.10864   0.64772   0.00000  Uiso   1.00
H525   H     0.06063   0.10660   0.68533   0.00000  Uiso   1.00
N526   N     0.08508   0.38193   0.78369   0.00000  Uiso   1.00
H527   H     0.05006   0.39195   0.76361   0.00000  Uiso   1.00
H528   H     0.08357   0.38940   0.81926   0.00000  Uiso   1.00
N529   N     0.10423   0.02086   0.68053   0.00000  Uiso   1.00
H530   H     0.11318   0.03040   0.64708   0.00000  Uiso   1.00
H531   H     0.06498   0.02816   0.68236   0.00000  Uiso   1.00
N532   N     0.08835   0.47789   0.78695   0.00000  Uiso   1.00
H533   H     0.05244   0.47048   0.76690   0.00000  Uiso   1.00
H534   H     0.08698   0.46806   0.82214   0.00000  Uiso   1.00
N535   N     0.20539   0.32350   0.63099   0.00000  Uiso   1.00
H536   H     0.24421   0.32821   0.62524   0.00000  Uiso   1.00
H537   H     0.18395   0.35215   0.61986   0.00000  Uiso   1.00
N538   N     0.08776   0.20583   0.86212   0.00000  Uiso   1.00
H539   H     0.08900   0.17210   0.87205   0.00000  Uiso   1.00
H540   H     0.05099   0.21846   0.86627   0.00000  Uiso   1.00
N541   N     0.19575   0.32769   0.52942   0.00000  Uiso   1.00
H542   H     0.23397   0.33717   0.54243   0.00000  Uiso   1.00
H543   H     0.17015   0.35290   0.53663   0.00000  Uiso   1.00
N544   N     0.08061   0.21210   0.96197   0.00000  Uiso   1.00
H545   H     0.07559   0.17858   0.95264   0.00000  Uiso   1.00
H546   H     0.04751   0.22994   0.94719   0.00000  Uiso   1.00
C547   C     0.50004   0.16396   0.75028   0.00000  Uiso   1.00
C548   C     0.50033   0.33590   0.74981   0.00000  Uiso   1.00
C549   C     0.48587   0.21131   0.55175   0.00000  Uiso   1.00
C550   C     0.54233   0.26677   0.95219   0.00000  Uiso   1.00
C551   C     0.48451   0.21280   0.60097   0.00000  Uiso   1.00
C552   C     0.54075   0.26825   0.90262   0.00000  Uiso   1.00
C553   C     0.51756   0.28654   0.60352   0.00000  Uiso   1.00
C554   C     0.46022   0.22920   0.89287   0.00000  Uiso   1.00
C555   C     0.51633   0.28747   0.55334   0.00000  Uiso   1.00
C556   C     0.45861   0.22948   0.94271   0.00000  Uiso   1.00
C557   C     0.50096   0.24905   0.52670   0.00000  Uiso   1.00
C558   C     0.50056   0.24826   0.97329   0.00000  Uiso   1.00
C559   C     0.40059   0.24968   0.73803   0.00000  Uiso   1.00
C560   C     0.59940   0.25035   0.76196   0.00000  Uiso   1.00
C561   C     0.34668   0.24204   0.73324   0.00000  Uiso   1.00
C562   C     0.65325   0.25810   0.76668   0.00000  Uiso   1.00
C563   C     0.53535   0.04683   0.78674   0.00000  Uiso   1.00
C564   C     0.54404   0.45284   0.73410   0.00000  Uiso   1.00
C565   C     0.53455   0.09331   0.78627   0.00000  Uiso   1.00
C566   C     0.54306   0.40635   0.73349   0.00000  Uiso   1.00
C567   C     0.50075   0.11590   0.75094   0.00000  Uiso   1.00
C568   C     0.50107   0.38371   0.74970   0.00000  Uiso   1.00
C569   C     0.46793   0.09266   0.71599   0.00000  Uiso   1.00
C570   C     0.46070   0.40648   0.76762   0.00000  Uiso   1.00
C571   C     0.46973   0.04608   0.71595   0.00000  Uiso   1.00
C572   C     0.46204   0.45304   0.76883   0.00000  Uiso   1.00
C573   C     0.50335   0.02378   0.75133   0.00000  Uiso   1.00
C574   C     0.50354   0.47564   0.75179   0.00000  Uiso   1.00
H575   H     0.47523   0.18048   0.53346   0.00000  Uiso   1.00
H576   H     0.57638   0.28012   0.97391   0.00000  Uiso   1.00
H577   H     0.47178   0.18366   0.61906   0.00000  Uiso   1.00
H578   H     0.57280   0.28336   0.88724   0.00000  Uiso   1.00
N579   N     0.50000   0.24999   0.62623   0.00000  Uiso   1.00
N580   N     0.50000   0.25001   0.87376   0.00000  Uiso   1.00
O581   O     0.50000   0.18454   0.78974   0.00000  Uiso   1.00
O582   O     0.50000   0.31547   0.71026   0.00000  Uiso   1.00
O583   O     0.50000   0.18453   0.71026   0.00000  Uiso   1.00
O584   O     0.50000   0.31547   0.78974   0.00000  Uiso   1.00
O585   O     0.42392   0.25000   0.78044   0.00000  Uiso   1.00
O586   O     0.57608   0.25000   0.71955   0.00000  Uiso   1.00
O587   O     0.42392   0.25000   0.70096   0.00000  Uiso   1.00
O588   O     0.57608   0.25001   0.79903   0.00000  Uiso   1.00
Zn589  Zn    0.50000   0.25001   0.80307   0.00000  Uiso   1.00
Zn590  Zn    0.50000   0.25000   0.69693   0.00000  Uiso   1.00
Cl591  Cl    0.65557   0.20277   0.68919   0.00000  Uiso   1.00
Cl592  Cl    0.34408   0.29764   0.81046   0.00000  Uiso   1.00
Cl593  Cl    0.57622   0.01761   0.83179   0.00000  Uiso   1.00
Cl594  Cl    0.59576   0.48231   0.71253   0.00000  Uiso   1.00
N595   N     0.56869   0.11794   0.82072   0.00000  Uiso   1.00
H596   H     0.56038   0.10901   0.85456   0.00000  Uiso   1.00
H597   H     0.60733   0.10903   0.81806   0.00000  Uiso   1.00
N598   N     0.58523   0.38172   0.71817   0.00000  Uiso   1.00
H599   H     0.61960   0.38955   0.74041   0.00000  Uiso   1.00
H600   H     0.58960   0.39216   0.68373   0.00000  Uiso   1.00
N601   N     0.43209   0.11662   0.68173   0.00000  Uiso   1.00
H602   H     0.43983   0.10864   0.64772   0.00000  Uiso   1.00
H603   H     0.39397   0.10660   0.68533   0.00000  Uiso   1.00
N604   N     0.41841   0.38193   0.78369   0.00000  Uiso   1.00
H605   H     0.38339   0.39195   0.76361   0.00000  Uiso   1.00
H606   H     0.41690   0.38940   0.81926   0.00000  Uiso   1.00
N607   N     0.43757   0.02086   0.68053   0.00000  Uiso   1.00
H608   H     0.44651   0.03040   0.64708   0.00000  Uiso   1.00
H609   H     0.39831   0.02816   0.68236   0.00000  Uiso   1.00
N610   N     0.42169   0.47789   0.78695   0.00000  Uiso   1.00
H611   H     0.38578   0.47048   0.76690   0.00000  Uiso   1.00
H612   H     0.42031   0.46806   0.82214   0.00000  Uiso   1.00
N613   N     0.53873   0.32350   0.63099   0.00000  Uiso   1.00
H614   H     0.57755   0.32821   0.62524   0.00000  Uiso   1.00
H615   H     0.51728   0.35215   0.61986   0.00000  Uiso   1.00
N616   N     0.42110   0.20583   0.86212   0.00000  Uiso   1.00
H617   H     0.42233   0.17210   0.87205   0.00000  Uiso   1.00
H618   H     0.38433   0.21846   0.86627   0.00000  Uiso   1.00
N619   N     0.52908   0.32769   0.52942   0.00000  Uiso   1.00
H620   H     0.56730   0.33717   0.54243   0.00000  Uiso   1.00
H621   H     0.50349   0.35290   0.53663   0.00000  Uiso   1.00
N622   N     0.41394   0.21210   0.96197   0.00000  Uiso   1.00
H623   H     0.40893   0.17858   0.95264   0.00000  Uiso   1.00
H624   H     0.38084   0.22994   0.94719   0.00000  Uiso   1.00
C625   C     0.83338   0.16396   0.75028   0.00000  Uiso   1.00
C626   C     0.83366   0.33590   0.74981   0.00000  Uiso   1.00
C627   C     0.81920   0.21131   0.55175   0.00000  Uiso   1.00
C628   C     0.87567   0.26677   0.95219   0.00000  Uiso   1.00
C629   C     0.81784   0.21280   0.60097   0.00000  Uiso   1.00
C630   C     0.87408   0.26825   0.90262   0.00000  Uiso   1.00
C631   C     0.85090   0.28654   0.60352   0.00000  Uiso   1.00
C632   C     0.79355   0.22920   0.89287   0.00000  Uiso   1.00
C633   C     0.84966   0.28747   0.55334   0.00000  Uiso   1.00
C634   C     0.79194   0.22948   0.94271   0.00000  Uiso   1.00
C635   C     0.83429   0.24905   0.52670   0.00000  Uiso   1.00
C636   C     0.83390   0.24826   0.97329   0.00000  Uiso   1.00
C637   C     0.73392   0.24968   0.73803   0.00000  Uiso   1.00
C638   C     0.93273   0.25035   0.76196   0.00000  Uiso   1.00
C639   C     0.68001   0.24204   0.73324   0.00000  Uiso   1.00
C640   C     0.98658   0.25810   0.76668   0.00000  Uiso   1.00
C641   C     0.86868   0.04683   0.78674   0.00000  Uiso   1.00
C642   C     0.87737   0.45284   0.73410   0.00000  Uiso   1.00
C643   C     0.86788   0.09331   0.78627   0.00000  Uiso   1.00
C644   C     0.87640   0.40635   0.73349   0.00000  Uiso   1.00
C645   C     0.83408   0.11590   0.75094   0.00000  Uiso   1.00
C646   C     0.83440   0.38371   0.74970   0.00000  Uiso   1.00
C647   C     0.80126   0.09266   0.71599   0.00000  Uiso   1.00
C648   C     0.79404   0.40648   0.76762   0.00000  Uiso   1.00
C649   C     0.80306   0.04608   0.71595   0.00000  Uiso   1.00
C650   C     0.79538   0.45304   0.76883   0.00000  Uiso   1.00
C651   C     0.83669   0.02378   0.75133   0.00000  Uiso   1.00
C652   C     0.83687   0.47564   0.75179   0.00000  Uiso   1.00
H653   H     0.80857   0.18048   0.53346   0.00000  Uiso   1.00
H654   H     0.90972   0.28012   0.97391   0.00000  Uiso   1.00
H655   H     0.80511   0.18366   0.61906   0.00000  Uiso   1.00
H656   H     0.90613   0.28336   0.88724   0.00000  Uiso   1.00
N657   N     0.83333   0.24999   0.62623   0.00000  Uiso   1.00
N658   N     0.83333   0.25001   0.87376   0.00000  Uiso   1.00
O659   O     0.83334   0.18454   0.78974   0.00000  Uiso   1.00
O660   O     0.83333   0.31547   0.71026   0.00000  Uiso   1.00
O661   O     0.83334   0.18453   0.71026   0.00000  Uiso   1.00
O662   O     0.83333   0.31547   0.78974   0.00000  Uiso   1.00
O663   O     0.75725   0.25000   0.78044   0.00000  Uiso   1.00
O664   O     0.90942   0.25000   0.71955   0.00000  Uiso   1.00
O665   O     0.75725   0.25000   0.70096   0.00000  Uiso   1.00
O666   O     0.90942   0.25001   0.79903   0.00000  Uiso   1.00
Zn667  Zn    0.83333   0.25001   0.80307   0.00000  Uiso   1.00
Zn668  Zn    0.83333   0.25000   0.69693   0.00000  Uiso   1.00
Cl669  Cl    0.98891   0.20277   0.68919   0.00000  Uiso   1.00
Cl670  Cl    0.67742   0.29764   0.81046   0.00000  Uiso   1.00
Cl671  Cl    0.90955   0.01761   0.83179   0.00000  Uiso   1.00
Cl672  Cl    0.92909   0.48231   0.71253   0.00000  Uiso   1.00
N673   N     0.90203   0.11794   0.82072   0.00000  Uiso   1.00
H674   H     0.89371   0.10901   0.85456   0.00000  Uiso   1.00
H675   H     0.94066   0.10903   0.81806   0.00000  Uiso   1.00
N676   N     0.91857   0.38172   0.71817   0.00000  Uiso   1.00
H677   H     0.95293   0.38955   0.74041   0.00000  Uiso   1.00
H678   H     0.92294   0.39216   0.68373   0.00000  Uiso   1.00
N679   N     0.76542   0.11662   0.68173   0.00000  Uiso   1.00
H680   H     0.77317   0.10864   0.64772   0.00000  Uiso   1.00
H681   H     0.72730   0.10660   0.68533   0.00000  Uiso   1.00
N682   N     0.75174   0.38193   0.78369   0.00000  Uiso   1.00
H683   H     0.71672   0.39195   0.76361   0.00000  Uiso   1.00
H684   H     0.75024   0.38940   0.81926   0.00000  Uiso   1.00
N685   N     0.77090   0.02086   0.68053   0.00000  Uiso   1.00
H686   H     0.77984   0.03040   0.64708   0.00000  Uiso   1.00
H687   H     0.73165   0.02816   0.68236   0.00000  Uiso   1.00
N688   N     0.75502   0.47789   0.78695   0.00000  Uiso   1.00
H689   H     0.71911   0.47048   0.76690   0.00000  Uiso   1.00
H690   H     0.75364   0.46806   0.82214   0.00000  Uiso   1.00
N691   N     0.87206   0.32350   0.63099   0.00000  Uiso   1.00
H692   H     0.91088   0.32821   0.62524   0.00000  Uiso   1.00
H693   H     0.85061   0.35215   0.61986   0.00000  Uiso   1.00
N694   N     0.75443   0.20583   0.86212   0.00000  Uiso   1.00
H695   H     0.75566   0.17210   0.87205   0.00000  Uiso   1.00
H696   H     0.71766   0.21846   0.86627   0.00000  Uiso   1.00
N697   N     0.86242   0.32769   0.52942   0.00000  Uiso   1.00
H698   H     0.90063   0.33717   0.54243   0.00000  Uiso   1.00
H699   H     0.83682   0.35290   0.53663   0.00000  Uiso   1.00
N700   N     0.74727   0.21210   0.96197   0.00000  Uiso   1.00
H701   H     0.74226   0.17858   0.95264   0.00000  Uiso   1.00
H702   H     0.71418   0.22994   0.94719   0.00000  Uiso   1.00
C703   C     0.16671   0.66396   0.75028   0.00000  Uiso   1.00
C704   C     0.16699   0.83590   0.74981   0.00000  Uiso   1.00
C705   C     0.15253   0.71131   0.55175   0.00000  Uiso   1.00
C706   C     0.20900   0.76677   0.95219   0.00000  Uiso   1.00
C707   C     0.15118   0.71280   0.60097   0.00000  Uiso   1.00
C708   C     0.20741   0.76825   0.90262   0.00000  Uiso   1.00
C709   C     0.18423   0.78654   0.60352   0.00000  Uiso   1.00
C710   C     0.12689   0.72920   0.89287   0.00000  Uiso   1.00
C711   C     0.18300   0.78747   0.55334   0.00000  Uiso   1.00
C712   C     0.12527   0.72948   0.94271   0.00000  Uiso   1.00
C713   C     0.16762   0.74905   0.52670   0.00000  Uiso   1.00
C714   C     0.16723   0.74826   0.97329   0.00000  Uiso   1.00
C715   C     0.06725   0.74968   0.73803   0.00000  Uiso   1.00
C716   C     0.26606   0.75035   0.76196   0.00000  Uiso   1.00
C717   C     0.01334   0.74204   0.73324   0.00000  Uiso   1.00
C718   C     0.31992   0.75810   0.76668   0.00000  Uiso   1.00
C719   C     0.20201   0.54683   0.78674   0.00000  Uiso   1.00
C720   C     0.21071   0.95284   0.73410   0.00000  Uiso   1.00
C721   C     0.20122   0.59331   0.78627   0.00000  Uiso   1.00
C722   C     0.20973   0.90635   0.73349   0.00000  Uiso   1.00
C723   C     0.16741   0.61590   0.75094   0.00000  Uiso   1.00
C724   C     0.16774   0.88371   0.74970   0.00000  Uiso   1.00
C725   C     0.13459   0.59266   0.71599   0.00000  Uiso   1.00
C726   C     0.12737   0.90648   0.76762   0.00000  Uiso   1.00
C727   C     0.13639   0.54608   0.71595   0.00000  Uiso   1.00
C728   C     0.12871   0.95304   0.76883   0.00000  Uiso   1.00
C729   C     0.17002   0.52378   0.75133   0.00000  Uiso   1.00
C730   C     0.17021   0.97564   0.75179   0.00000  Uiso   1.00
H731   H     0.14190   0.68048   0.53346   0.00000  Uiso   1.00
H732   H     0.24305   0.78012   0.97391   0.00000  Uiso   1.00
H733   H     0.13844   0.68366   0.61906   0.00000  Uiso   1.00
H734   H     0.23946   0.78336   0.88724   0.00000  Uiso   1.00
N735   N     0.16667   0.74999   0.62623   0.00000  Uiso   1.00
N736   N     0.16667   0.75001   0.87376   0.00000  Uiso   1.00
O737   O     0.16667   0.68454   0.78974   0.00000  Uiso   1.00
O738   O     0.16666   0.81547   0.71026   0.00000  Uiso   1.00
O739   O     0.16667   0.68453   0.71026   0.00000  Uiso   1.00
O740   O     0.16666   0.81547   0.78974   0.00000  Uiso   1.00
O741   O     0.09058   0.75000   0.78044   0.00000  Uiso   1.00
O742   O     0.24275   0.75000   0.71955   0.00000  Uiso   1.00
O743   O     0.09058   0.75000   0.70096   0.00000  Uiso   1.00
O744   O     0.24275   0.75001   0.79903   0.00000  Uiso   1.00
Zn745  Zn    0.16667   0.75001   0.80307   0.00000  Uiso   1.00
Zn746  Zn    0.16667   0.75000   0.69693   0.00000  Uiso   1.00
Cl747  Cl    0.32224   0.70277   0.68919   0.00000  Uiso   1.00
Cl748  Cl    0.01075   0.79764   0.81046   0.00000  Uiso   1.00
Cl749  Cl    0.24289   0.51761   0.83179   0.00000  Uiso   1.00
Cl750  Cl    0.26242   0.98231   0.71253   0.00000  Uiso   1.00
N751   N     0.23536   0.61794   0.82072   0.00000  Uiso   1.00
H752   H     0.22704   0.60901   0.85456   0.00000  Uiso   1.00
H753   H     0.27400   0.60903   0.81806   0.00000  Uiso   1.00
N754   N     0.25190   0.88172   0.71817   0.00000  Uiso   1.00
H755   H     0.28626   0.88955   0.74041   0.00000  Uiso   1.00
H756   H     0.25627   0.89216   0.68373   0.00000  Uiso   1.00
N757   N     0.09876   0.61662   0.68173   0.00000  Uiso   1.00
H758   H     0.10650   0.60864   0.64772   0.00000  Uiso   1.00
H759   H     0.06063   0.60660   0.68533   0.00000  Uiso   1.00
N760   N     0.08508   0.88193   0.78369   0.00000  Uiso   1.00
H761   H     0.05006   0.89195   0.76361   0.00000  Uiso   1.00
H762   H     0.08357   0.88940   0.81926   0.00000  Uiso   1.00
N763   N     0.10423   0.52086   0.68053   0.00000  Uiso   1.00
H764   H     0.11318   0.53040   0.64708   0.00000  Uiso   1.00
H765   H     0.06498   0.52816   0.68236   0.00000  Uiso   1.00
N766   N     0.08835   0.97789   0.78695   0.00000  Uiso   1.00
H767   H     0.05244   0.97048   0.76690   0.00000  Uiso   1.00
H768   H     0.08698   0.96806   0.82214   0.00000  Uiso   1.00
N769   N     0.20539   0.82350   0.63099   0.00000  Uiso   1.00
H770   H     0.24421   0.82821   0.62524   0.00000  Uiso   1.00
H771   H     0.18395   0.85215   0.61986   0.00000  Uiso   1.00
N772   N     0.08776   0.70583   0.86212   0.00000  Uiso   1.00
H773   H     0.08900   0.67210   0.87205   0.00000  Uiso   1.00
H774   H     0.05099   0.71846   0.86627   0.00000  Uiso   1.00
N775   N     0.19575   0.82769   0.52942   0.00000  Uiso   1.00
H776   H     0.23397   0.83717   0.54243   0.00000  Uiso   1.00
H777   H     0.17015   0.85290   0.53663   0.00000  Uiso   1.00
N778   N     0.08061   0.71210   0.96197   0.00000  Uiso   1.00
H779   H     0.07559   0.67858   0.95264   0.00000  Uiso   1.00
H780   H     0.04751   0.72994   0.94719   0.00000  Uiso   1.00
C781   C     0.50004   0.66396   0.75028   0.00000  Uiso   1.00
C782   C     0.50033   0.83590   0.74981   0.00000  Uiso   1.00
C783   C     0.48587   0.71131   0.55175   0.00000  Uiso   1.00
C784   C     0.54233   0.76677   0.95219   0.00000  Uiso   1.00
C785   C     0.48451   0.71280   0.60097   0.00000  Uiso   1.00
C786   C     0.54075   0.76825   0.90262   0.00000  Uiso   1.00
C787   C     0.51756   0.78654   0.60352   0.00000  Uiso   1.00
C788   C     0.46022   0.72920   0.89287   0.00000  Uiso   1.00
C789   C     0.51633   0.78747   0.55334   0.00000  Uiso   1.00
C790   C     0.45861   0.72948   0.94271   0.00000  Uiso   1.00
C791   C     0.50096   0.74905   0.52670   0.00000  Uiso   1.00
C792   C     0.50056   0.74826   0.97329   0.00000  Uiso   1.00
C793   C     0.40059   0.74968   0.73803   0.00000  Uiso   1.00
C794   C     0.59940   0.75035   0.76196   0.00000  Uiso   1.00
C795   C     0.34668   0.74204   0.73324   0.00000  Uiso   1.00
C796   C     0.65325   0.75810   0.76668   0.00000  Uiso   1.00
C797   C     0.53535   0.54683   0.78674   0.00000  Uiso   1.00
C798   C     0.54404   0.95284   0.73410   0.00000  Uiso   1.00
C799   C     0.53455   0.59331   0.78627   0.00000  Uiso   1.00
C800   C     0.54306   0.90635   0.73349   0.00000  Uiso   1.00
C801   C     0.50075   0.61590   0.75094   0.00000  Uiso   1.00
C802   C     0.50107   0.88371   0.74970   0.00000  Uiso   1.00
C803   C     0.46793   0.59266   0.71599   0.00000  Uiso   1.00
C804   C     0.46070   0.90648   0.76762   0.00000  Uiso   1.00
C805   C     0.46973   0.54608   0.71595   0.00000  Uiso   1.00
C806   C     0.46204   0.95304   0.76883   0.00000  Uiso   1.00
C807   C     0.50335   0.52378   0.75133   0.00000  Uiso   1.00
C808   C     0.50354   0.97564   0.75179   0.00000  Uiso   1.00
H809   H     0.47523   0.68048   0.53346   0.00000  Uiso   1.00
H810   H     0.57638   0.78012   0.97391   0.00000  Uiso   1.00
H811   H     0.47178   0.68366   0.61906   0.00000  Uiso   1.00
H812   H     0.57280   0.78336   0.88724   0.00000  Uiso   1.00
N813   N     0.50000   0.74999   0.62623   0.00000  Uiso   1.00
N814   N     0.50000   0.75001   0.87376   0.00000  Uiso   1.00
O815   O     0.50000   0.68454   0.78974   0.00000  Uiso   1.00
O816   O     0.50000   0.81547   0.71026   0.00000  Uiso   1.00
O817   O     0.50000   0.68453   0.71026   0.00000  Uiso   1.00
O818   O     0.50000   0.81547   0.78974   0.00000  Uiso   1.00
O819   O     0.42392   0.75000   0.78044   0.00000  Uiso   1.00
O820   O     0.57608   0.75000   0.71955   0.00000  Uiso   1.00
O821   O     0.42392   0.75000   0.70096   0.00000  Uiso   1.00
O822   O     0.57608   0.75001   0.79903   0.00000  Uiso   1.00
Zn823  Zn    0.50000   0.75001   0.80307   0.00000  Uiso   1.00
Zn824  Zn    0.50000   0.75000   0.69693   0.00000  Uiso   1.00
Cl825  Cl    0.65557   0.70277   0.68919   0.00000  Uiso   1.00
Cl826  Cl    0.34408   0.79764   0.81046   0.00000  Uiso   1.00
Cl827  Cl    0.57622   0.51761   0.83179   0.00000  Uiso   1.00
Cl828  Cl    0.59576   0.98231   0.71253   0.00000  Uiso   1.00
N829   N     0.56869   0.61794   0.82072   0.00000  Uiso   1.00
H830   H     0.56038   0.60901   0.85456   0.00000  Uiso   1.00
H831   H     0.60733   0.60903   0.81806   0.00000  Uiso   1.00
N832   N     0.58523   0.88172   0.71817   0.00000  Uiso   1.00
H833   H     0.61960   0.88955   0.74041   0.00000  Uiso   1.00
H834   H     0.58960   0.89216   0.68373   0.00000  Uiso   1.00
N835   N     0.43209   0.61662   0.68173   0.00000  Uiso   1.00
H836   H     0.43983   0.60864   0.64772   0.00000  Uiso   1.00
H837   H     0.39397   0.60660   0.68533   0.00000  Uiso   1.00
N838   N     0.41841   0.88193   0.78369   0.00000  Uiso   1.00
H839   H     0.38339   0.89195   0.76361   0.00000  Uiso   1.00
H840   H     0.41690   0.88940   0.81926   0.00000  Uiso   1.00
N841   N     0.43757   0.52086   0.68053   0.00000  Uiso   1.00
H842   H     0.44651   0.53040   0.64708   0.00000  Uiso   1.00
H843   H     0.39831   0.52816   0.68236   0.00000  Uiso   1.00
N844   N     0.42169   0.97789   0.78695   0.00000  Uiso   1.00
H845   H     0.38578   0.97048   0.76690   0.00000  Uiso   1.00
H846   H     0.42031   0.96806   0.82214   0.00000  Uiso   1.00
N847   N     0.53873   0.82350   0.63099   0.00000  Uiso   1.00
H848   H     0.57755   0.82821   0.62524   0.00000  Uiso   1.00
H849   H     0.51728   0.85215   0.61986   0.00000  Uiso   1.00
N850   N     0.42110   0.70583   0.86212   0.00000  Uiso   1.00
H851   H     0.42233   0.67210   0.87205   0.00000  Uiso   1.00
H852   H     0.38433   0.71846   0.86627   0.00000  Uiso   1.00
N853   N     0.52908   0.82769   0.52942   0.00000  Uiso   1.00
H854   H     0.56730   0.83717   0.54243   0.00000  Uiso   1.00
H855   H     0.50349   0.85290   0.53663   0.00000  Uiso   1.00
N856   N     0.41394   0.71210   0.96197   0.00000  Uiso   1.00
H857   H     0.40893   0.67858   0.95264   0.00000  Uiso   1.00
H858   H     0.38084   0.72994   0.94719   0.00000  Uiso   1.00
C859   C     0.83338   0.66396   0.75028   0.00000  Uiso   1.00
C860   C     0.83366   0.83590   0.74981   0.00000  Uiso   1.00
C861   C     0.81920   0.71131   0.55175   0.00000  Uiso   1.00
C862   C     0.87567   0.76677   0.95219   0.00000  Uiso   1.00
C863   C     0.81784   0.71280   0.60097   0.00000  Uiso   1.00
C864   C     0.87408   0.76825   0.90262   0.00000  Uiso   1.00
C865   C     0.85090   0.78654   0.60352   0.00000  Uiso   1.00
C866   C     0.79355   0.72920   0.89287   0.00000  Uiso   1.00
C867   C     0.84966   0.78747   0.55334   0.00000  Uiso   1.00
C868   C     0.79194   0.72948   0.94271   0.00000  Uiso   1.00
C869   C     0.83429   0.74905   0.52670   0.00000  Uiso   1.00
C870   C     0.83390   0.74826   0.97329   0.00000  Uiso   1.00
C871   C     0.73392   0.74968   0.73803   0.00000  Uiso   1.00
C872   C     0.93273   0.75035   0.76196   0.00000  Uiso   1.00
C873   C     0.68001   0.74204   0.73324   0.00000  Uiso   1.00
C874   C     0.98658   0.75810   0.76668   0.00000  Uiso   1.00
C875   C     0.86868   0.54683   0.78674   0.00000  Uiso   1.00
C876   C     0.87737   0.95284   0.73410   0.00000  Uiso   1.00
C877   C     0.86788   0.59331   0.78627   0.00000  Uiso   1.00
C878   C     0.87640   0.90635   0.73349   0.00000  Uiso   1.00
C879   C     0.83408   0.61590   0.75094   0.00000  Uiso   1.00
C880   C     0.83440   0.88371   0.74970   0.00000  Uiso   1.00
C881   C     0.80126   0.59266   0.71599   0.00000  Uiso   1.00
C882   C     0.79404   0.90648   0.76762   0.00000  Uiso   1.00
C883   C     0.80306   0.54608   0.71595   0.00000  Uiso   1.00
C884   C     0.79538   0.95304   0.76883   0.00000  Uiso   1.00
C885   C     0.83669   0.52378   0.75133   0.00000  Uiso   1.00
C886   C     0.83687   0.97564   0.75179   0.00000  Uiso   1.00
H887   H     0.80857   0.68048   0.53346   0.00000  Uiso   1.00
H888   H     0.90972   0.78012   0.97391   0.00000  Uiso   1.00
H889   H     0.80511   0.68366   0.61906   0.00000  Uiso   1.00
H890   H     0.90613   0.78336   0.88724   0.00000  Uiso   1.00
N891   N     0.83333   0.74999   0.62623   0.00000  Uiso   1.00
N892   N     0.83333   0.75001   0.87376   0.00000  Uiso   1.00
O893   O     0.83334   0.68454   0.78974   0.00000  Uiso   1.00
O894   O     0.83333   0.81547   0.71026   0.00000  Uiso   1.00
O895   O     0.83334   0.68453   0.71026   0.00000  Uiso   1.00
O896   O     0.83333   0.81547   0.78974   0.00000  Uiso   1.00
O897   O     0.75725   0.75000   0.78044   0.00000  Uiso   1.00
O898   O     0.90942   0.75000   0.71955   0.00000  Uiso   1.00
O899   O     0.75725   0.75000   0.70096   0.00000  Uiso   1.00
O900   O     0.90942   0.75001   0.79903   0.00000  Uiso   1.00
Zn901  Zn    0.83333   0.75001   0.80307   0.00000  Uiso   1.00
Zn902  Zn    0.83333   0.75000   0.69693   0.00000  Uiso   1.00
Cl903  Cl    0.98891   0.70277   0.68919   0.00000  Uiso   1.00
Cl904  Cl    0.67742   0.79764   0.81046   0.00000  Uiso   1.00
Cl905  Cl    0.90955   0.51761   0.83179   0.00000  Uiso   1.00
Cl906  Cl    0.92909   0.98231   0.71253   0.00000  Uiso   1.00
N907   N     0.90203   0.61794   0.82072   0.00000  Uiso   1.00
H908   H     0.89371   0.60901   0.85456   0.00000  Uiso   1.00
H909   H     0.94066   0.60903   0.81806   0.00000  Uiso   1.00
N910   N     0.91857   0.88172   0.71817   0.00000  Uiso   1.00
H911   H     0.95293   0.88955   0.74041   0.00000  Uiso   1.00
H912   H     0.92294   0.89216   0.68373   0.00000  Uiso   1.00
N913   N     0.76542   0.61662   0.68173   0.00000  Uiso   1.00
H914   H     0.77317   0.60864   0.64772   0.00000  Uiso   1.00
H915   H     0.72730   0.60660   0.68533   0.00000  Uiso   1.00
N916   N     0.75174   0.88193   0.78369   0.00000  Uiso   1.00
H917   H     0.71672   0.89195   0.76361   0.00000  Uiso   1.00
H918   H     0.75024   0.88940   0.81926   0.00000  Uiso   1.00
N919   N     0.77090   0.52086   0.68053   0.00000  Uiso   1.00
H920   H     0.77984   0.53040   0.64708   0.00000  Uiso   1.00
H921   H     0.73165   0.52816   0.68236   0.00000  Uiso   1.00
N922   N     0.75502   0.97789   0.78695   0.00000  Uiso   1.00
H923   H     0.71911   0.97048   0.76690   0.00000  Uiso   1.00
H924   H     0.75364   0.96806   0.82214   0.00000  Uiso   1.00
N925   N     0.87206   0.82350   0.63099   0.00000  Uiso   1.00
H926   H     0.91088   0.82821   0.62524   0.00000  Uiso   1.00
H927   H     0.85061   0.85215   0.61986   0.00000  Uiso   1.00
N928   N     0.75443   0.70583   0.86212   0.00000  Uiso   1.00
H929   H     0.75566   0.67210   0.87205   0.00000  Uiso   1.00
H930   H     0.71766   0.71846   0.86627   0.00000  Uiso   1.00
N931   N     0.86242   0.82769   0.52942   0.00000  Uiso   1.00
H932   H     0.90063   0.83717   0.54243   0.00000  Uiso   1.00
H933   H     0.83682   0.85290   0.53663   0.00000  Uiso   1.00
N934   N     0.74727   0.71210   0.96197   0.00000  Uiso   1.00
H935   H     0.74226   0.67858   0.95264   0.00000  Uiso   1.00
H936   H     0.71418   0.72994   0.94719   0.00000  Uiso   1.00
loop_
_geom_bond_atom_site_label_1
_geom_bond_atom_site_label_2
_geom_bond_distance
_geom_bond_site_symmetry_2
_ccdc_geom_bond_type
C1     C21     1.440   .     S
C1     O37     1.287   .     A
C1     O35     1.288   .     A
C2     O38     1.284   .     A
C2     C22     1.432   .     S
C2     O36     1.287   .     A
C3     H29     1.082   .     S
C3     C5      1.407   .     A
C3     C11     1.410   .     A
C4     C12     1.411   .     A
C4     C6      1.405   .     A
C4     H30     1.082   .     S
C5     N33     1.363   .     A
C5     H31     1.080   .     S
C6     H32     1.082   .     S
C6     N34     1.361   .     A
C7     N33     1.370   .     A
C7     N67     1.428   .     S
C7     C9      1.423   .     A
C8     N34     1.369   .     A
C8     C10     1.424   .     A
C8     N70     1.431   .     S
C9     N73     1.435   .     S
C9     C11     1.412   .     A
C10    N76     1.435   .     S
C10    C12     1.414   .     A
C11    C480    1.519   1_554 S
C12    C479    1.519   .     S
C13    O41     1.282   .     A
C13    C15     1.397   .     S
C13    O39     1.274   .     A
C14    O42     1.282   .     A
C14    C16     1.397   .     S
C14    O40     1.274   .     A
C15    C172    1.343   1_455 S
C15    Cl201   1.781   1_455 S
C16    C93     1.343   .     S
C16    Cl124   1.779   .     S
C17    C27     1.401   .     A
C17    Cl47    1.770   .     S
C17    C19     1.392   .     A
C18    C28     1.403   .     A
C18    Cl48    1.770   .     S
C18    C20     1.393   .     A
C19    C21     1.407   .     A
C19    N49     1.436   .     S
C20    C22     1.403   .     A
C20    N52     1.435   .     S
C21    C23     1.406   .     A
C22    C24     1.402   .     A
C23    N55     1.437   .     S
C23    C25     1.396   .     A
C24    C26     1.396   .     A
C24    N58     1.435   .     S
C25    N61     1.437   .     S
C25    C27     1.401   .     A
C26    N64     1.437   .     S
C26    C28     1.402   .     A
C27    C262    1.442   1_545 S
C28    C261    1.442   .     S
N33    Zn44    2.011   .     S
N34    Zn43    2.011   .     S
O35    Zn43    2.002   .     S
O36    Zn44    2.002   .     S
O37    Zn44    1.992   .     S
O38    Zn43    1.992   .     S
O39    Zn43    1.982   .     S
O40    Zn44    1.982   .     S
O41    Zn44    1.982   .     S
O42    Zn43    1.982   .     S
Cl45   C93     1.781   .     S
Cl46   C172    1.779   1_455 S
N49    H51     1.046   .     S
N49    H50     1.045   .     S
N52    H54     1.045   .     S
N52    H53     1.045   .     S
N55    H56     1.045   .     S
N55    H57     1.045   .     S
N58    H60     1.045   .     S
N58    H59     1.045   .     S
N61    H63     1.045   .     S
N61    H62     1.045   .     S
N64    H66     1.045   .     S
N64    H65     1.045   .     S
N67    H68     1.045   .     S
N67    H69     1.045   .     S
N70    H71     1.045   .     S
N70    H72     1.044   .     S
N73    H75     1.045   .     S
N73    H74     1.045   .     S
N76    H77     1.045   .     S
N76    H78     1.045   .     S
C79    C99     1.440   .     S
C79    O115    1.287   .     A
C79    O113    1.288   .     A
C80    O116    1.284   .     A
C80    C100    1.432   .     S
C80    O114    1.287   .     A
C81    H107    1.082   .     S
C81    C83     1.407   .     A
C81    C89     1.410   .     A
C82    C90     1.411   .     A
C82    C84     1.405   .     A
C82    H108    1.082   .     S
C83    N111    1.363   .     A
C83    H109    1.080   .     S
C84    H110    1.082   .     S
C84    N112    1.361   .     A
C85    N111    1.370   .     A
C85    N145    1.428   .     S
C85    C87     1.423   .     A
C86    N112    1.369   .     A
C86    C88     1.424   .     A
C86    N148    1.431   .     S
C87    N151    1.435   .     S
C87    C89     1.412   .     A
C88    N154    1.435   .     S
C88    C90     1.414   .     A
C89    C558    1.519   1_554 S
C90    C557    1.519   .     S
C91    O119    1.282   .     A
C91    C93     1.397   .     S
C91    O117    1.274   .     A
C92    O120    1.282   .     A
C92    C94     1.397   .     S
C92    O118    1.274   .     A
C94    C171    1.343   .     S
C94    Cl202   1.779   .     S
C95    C105    1.401   .     A
C95    Cl125   1.770   .     S
C95    C97     1.392   .     A
C96    C106    1.403   .     A
C96    Cl126   1.770   .     S
C96    C98     1.393   .     A
C97    C99     1.407   .     A
C97    N127    1.436   .     S
C98    C100    1.403   .     A
C98    N130    1.435   .     S
C99    C101    1.406   .     A
C100   C102    1.402   .     A
C101   N133    1.437   .     S
C101   C103    1.396   .     A
C102   C104    1.396   .     A
C102   N136    1.435   .     S
C103   N139    1.437   .     S
C103   C105    1.401   .     A
C104   N142    1.437   .     S
C104   C106    1.402   .     A
C105   C340    1.442   1_545 S
C106   C339    1.442   .     S
N111   Zn122   2.011   .     S
N112   Zn121   2.011   .     S
O113   Zn121   2.002   .     S
O114   Zn122   2.002   .     S
O115   Zn122   1.992   .     S
O116   Zn121   1.992   .     S
O117   Zn121   1.982   .     S
O118   Zn122   1.982   .     S
O119   Zn122   1.982   .     S
O120   Zn121   1.982   .     S
Cl123  C171    1.781   .     S
N127   H129    1.046   .     S
N127   H128    1.045   .     S
N130   H132    1.045   .     S
N130   H131    1.045   .     S
N133   H134    1.045   .     S
N133   H135    1.045   .     S
N136   H138    1.045   .     S
N136   H137    1.045   .     S
N139   H141    1.045   .     S
N139   H140    1.045   .     S
N142   H144    1.045   .     S
N142   H143    1.045   .     S
N145   H146    1.045   .     S
N145   H147    1.045   .     S
N148   H149    1.045   .     S
N148   H150    1.044   .     S
N151   H153    1.045   .     S
N151   H152    1.045   .     S
N154   H155    1.045   .     S
N154   H156    1.045   .     S
C157   C177    1.440   .     S
C157   O193    1.287   .     A
C157   O191    1.288   .     A
C158   O194    1.284   .     A
C158   C178    1.432   .     S
C158   O192    1.287   .     A
C159   H185    1.082   .     S
C159   C161    1.407   .     A
C159   C167    1.410   .     A
C160   C168    1.411   .     A
C160   C162    1.405   .     A
C160   H186    1.082   .     S
C161   N189    1.363   .     A
C161   H187    1.080   .     S
C162   H188    1.082   .     S
C162   N190    1.361   .     A
C163   N189    1.370   .     A
C163   N223    1.428   .     S
C163   C165    1.423   .     A
C164   N190    1.369   .     A
C164   C166    1.424   .     A
C164   N226    1.431   .     S
C165   N229    1.435   .     S
C165   C167    1.412   .     A
C166   N232    1.435   .     S
C166   C168    1.414   .     A
C167   C636    1.519   1_554 S
C168   C635    1.519   .     S
C169   O197    1.282   .     A
C169   C171    1.397   .     S
C169   O195    1.274   .     A
C170   O198    1.282   .     A
C170   C172    1.397   .     S
C170   O196    1.274   .     A
C172   C15     1.343   1_655 S
C172   Cl46    1.779   1_655 S
C173   C183    1.401   .     A
C173   Cl203   1.770   .     S
C173   C175    1.392   .     A
C174   C184    1.403   .     A
C174   Cl204   1.770   .     S
C174   C176    1.393   .     A
C175   C177    1.407   .     A
C175   N205    1.436   .     S
C176   C178    1.403   .     A
C176   N208    1.435   .     S
C177   C179    1.406   .     A
C178   C180    1.402   .     A
C179   N211    1.437   .     S
C179   C181    1.396   .     A
C180   C182    1.396   .     A
C180   N214    1.435   .     S
C181   N217    1.437   .     S
C181   C183    1.401   .     A
C182   N220    1.437   .     S
C182   C184    1.402   .     A
C183   C418    1.442   1_545 S
C184   C417    1.442   .     S
N189   Zn200   2.011   .     S
N190   Zn199   2.011   .     S
O191   Zn199   2.002   .     S
O192   Zn200   2.002   .     S
O193   Zn200   1.992   .     S
O194   Zn199   1.992   .     S
O195   Zn199   1.982   .     S
O196   Zn200   1.982   .     S
O197   Zn200   1.982   .     S
O198   Zn199   1.982   .     S
Cl201  C15     1.781   1_655 S
N205   H207    1.046   .     S
N205   H206    1.045   .     S
N208   H210    1.045   .     S
N208   H209    1.045   .     S
N211   H212    1.045   .     S
N211   H213    1.045   .     S
N214   H216    1.045   .     S
N214   H215    1.045   .     S
N217   H219    1.045   .     S
N217   H218    1.045   .     S
N220   H222    1.045   .     S
N220   H221    1.045   .     S
N223   H224    1.045   .     S
N223   H225    1.045   .     S
N226   H227    1.045   .     S
N226   H228    1.044   .     S
N229   H231    1.045   .     S
N229   H230    1.045   .     S
N232   H233    1.045   .     S
N232   H234    1.045   .     S
C235   C255    1.440   .     S
C235   O271    1.287   .     A
C235   O269    1.288   .     A
C236   O272    1.284   .     A
C236   C256    1.432   .     S
C236   O270    1.287   .     A
C237   H263    1.082   .     S
C237   C239    1.407   .     A
C237   C245    1.410   .     A
C238   C246    1.411   .     A
C238   C240    1.405   .     A
C238   H264    1.082   .     S
C239   N267    1.363   .     A
C239   H265    1.080   .     S
C240   H266    1.082   .     S
C240   N268    1.361   .     A
C241   N267    1.370   .     A
C241   N301    1.428   .     S
C241   C243    1.423   .     A
C242   N268    1.369   .     A
C242   C244    1.424   .     A
C242   N304    1.431   .     S
C243   N307    1.435   .     S
C243   C245    1.412   .     A
C244   N310    1.435   .     S
C244   C246    1.414   .     A
C245   C714    1.519   1_554 S
C246   C713    1.519   .     S
C247   O275    1.282   .     A
C247   C249    1.397   .     S
C247   O273    1.274   .     A
C248   O276    1.282   .     A
C248   C250    1.397   .     S
C248   O274    1.274   .     A
C249   C406    1.343   1_455 S
C249   Cl435   1.781   1_455 S
C250   C327    1.343   .     S
C250   Cl358   1.779   .     S
C251   C261    1.401   .     A
C251   Cl281   1.770   .     S
C251   C253    1.392   .     A
C252   C262    1.403   .     A
C252   Cl282   1.770   .     S
C252   C254    1.393   .     A
C253   C255    1.407   .     A
C253   N283    1.436   .     S
C254   C256    1.403   .     A
C254   N286    1.435   .     S
C255   C257    1.406   .     A
C256   C258    1.402   .     A
C257   N289    1.437   .     S
C257   C259    1.396   .     A
C258   C260    1.396   .     A
C258   N292    1.435   .     S
C259   N295    1.437   .     S
C259   C261    1.401   .     A
C260   N298    1.437   .     S
C260   C262    1.402   .     A
C262   C27     1.442   1_565 S
N267   Zn278   2.011   .     S
N268   Zn277   2.011   .     S
O269   Zn277   2.002   .     S
O270   Zn278   2.002   .     S
O271   Zn278   1.992   .     S
O272   Zn277   1.992   .     S
O273   Zn277   1.982   .     S
O274   Zn278   1.982   .     S
O275   Zn278   1.982   .     S
O276   Zn277   1.982   .     S
Cl279  C327    1.781   .     S
Cl280  C406    1.779   1_455 S
N283   H285    1.046   .     S
N283   H284    1.045   .     S
N286   H288    1.045   .     S
N286   H287    1.045   .     S
N289   H290    1.045   .     S
N289   H291    1.045   .     S
N292   H294    1.045   .     S
N292   H293    1.045   .     S
N295   H297    1.045   .     S
N295   H296    1.045   .     S
N298   H300    1.045   .     S
N298   H299    1.045   .     S
N301   H302    1.045   .     S
N301   H303    1.045   .     S
N304   H305    1.045   .     S
N304   H306    1.044   .     S
N307   H309    1.045   .     S
N307   H308    1.045   .     S
N310   H311    1.045   .     S
N310   H312    1.045   .     S
C313   C333    1.440   .     S
C313   O349    1.287   .     A
C313   O347    1.288   .     A
C314   O350    1.284   .     A
C314   C334    1.432   .     S
C314   O348    1.287   .     A
C315   H341    1.082   .     S
C315   C317    1.407   .     A
C315   C323    1.410   .     A
C316   C324    1.411   .     A
C316   C318    1.405   .     A
C316   H342    1.082   .     S
C317   N345    1.363   .     A
C317   H343    1.080   .     S
C318   H344    1.082   .     S
C318   N346    1.361   .     A
C319   N345    1.370   .     A
C319   N379    1.428   .     S
C319   C321    1.423   .     A
C320   N346    1.369   .     A
C320   C322    1.424   .     A
C320   N382    1.431   .     S
C321   N385    1.435   .     S
C321   C323    1.412   .     A
C322   N388    1.435   .     S
C322   C324    1.414   .     A
C323   C792    1.519   1_554 S
C324   C791    1.519   .     S
C325   O353    1.282   .     A
C325   C327    1.397   .     S
C325   O351    1.274   .     A
C326   O354    1.282   .     A
C326   C328    1.397   .     S
C326   O352    1.274   .     A
C328   C405    1.343   .     S
C328   Cl436   1.779   .     S
C329   C339    1.401   .     A
C329   Cl359   1.770   .     S
C329   C331    1.392   .     A
C330   C340    1.403   .     A
C330   Cl360   1.770   .     S
C330   C332    1.393   .     A
C331   C333    1.407   .     A
C331   N361    1.436   .     S
C332   C334    1.403   .     A
C332   N364    1.435   .     S
C333   C335    1.406   .     A
C334   C336    1.402   .     A
C335   N367    1.437   .     S
C335   C337    1.396   .     A
C336   C338    1.396   .     A
C336   N370    1.435   .     S
C337   N373    1.437   .     S
C337   C339    1.401   .     A
C338   N376    1.437   .     S
C338   C340    1.402   .     A
C340   C105    1.442   1_565 S
N345   Zn356   2.011   .     S
N346   Zn355   2.011   .     S
O347   Zn355   2.002   .     S
O348   Zn356   2.002   .     S
O349   Zn356   1.992   .     S
O350   Zn355   1.992   .     S
O351   Zn355   1.982   .     S
O352   Zn356   1.982   .     S
O353   Zn356   1.982   .     S
O354   Zn355   1.982   .     S
Cl357  C405    1.781   .     S
N361   H363    1.046   .     S
N361   H362    1.045   .     S
N364   H366    1.045   .     S
N364   H365    1.045   .     S
N367   H368    1.045   .     S
N367   H369    1.045   .     S
N370   H372    1.045   .     S
N370   H371    1.045   .     S
N373   H375    1.045   .     S
N373   H374    1.045   .     S
N376   H378    1.045   .     S
N376   H377    1.045   .     S
N379   H380    1.045   .     S
N379   H381    1.045   .     S
N382   H383    1.045   .     S
N382   H384    1.044   .     S
N385   H387    1.045   .     S
N385   H386    1.045   .     S
N388   H389    1.045   .     S
N388   H390    1.045   .     S
C391   C411    1.440   .     S
C391   O427    1.287   .     A
C391   O425    1.288   .     A
C392   O428    1.284   .     A
C392   C412    1.432   .     S
C392   O426    1.287   .     A
C393   H419    1.082   .     S
C393   C395    1.407   .     A
C393   C401    1.410   .     A
C394   C402    1.411   .     A
C394   C396    1.405   .     A
C394   H420    1.082   .     S
C395   N423    1.363   .     A
C395   H421    1.080   .     S
C396   H422    1.082   .     S
C396   N424    1.361   .     A
C397   N423    1.370   .     A
C397   N457    1.428   .     S
C397   C399    1.423   .     A
C398   N424    1.369   .     A
C398   C400    1.424   .     A
C398   N460    1.431   .     S
C399   N463    1.435   .     S
C399   C401    1.412   .     A
C400   N466    1.435   .     S
C400   C402    1.414   .     A
C401   C870    1.519   1_554 S
C402   C869    1.519   .     S
C403   O431    1.282   .     A
C403   C405    1.397   .     S
C403   O429    1.274   .     A
C404   O432    1.282   .     A
C404   C406    1.397   .     S
C404   O430    1.274   .     A
C406   C249    1.343   1_655 S
C406   Cl280   1.779   1_655 S
C407   C417    1.401   .     A
C407   Cl437   1.770   .     S
C407   C409    1.392   .     A
C408   C418    1.403   .     A
C408   Cl438   1.770   .     S
C408   C410    1.393   .     A
C409   C411    1.407   .     A
C409   N439    1.436   .     S
C410   C412    1.403   .     A
C410   N442    1.435   .     S
C411   C413    1.406   .     A
C412   C414    1.402   .     A
C413   N445    1.437   .     S
C413   C415    1.396   .     A
C414   C416    1.396   .     A
C414   N448    1.435   .     S
C415   N451    1.437   .     S
C415   C417    1.401   .     A
C416   N454    1.437   .     S
C416   C418    1.402   .     A
C418   C183    1.442   1_565 S
N423   Zn434   2.011   .     S
N424   Zn433   2.011   .     S
O425   Zn433   2.002   .     S
O426   Zn434   2.002   .     S
O427   Zn434   1.992   .     S
O428   Zn433   1.992   .     S
O429   Zn433   1.982   .     S
O430   Zn434   1.982   .     S
O431   Zn434   1.982   .     S
O432   Zn433   1.982   .     S
Cl435  C249    1.781   1_655 S
N439   H441    1.046   .     S
N439   H440    1.045   .     S
N442   H444    1.045   .     S
N442   H443    1.045   .     S
N445   H446    1.045   .     S
N445   H447    1.045   .     S
N448   H450    1.045   .     S
N448   H449    1.045   .     S
N451   H453    1.045   .     S
N451   H452    1.045   .     S
N454   H456    1.045   .     S
N454   H455    1.045   .     S
N457   H458    1.045   .     S
N457   H459    1.045   .     S
N460   H461    1.045   .     S
N460   H462    1.044   .     S
N463   H465    1.045   .     S
N463   H464    1.045   .     S
N466   H467    1.045   .     S
N466   H468    1.045   .     S
C469   C489    1.440   .     S
C469   O505    1.287   .     A
C469   O503    1.288   .     A
C470   O506    1.284   .     A
C470   C490    1.432   .     S
C470   O504    1.287   .     A
C471   H497    1.082   .     S
C471   C473    1.407   .     A
C471   C479    1.410   .     A
C472   C480    1.411   .     A
C472   C474    1.405   .     A
C472   H498    1.082   .     S
C473   N501    1.363   .     A
C473   H499    1.080   .     S
C474   H500    1.082   .     S
C474   N502    1.361   .     A
C475   N501    1.370   .     A
C475   N535    1.428   .     S
C475   C477    1.423   .     A
C476   N502    1.369   .     A
C476   C478    1.424   .     A
C476   N538    1.431   .     S
C477   N541    1.435   .     S
C477   C479    1.412   .     A
C478   N544    1.435   .     S
C478   C480    1.414   .     A
C480   C11     1.519   1_556 S
C481   O509    1.282   .     A
C481   C483    1.397   .     S
C481   O507    1.274   .     A
C482   O510    1.282   .     A
C482   C484    1.397   .     S
C482   O508    1.274   .     A
C483   C640    1.343   1_455 S
C483   Cl669   1.781   1_455 S
C484   C561    1.343   .     S
C484   Cl592   1.779   .     S
C485   C495    1.401   .     A
C485   Cl515   1.770   .     S
C485   C487    1.392   .     A
C486   C496    1.403   .     A
C486   Cl516   1.770   .     S
C486   C488    1.393   .     A
C487   C489    1.407   .     A
C487   N517    1.436   .     S
C488   C490    1.403   .     A
C488   N520    1.435   .     S
C489   C491    1.406   .     A
C490   C492    1.402   .     A
C491   N523    1.437   .     S
C491   C493    1.396   .     A
C492   C494    1.396   .     A
C492   N526    1.435   .     S
C493   N529    1.437   .     S
C493   C495    1.401   .     A
C494   N532    1.437   .     S
C494   C496    1.402   .     A
C495   C730    1.442   1_545 S
C496   C729    1.442   .     S
N501   Zn512   2.011   .     S
N502   Zn511   2.011   .     S
O503   Zn511   2.002   .     S
O504   Zn512   2.002   .     S
O505   Zn512   1.992   .     S
O506   Zn511   1.992   .     S
O507   Zn511   1.982   .     S
O508   Zn512   1.982   .     S
O509   Zn512   1.982   .     S
O510   Zn511   1.982   .     S
Cl513  C561    1.781   .     S
Cl514  C640    1.779   1_455 S
N517   H519    1.046   .     S
N517   H518    1.045   .     S
N520   H522    1.045   .     S
N520   H521    1.045   .     S
N523   H524    1.045   .     S
N523   H525    1.045   .     S
N526   H528    1.045   .     S
N526   H527    1.045   .     S
N529   H531    1.045   .     S
N529   H530    1.045   .     S
N532   H534    1.045   .     S
N532   H533    1.045   .     S
N535   H536    1.045   .     S
N535   H537    1.045   .     S
N538   H539    1.045   .     S
N538   H540    1.044   .     S
N541   H543    1.045   .     S
N541   H542    1.045   .     S
N544   H545    1.045   .     S
N544   H546    1.045   .     S
C547   C567    1.440   .     S
C547   O583    1.287   .     A
C547   O581    1.288   .     A
C548   O584    1.284   .     A
C548   C568    1.432   .     S
C548   O582    1.287   .     A
C549   H575    1.082   .     S
C549   C551    1.407   .     A
C549   C557    1.410   .     A
C550   C558    1.411   .     A
C550   C552    1.405   .     A
C550   H576    1.082   .     S
C551   N579    1.363   .     A
C551   H577    1.080   .     S
C552   H578    1.082   .     S
C552   N580    1.361   .     A
C553   N579    1.370   .     A
C553   N613    1.428   .     S
C553   C555    1.423   .     A
C554   N580    1.369   .     A
C554   C556    1.424   .     A
C554   N616    1.431   .     S
C555   N619    1.435   .     S
C555   C557    1.412   .     A
C556   N622    1.435   .     S
C556   C558    1.414   .     A
C558   C89     1.519   1_556 S
C559   O587    1.282   .     A
C559   C561    1.397   .     S
C559   O585    1.274   .     A
C560   O588    1.282   .     A
C560   C562    1.397   .     S
C560   O586    1.274   .     A
C562   C639    1.343   .     S
C562   Cl670   1.779   .     S
C563   C573    1.401   .     A
C563   Cl593   1.770   .     S
C563   C565    1.392   .     A
C564   C574    1.403   .     A
C564   Cl594   1.770   .     S
C564   C566    1.393   .     A
C565   C567    1.407   .     A
C565   N595    1.436   .     S
C566   C568    1.403   .     A
C566   N598    1.435   .     S
C567   C569    1.406   .     A
C568   C570    1.402   .     A
C569   N601    1.437   .     S
C569   C571    1.396   .     A
C570   C572    1.396   .     A
C570   N604    1.435   .     S
C571   N607    1.437   .     S
C571   C573    1.401   .     A
C572   N610    1.437   .     S
C572   C574    1.402   .     A
C573   C808    1.442   1_545 S
C574   C807    1.442   .     S
N579   Zn590   2.011   .     S
N580   Zn589   2.011   .     S
O581   Zn589   2.002   .     S
O582   Zn590   2.002   .     S
O583   Zn590   1.992   .     S
O584   Zn589   1.992   .     S
O585   Zn589   1.982   .     S
O586   Zn590   1.982   .     S
O587   Zn590   1.982   .     S
O588   Zn589   1.982   .     S
Cl591  C639    1.781   .     S
N595   H597    1.046   .     S
N595   H596    1.045   .     S
N598   H600    1.045   .     S
N598   H599    1.045   .     S
N601   H602    1.045   .     S
N601   H603    1.045   .     S
N604   H606    1.045   .     S
N604   H605    1.045   .     S
N607   H609    1.045   .     S
N607   H608    1.045   .     S
N610   H612    1.045   .     S
N610   H611    1.045   .     S
N613   H614    1.045   .     S
N613   H615    1.045   .     S
N616   H617    1.045   .     S
N616   H618    1.044   .     S
N619   H621    1.045   .     S
N619   H620    1.045   .     S
N622   H623    1.045   .     S
N622   H624    1.045   .     S
C625   C645    1.440   .     S
C625   O661    1.287   .     A
C625   O659    1.288   .     A
C626   O662    1.284   .     A
C626   C646    1.432   .     S
C626   O660    1.287   .     A
C627   H653    1.082   .     S
C627   C629    1.407   .     A
C627   C635    1.410   .     A
C628   C636    1.411   .     A
C628   C630    1.405   .     A
C628   H654    1.082   .     S
C629   N657    1.363   .     A
C629   H655    1.080   .     S
C630   H656    1.082   .     S
C630   N658    1.361   .     A
C631   N657    1.370   .     A
C631   N691    1.428   .     S
C631   C633    1.423   .     A
C632   N658    1.369   .     A
C632   C634    1.424   .     A
C632   N694    1.431   .     S
C633   N697    1.435   .     S
C633   C635    1.412   .     A
C634   N700    1.435   .     S
C634   C636    1.414   .     A
C636   C167    1.519   1_556 S
C637   O665    1.282   .     A
C637   C639    1.397   .     S
C637   O663    1.274   .     A
C638   O666    1.282   .     A
C638   C640    1.397   .     S
C638   O664    1.274   .     A
C640   C483    1.343   1_655 S
C640   Cl514   1.779   1_655 S
C641   C651    1.401   .     A
C641   Cl671   1.770   .     S
C641   C643    1.392   .     A
C642   C652    1.403   .     A
C642   Cl672   1.770   .     S
C642   C644    1.393   .     A
C643   C645    1.407   .     A
C643   N673    1.436   .     S
C644   C646    1.403   .     A
C644   N676    1.435   .     S
C645   C647    1.406   .     A
C646   C648    1.402   .     A
C647   N679    1.437   .     S
C647   C649    1.396   .     A
C648   C650    1.396   .     A
C648   N682    1.435   .     S
C649   N685    1.437   .     S
C649   C651    1.401   .     A
C650   N688    1.437   .     S
C650   C652    1.402   .     A
C651   C886    1.442   1_545 S
C652   C885    1.442   .     S
N657   Zn668   2.011   .     S
N658   Zn667   2.011   .     S
O659   Zn667   2.002   .     S
O660   Zn668   2.002   .     S
O661   Zn668   1.992   .     S
O662   Zn667   1.992   .     S
O663   Zn667   1.982   .     S
O664   Zn668   1.982   .     S
O665   Zn668   1.982   .     S
O666   Zn667   1.982   .     S
Cl669  C483    1.781   1_655 S
N673   H675    1.046   .     S
N673   H674    1.045   .     S
N676   H678    1.045   .     S
N676   H677    1.045   .     S
N679   H680    1.045   .     S
N679   H681    1.045   .     S
N682   H684    1.045   .     S
N682   H683    1.045   .     S
N685   H687    1.045   .     S
N685   H686    1.045   .     S
N688   H690    1.045   .     S
N688   H689    1.045   .     S
N691   H692    1.045   .     S
N691   H693    1.045   .     S
N694   H695    1.045   .     S
N694   H696    1.044   .     S
N697   H699    1.045   .     S
N697   H698    1.045   .     S
N700   H701    1.045   .     S
N700   H702    1.045   .     S
C703   C723    1.440   .     S
C703   O739    1.287   .     A
C703   O737    1.288   .     A
C704   O740    1.284   .     A
C704   C724    1.432   .     S
C704   O738    1.287   .     A
C705   H731    1.082   .     S
C705   C707    1.407   .     A
C705   C713    1.410   .     A
C706   C714    1.411   .     A
C706   C708    1.405   .     A
C706   H732    1.082   .     S
C707   N735    1.363   .     A
C707   H733    1.080   .     S
C708   H734    1.082   .     S
C708   N736    1.361   .     A
C709   N735    1.370   .     A
C709   N769    1.428   .     S
C709   C711    1.423   .     A
C710   N736    1.369   .     A
C710   C712    1.424   .     A
C710   N772    1.431   .     S
C711   N775    1.435   .     S
C711   C713    1.412   .     A
C712   N778    1.435   .     S
C712   C714    1.414   .     A
C714   C245    1.519   1_556 S
C715   O743    1.282   .     A
C715   C717    1.397   .     S
C715   O741    1.274   .     A
C716   O744    1.282   .     A
C716   C718    1.397   .     S
C716   O742    1.274   .     A
C717   C874    1.343   1_455 S
C717   Cl903   1.781   1_455 S
C718   C795    1.343   .     S
C718   Cl826   1.779   .     S
C719   C729    1.401   .     A
C719   Cl749   1.770   .     S
C719   C721    1.392   .     A
C720   C730    1.403   .     A
C720   Cl750   1.770   .     S
C720   C722    1.393   .     A
C721   C723    1.407   .     A
C721   N751    1.436   .     S
C722   C724    1.403   .     A
C722   N754    1.435   .     S
C723   C725    1.406   .     A
C724   C726    1.402   .     A
C725   N757    1.437   .     S
C725   C727    1.396   .     A
C726   C728    1.396   .     A
C726   N760    1.435   .     S
C727   N763    1.437   .     S
C727   C729    1.401   .     A
C728   N766    1.437   .     S
C728   C730    1.402   .     A
C730   C495    1.442   1_565 S
N735   Zn746   2.011   .     S
N736   Zn745   2.011   .     S
O737   Zn745   2.002   .     S
O738   Zn746   2.002   .     S
O739   Zn746   1.992   .     S
O740   Zn745   1.992   .     S
O741   Zn745   1.982   .     S
O742   Zn746   1.982   .     S
O743   Zn746   1.982   .     S
O744   Zn745   1.982   .     S
Cl747  C795    1.781   .     S
Cl748  C874    1.779   1_455 S
N751   H753    1.046   .     S
N751   H752    1.045   .     S
N754   H756    1.045   .     S
N754   H755    1.045   .     S
N757   H758    1.045   .     S
N757   H759    1.045   .     S
N760   H762    1.045   .     S
N760   H761    1.045   .     S
N763   H765    1.045   .     S
N763   H764    1.045   .     S
N766   H768    1.045   .     S
N766   H767    1.045   .     S
N769   H770    1.045   .     S
N769   H771    1.045   .     S
N772   H773    1.045   .     S
N772   H774    1.044   .     S
N775   H777    1.045   .     S
N775   H776    1.045   .     S
N778   H779    1.045   .     S
N778   H780    1.045   .     S
C781   C801    1.440   .     S
C781   O817    1.287   .     A
C781   O815    1.288   .     A
C782   O818    1.284   .     A
C782   C802    1.432   .     S
C782   O816    1.287   .     A
C783   H809    1.082   .     S
C783   C785    1.407   .     A
C783   C791    1.410   .     A
C784   C792    1.411   .     A
C784   C786    1.405   .     A
C784   H810    1.082   .     S
C785   N813    1.363   .     A
C785   H811    1.080   .     S
C786   H812    1.082   .     S
C786   N814    1.361   .     A
C787   N813    1.370   .     A
C787   N847    1.428   .     S
C787   C789    1.423   .     A
C788   N814    1.369   .     A
C788   C790    1.424   .     A
C788   N850    1.431   .     S
C789   N853    1.435   .     S
C789   C791    1.412   .     A
C790   N856    1.435   .     S
C790   C792    1.414   .     A
C792   C323    1.519   1_556 S
C793   O821    1.282   .     A
C793   C795    1.397   .     S
C793   O819    1.274   .     A
C794   O822    1.282   .     A
C794   C796    1.397   .     S
C794   O820    1.274   .     A
C796   C873    1.343   .     S
C796   Cl904   1.779   .     S
C797   C807    1.401   .     A
C797   Cl827   1.770   .     S
C797   C799    1.392   .     A
C798   C808    1.403   .     A
C798   Cl828   1.770   .     S
C798   C800    1.393   .     A
C799   C801    1.407   .     A
C799   N829    1.436   .     S
C800   C802    1.403   .     A
C800   N832    1.435   .     S
C801   C803    1.406   .     A
C802   C804    1.402   .     A
C803   N835    1.437   .     S
C803   C805    1.396   .     A
C804   C806    1.396   .     A
C804   N838    1.435   .     S
C805   N841    1.437   .     S
C805   C807    1.401   .     A
C806   N844    1.437   .     S
C806   C808    1.402   .     A
C808   C573    1.442   1_565 S
N813   Zn824   2.011   .     S
N814   Zn823   2.011   .     S
O815   Zn823   2.002   .     S
O816   Zn824   2.002   .     S
O817   Zn824   1.992   .     S
O818   Zn823   1.992   .     S
O819   Zn823   1.982   .     S
O820   Zn824   1.982   .     S
O821   Zn824   1.982   .     S
O822   Zn823   1.982   .     S
Cl825  C873    1.781   .     S
N829   H831    1.046   .     S
N829   H830    1.045   .     S
N832   H834    1.045   .     S
N832   H833    1.045   .     S
N835   H836    1.045   .     S
N835   H837    1.045   .     S
N838   H840    1.045   .     S
N838   H839    1.045   .     S
N841   H843    1.045   .     S
N841   H842    1.045   .     S
N844   H846    1.045   .     S
N844   H845    1.045   .     S
N847   H848    1.045   .     S
N847   H849    1.045   .     S
N850   H851    1.045   .     S
N850   H852    1.044   .     S
N853   H855    1.045   .     S
N853   H854    1.045   .     S
N856   H857    1.045   .     S
N856   H858    1.045   .     S
C859   C879    1.440   .     S
C859   O895    1.287   .     A
C859   O893    1.288   .     A
C860   O896    1.284   .     A
C860   C880    1.432   .     S
C860   O894    1.287   .     A
C861   H887    1.082   .     S
C861   C863    1.407   .     A
C861   C869    1.410   .     A
C862   C870    1.411   .     A
C862   C864    1.405   .     A
C862   H888    1.082   .     S
C863   N891    1.363   .     A
C863   H889    1.080   .     S
C864   H890    1.082   .     S
C864   N892    1.361   .     A
C865   N891    1.370   .     A
C865   N925    1.428   .     S
C865   C867    1.423   .     A
C866   N892    1.369   .     A
C866   C868    1.424   .     A
C866   N928    1.431   .     S
C867   N931    1.435   .     S
C867   C869    1.412   .     A
C868   N934    1.435   .     S
C868   C870    1.414   .     A
C870   C401    1.519   1_556 S
C871   O899    1.282   .     A
C871   C873    1.397   .     S
C871   O897    1.274   .     A
C872   O900    1.282   .     A
C872   C874    1.397   .     S
C872   O898    1.274   .     A
C874   C717    1.343   1_655 S
C874   Cl748   1.779   1_655 S
C875   C885    1.401   .     A
C875   Cl905   1.770   .     S
C875   C877    1.392   .     A
C876   C886    1.403   .     A
C876   Cl906   1.770   .     S
C876   C878    1.393   .     A
C877   C879    1.407   .     A
C877   N907    1.436   .     S
C878   C880    1.403   .     A
C878   N910    1.435   .     S
C879   C881    1.406   .     A
C880   C882    1.402   .     A
C881   N913    1.437   .     S
C881   C883    1.396   .     A
C882   C884    1.396   .     A
C882   N916    1.435   .     S
C883   N919    1.437   .     S
C883   C885    1.401   .     A
C884   N922    1.437   .     S
C884   C886    1.402   .     A
C886   C651    1.442   1_565 S
N891   Zn902   2.011   .     S
N892   Zn901   2.011   .     S
O893   Zn901   2.002   .     S
O894   Zn902   2.002   .     S
O895   Zn902   1.992   .     S
O896   Zn901   1.992   .     S
O897   Zn901   1.982   .     S
O898   Zn902   1.982   .     S
O899   Zn902   1.982   .     S
O900   Zn901   1.982   .     S
Cl903  C717    1.781   1_655 S
N907   H909    1.046   .     S
N907   H908    1.045   .     S
N910   H912    1.045   .     S
N910   H911    1.045   .     S
N913   H914    1.045   .     S
N913   H915    1.045   .     S
N916   H918    1.045   .     S
N916   H917    1.045   .     S
N919   H921    1.045   .     S
N919   H920    1.045   .     S
N922   H924    1.045   .     S
N922   H923    1.045   .     S
N925   H926    1.045   .     S
N925   H927    1.045   .     S
N928   H929    1.045   .     S
N928   H930    1.044   .     S
N931   H933    1.045   .     S
N931   H932    1.045   .     S
N934   H935    1.045   .     S
N934   H936    1.045   .     S
