data_str_m3_o1_o1_pcu_sym.49
_audit_creation_date              2020-01-03
_audit_creation_method            'Materials Studio'
_symmetry_space_group_name_H-M    'P1'
_symmetry_Int_Tables_number       1
_symmetry_cell_setting            triclinic
loop_
_symmetry_equiv_pos_as_xyz
  x,y,z
_cell_length_a                    31.1591
_cell_length_b                    29.6079
_cell_length_c                    29.7695
_cell_angle_alpha                 90.0016
_cell_angle_beta                  89.9998
_cell_angle_gamma                 90.0001
loop_
_atom_site_label
_atom_site_type_symbol
_atom_site_fract_x
_atom_site_fract_y
_atom_site_fract_z
_atom_site_U_iso_or_equiv
_atom_site_adp_type
_atom_site_occupancy
C1     C     0.06064   0.19074   0.16680   0.00000  Uiso   1.00
C2     C     0.00093   0.21017   0.30923   0.00000  Uiso   1.00
C3     C     0.49907   0.21017   0.02411   0.00000  Uiso   1.00
C4     C     0.49908   0.28983   0.30923   0.00000  Uiso   1.00
C5     C     0.25090   0.03983   0.02411   0.00000  Uiso   1.00
C6     C     0.25089   0.46017   0.30922   0.00000  Uiso   1.00
C7     C     0.24911   0.46017   0.02411   0.00000  Uiso   1.00
C8     C     0.24910   0.03983   0.30923   0.00000  Uiso   1.00
C9     C     0.39049   0.14150   0.12496   0.00000  Uiso   1.00
C10    C     0.11085   0.35741   0.20657   0.00000  Uiso   1.00
C11    C     0.10955   0.35845   0.12496   0.00000  Uiso   1.00
C12    C     0.43936   0.30925   0.16680   0.00000  Uiso   1.00
C13    C     0.38910   0.14266   0.20656   0.00000  Uiso   1.00
C14    C     0.10950   0.14149   0.20836   0.00000  Uiso   1.00
C15    C     0.38916   0.35741   0.12676   0.00000  Uiso   1.00
C16    C     0.39045   0.35845   0.20837   0.00000  Uiso   1.00
C17    C     0.11086   0.14260   0.12677   0.00000  Uiso   1.00
C18    C     0.14058   0.39141   0.12496   0.00000  Uiso   1.00
C19    C     0.36094   0.10731   0.20656   0.00000  Uiso   1.00
C20    C     0.35947   0.10854   0.12496   0.00000  Uiso   1.00
C21    C     0.13900   0.39277   0.20655   0.00000  Uiso   1.00
C22    C     0.35942   0.39141   0.20837   0.00000  Uiso   1.00
C23    C     0.43936   0.19075   0.16654   0.00000  Uiso   1.00
C24    C     0.13903   0.10726   0.12678   0.00000  Uiso   1.00
C25    C     0.14053   0.10854   0.20837   0.00000  Uiso   1.00
C26    C     0.36100   0.39276   0.12678   0.00000  Uiso   1.00
C27    C     0.09448   0.34169   0.16597   0.00000  Uiso   1.00
C28    C     0.40552   0.15831   0.16597   0.00000  Uiso   1.00
C29    C     0.40552   0.34169   0.16736   0.00000  Uiso   1.00
C30    C     0.09446   0.15829   0.16736   0.00000  Uiso   1.00
C31    C     0.34448   0.09169   0.16597   0.00000  Uiso   1.00
C32    C     0.15551   0.40832   0.16596   0.00000  Uiso   1.00
C33    C     0.15551   0.09167   0.16736   0.00000  Uiso   1.00
C34    C     0.06064   0.30925   0.16654   0.00000  Uiso   1.00
C35    C     0.34448   0.40832   0.16737   0.00000  Uiso   1.00
C36    C     0.47182   0.36238   0.04976   0.00000  Uiso   1.00
C37    C     0.47170   0.13767   0.28361   0.00000  Uiso   1.00
C38    C     0.02822   0.13764   0.04973   0.00000  Uiso   1.00
C39    C     0.02822   0.36238   0.28362   0.00000  Uiso   1.00
C40    C     0.22155   0.11231   0.04963   0.00000  Uiso   1.00
C41    C     0.22142   0.38773   0.28375   0.00000  Uiso   1.00
C42    C     0.27855   0.38772   0.04958   0.00000  Uiso   1.00
C43    C     0.27844   0.11232   0.28371   0.00000  Uiso   1.00
C44    C     0.31064   0.44075   0.16680   0.00000  Uiso   1.00
C45    C     0.18936   0.05925   0.16680   0.00000  Uiso   1.00
C46    C     0.18935   0.44075   0.16653   0.00000  Uiso   1.00
C47    C     0.31064   0.05925   0.16654   0.00000  Uiso   1.00
C48    C     0.00093   0.28983   0.02411   0.00000  Uiso   1.00
H49    H     0.40234   0.15383   0.09307   0.00000  Uiso   1.00
H50    H     0.35185   0.09270   0.23827   0.00000  Uiso   1.00
H51    H     0.34759   0.09624   0.09307   0.00000  Uiso   1.00
H52    H     0.14804   0.40743   0.23826   0.00000  Uiso   1.00
H53    H     0.34750   0.40366   0.24026   0.00000  Uiso   1.00
H54    H     0.14811   0.09264   0.09507   0.00000  Uiso   1.00
H55    H     0.15243   0.09626   0.24025   0.00000  Uiso   1.00
H56    H     0.35196   0.40742   0.09508   0.00000  Uiso   1.00
H57    H     0.03664   0.34563   0.04321   0.00000  Uiso   1.00
H58    H     0.47938   0.39323   0.03031   0.00000  Uiso   1.00
H59    H     0.46700   0.37326   0.08499   0.00000  Uiso   1.00
H60    H     0.10170   0.34287   0.23829   0.00000  Uiso   1.00
H61    H     0.44190   0.34734   0.03608   0.00000  Uiso   1.00
H62    H     0.03653   0.15430   0.29019   0.00000  Uiso   1.00
H63    H     0.47917   0.10686   0.30317   0.00000  Uiso   1.00
H64    H     0.46690   0.12671   0.24840   0.00000  Uiso   1.00
H65    H     0.44179   0.15281   0.29721   0.00000  Uiso   1.00
H66    H     0.46340   0.15436   0.04321   0.00000  Uiso   1.00
H67    H     0.02071   0.10685   0.03016   0.00000  Uiso   1.00
H68    H     0.03300   0.12666   0.08495   0.00000  Uiso   1.00
H69    H     0.05815   0.15274   0.03613   0.00000  Uiso   1.00
H70    H     0.46340   0.34564   0.29011   0.00000  Uiso   1.00
H71    H     0.09775   0.34607   0.09307   0.00000  Uiso   1.00
H72    H     0.02069   0.39320   0.30314   0.00000  Uiso   1.00
H73    H     0.03303   0.37332   0.24841   0.00000  Uiso   1.00
H74    H     0.05815   0.34730   0.29726   0.00000  Uiso   1.00
H75    H     0.28642   0.09572   0.04331   0.00000  Uiso   1.00
H76    H     0.22902   0.14310   0.03005   0.00000  Uiso   1.00
H77    H     0.21670   0.12333   0.08481   0.00000  Uiso   1.00
H78    H     0.19166   0.09713   0.03602   0.00000  Uiso   1.00
H79    H     0.28633   0.40423   0.28998   0.00000  Uiso   1.00
H80    H     0.22883   0.35698   0.30343   0.00000  Uiso   1.00
H81    H     0.21658   0.37664   0.24859   0.00000  Uiso   1.00
H82    H     0.39820   0.15724   0.23827   0.00000  Uiso   1.00
H83    H     0.19155   0.40301   0.29731   0.00000  Uiso   1.00
H84    H     0.21365   0.40424   0.04334   0.00000  Uiso   1.00
H85    H     0.27115   0.35698   0.02988   0.00000  Uiso   1.00
H86    H     0.28339   0.37660   0.08473   0.00000  Uiso   1.00
H87    H     0.30843   0.40299   0.03602   0.00000  Uiso   1.00
H88    H     0.21357   0.09571   0.29003   0.00000  Uiso   1.00
H89    H     0.27097   0.14308   0.30334   0.00000  Uiso   1.00
H90    H     0.28327   0.12336   0.24854   0.00000  Uiso   1.00
H91    H     0.30833   0.09712   0.29730   0.00000  Uiso   1.00
H92    H     0.09766   0.15384   0.24025   0.00000  Uiso   1.00
H93    H     0.39831   0.34288   0.09504   0.00000  Uiso   1.00
H94    H     0.40226   0.34607   0.24026   0.00000  Uiso   1.00
H95    H     0.10173   0.15716   0.09506   0.00000  Uiso   1.00
H96    H     0.15250   0.40366   0.09307   0.00000  Uiso   1.00
N97    N     0.00000   0.25000   0.28573   0.00000  Uiso   1.00
N98    N     0.25688   0.41923   0.28507   0.00000  Uiso   1.00
N99    N     0.24311   0.41923   0.04826   0.00000  Uiso   1.00
N100   N     0.24303   0.08076   0.28508   0.00000  Uiso   1.00
N101   N    -0.00000   0.25000   0.04760   0.00000  Uiso   1.00
N102   N     0.25000   0.00000   0.28573   0.00000  Uiso   1.00
N103   N     0.25000   0.00000   0.04760   0.00000  Uiso   1.00
N104   N     0.00715   0.33074   0.04824   0.00000  Uiso   1.00
N105   N     0.00709   0.16925   0.28510   0.00000  Uiso   1.00
N106   N     0.49288   0.16926   0.04824   0.00000  Uiso   1.00
N107   N     0.49288   0.33075   0.28510   0.00000  Uiso   1.00
N108   N     0.25696   0.08076   0.04825   0.00000  Uiso   1.00
O109   O     0.04580   0.20419   0.20487   0.00000  Uiso   1.00
O110   O     0.20419   0.04581   0.12846   0.00000  Uiso   1.00
O111   O     0.20419   0.04581   0.20487   0.00000  Uiso   1.00
O112   O     0.29580   0.45419   0.12846   0.00000  Uiso   1.00
O113   O     0.20419   0.45419   0.12846   0.00000  Uiso   1.00
O114   O     0.29580   0.04581   0.20487   0.00000  Uiso   1.00
O115   O     0.29580   0.04581   0.12846   0.00000  Uiso   1.00
O116   O     0.20419   0.45419   0.20487   0.00000  Uiso   1.00
O117   O     0.45419   0.29581   0.12846   0.00000  Uiso   1.00
O118   O     0.45419   0.29581   0.20487   0.00000  Uiso   1.00
O119   O     0.04580   0.20419   0.12846   0.00000  Uiso   1.00
O120   O     0.45419   0.20419   0.12846   0.00000  Uiso   1.00
O121   O     0.04580   0.29581   0.20487   0.00000  Uiso   1.00
O122   O     0.04580   0.29581   0.12846   0.00000  Uiso   1.00
O123   O     0.45419   0.20419   0.20487   0.00000  Uiso   1.00
O124   O     0.29580   0.45419   0.20487   0.00000  Uiso   1.00
Zn125  Zn    0.00000   0.25000   0.21771   0.00000  Uiso   1.00
Zn126  Zn   -0.00000   0.25000   0.11563   0.00000  Uiso   1.00
Zn127  Zn    0.25000   0.00000   0.21771   0.00000  Uiso   1.00
Zn128  Zn    0.25000   0.00000   0.11563   0.00000  Uiso   1.00
C129   C     0.56064   0.19074   0.16680   0.00000  Uiso   1.00
C130   C     0.50093   0.21017   0.30923   0.00000  Uiso   1.00
C131   C     0.99907   0.21017   0.02411   0.00000  Uiso   1.00
C132   C     0.99908   0.28983   0.30923   0.00000  Uiso   1.00
C133   C     0.75090   0.03983   0.02411   0.00000  Uiso   1.00
C134   C     0.75089   0.46017   0.30922   0.00000  Uiso   1.00
C135   C     0.74911   0.46017   0.02411   0.00000  Uiso   1.00
C136   C     0.74910   0.03983   0.30923   0.00000  Uiso   1.00
C137   C     0.89049   0.14150   0.12496   0.00000  Uiso   1.00
C138   C     0.61085   0.35741   0.20657   0.00000  Uiso   1.00
C139   C     0.60955   0.35845   0.12496   0.00000  Uiso   1.00
C140   C     0.93936   0.30925   0.16680   0.00000  Uiso   1.00
C141   C     0.88910   0.14266   0.20656   0.00000  Uiso   1.00
C142   C     0.60950   0.14149   0.20836   0.00000  Uiso   1.00
C143   C     0.88916   0.35741   0.12676   0.00000  Uiso   1.00
C144   C     0.89045   0.35845   0.20837   0.00000  Uiso   1.00
C145   C     0.61086   0.14260   0.12677   0.00000  Uiso   1.00
C146   C     0.64058   0.39141   0.12496   0.00000  Uiso   1.00
C147   C     0.86094   0.10731   0.20656   0.00000  Uiso   1.00
C148   C     0.85947   0.10854   0.12496   0.00000  Uiso   1.00
C149   C     0.63900   0.39277   0.20655   0.00000  Uiso   1.00
C150   C     0.85942   0.39141   0.20837   0.00000  Uiso   1.00
C151   C     0.93936   0.19075   0.16654   0.00000  Uiso   1.00
C152   C     0.63903   0.10726   0.12678   0.00000  Uiso   1.00
C153   C     0.64053   0.10854   0.20837   0.00000  Uiso   1.00
C154   C     0.86100   0.39276   0.12678   0.00000  Uiso   1.00
C155   C     0.59448   0.34169   0.16597   0.00000  Uiso   1.00
C156   C     0.90552   0.15831   0.16597   0.00000  Uiso   1.00
C157   C     0.90552   0.34169   0.16736   0.00000  Uiso   1.00
C158   C     0.59446   0.15829   0.16736   0.00000  Uiso   1.00
C159   C     0.84448   0.09169   0.16597   0.00000  Uiso   1.00
C160   C     0.65551   0.40832   0.16596   0.00000  Uiso   1.00
C161   C     0.65551   0.09167   0.16736   0.00000  Uiso   1.00
C162   C     0.56064   0.30925   0.16654   0.00000  Uiso   1.00
C163   C     0.84448   0.40832   0.16737   0.00000  Uiso   1.00
C164   C     0.97182   0.36238   0.04976   0.00000  Uiso   1.00
C165   C     0.97170   0.13767   0.28361   0.00000  Uiso   1.00
C166   C     0.52822   0.13764   0.04973   0.00000  Uiso   1.00
C167   C     0.52822   0.36238   0.28362   0.00000  Uiso   1.00
C168   C     0.72155   0.11231   0.04963   0.00000  Uiso   1.00
C169   C     0.72142   0.38773   0.28375   0.00000  Uiso   1.00
C170   C     0.77855   0.38772   0.04958   0.00000  Uiso   1.00
C171   C     0.77844   0.11232   0.28371   0.00000  Uiso   1.00
C172   C     0.81064   0.44075   0.16680   0.00000  Uiso   1.00
C173   C     0.68936   0.05925   0.16680   0.00000  Uiso   1.00
C174   C     0.68935   0.44075   0.16653   0.00000  Uiso   1.00
C175   C     0.81064   0.05925   0.16654   0.00000  Uiso   1.00
C176   C     0.50093   0.28983   0.02411   0.00000  Uiso   1.00
H177   H     0.90234   0.15383   0.09307   0.00000  Uiso   1.00
H178   H     0.85185   0.09270   0.23827   0.00000  Uiso   1.00
H179   H     0.84759   0.09624   0.09307   0.00000  Uiso   1.00
H180   H     0.64804   0.40743   0.23826   0.00000  Uiso   1.00
H181   H     0.84750   0.40366   0.24026   0.00000  Uiso   1.00
H182   H     0.64811   0.09264   0.09507   0.00000  Uiso   1.00
H183   H     0.65243   0.09626   0.24025   0.00000  Uiso   1.00
H184   H     0.85196   0.40742   0.09508   0.00000  Uiso   1.00
H185   H     0.53664   0.34563   0.04321   0.00000  Uiso   1.00
H186   H     0.97938   0.39323   0.03031   0.00000  Uiso   1.00
H187   H     0.96700   0.37326   0.08499   0.00000  Uiso   1.00
H188   H     0.60170   0.34287   0.23829   0.00000  Uiso   1.00
H189   H     0.94190   0.34734   0.03608   0.00000  Uiso   1.00
H190   H     0.53653   0.15430   0.29019   0.00000  Uiso   1.00
H191   H     0.97917   0.10686   0.30317   0.00000  Uiso   1.00
H192   H     0.96690   0.12671   0.24840   0.00000  Uiso   1.00
H193   H     0.94179   0.15281   0.29721   0.00000  Uiso   1.00
H194   H     0.96340   0.15436   0.04321   0.00000  Uiso   1.00
H195   H     0.52071   0.10685   0.03016   0.00000  Uiso   1.00
H196   H     0.53300   0.12666   0.08495   0.00000  Uiso   1.00
H197   H     0.55815   0.15274   0.03613   0.00000  Uiso   1.00
H198   H     0.96340   0.34564   0.29011   0.00000  Uiso   1.00
H199   H     0.59775   0.34607   0.09307   0.00000  Uiso   1.00
H200   H     0.52069   0.39320   0.30314   0.00000  Uiso   1.00
H201   H     0.53303   0.37332   0.24841   0.00000  Uiso   1.00
H202   H     0.55815   0.34730   0.29726   0.00000  Uiso   1.00
H203   H     0.78642   0.09572   0.04331   0.00000  Uiso   1.00
H204   H     0.72902   0.14310   0.03005   0.00000  Uiso   1.00
H205   H     0.71670   0.12333   0.08481   0.00000  Uiso   1.00
H206   H     0.69166   0.09713   0.03602   0.00000  Uiso   1.00
H207   H     0.78633   0.40423   0.28998   0.00000  Uiso   1.00
H208   H     0.72883   0.35698   0.30343   0.00000  Uiso   1.00
H209   H     0.71658   0.37664   0.24859   0.00000  Uiso   1.00
H210   H     0.89820   0.15724   0.23827   0.00000  Uiso   1.00
H211   H     0.69155   0.40301   0.29731   0.00000  Uiso   1.00
H212   H     0.71365   0.40424   0.04334   0.00000  Uiso   1.00
H213   H     0.77115   0.35698   0.02988   0.00000  Uiso   1.00
H214   H     0.78339   0.37660   0.08473   0.00000  Uiso   1.00
H215   H     0.80843   0.40299   0.03602   0.00000  Uiso   1.00
H216   H     0.71357   0.09571   0.29003   0.00000  Uiso   1.00
H217   H     0.77097   0.14308   0.30334   0.00000  Uiso   1.00
H218   H     0.78327   0.12336   0.24854   0.00000  Uiso   1.00
H219   H     0.80833   0.09712   0.29730   0.00000  Uiso   1.00
H220   H     0.59766   0.15384   0.24025   0.00000  Uiso   1.00
H221   H     0.89831   0.34288   0.09504   0.00000  Uiso   1.00
H222   H     0.90226   0.34607   0.24026   0.00000  Uiso   1.00
H223   H     0.60173   0.15716   0.09506   0.00000  Uiso   1.00
H224   H     0.65250   0.40366   0.09307   0.00000  Uiso   1.00
N225   N     0.50000   0.25000   0.28573   0.00000  Uiso   1.00
N226   N     0.75688   0.41923   0.28507   0.00000  Uiso   1.00
N227   N     0.74311   0.41923   0.04826   0.00000  Uiso   1.00
N228   N     0.74303   0.08076   0.28508   0.00000  Uiso   1.00
N229   N     0.50000   0.25000   0.04760   0.00000  Uiso   1.00
N230   N     0.75000   0.00000   0.28573   0.00000  Uiso   1.00
N231   N     0.75000   0.00000   0.04760   0.00000  Uiso   1.00
N232   N     0.50715   0.33074   0.04824   0.00000  Uiso   1.00
N233   N     0.50709   0.16925   0.28510   0.00000  Uiso   1.00
N234   N     0.99288   0.16926   0.04824   0.00000  Uiso   1.00
N235   N     0.99288   0.33075   0.28510   0.00000  Uiso   1.00
N236   N     0.75696   0.08076   0.04825   0.00000  Uiso   1.00
O237   O     0.54580   0.20419   0.20487   0.00000  Uiso   1.00
O238   O     0.70419   0.04581   0.12846   0.00000  Uiso   1.00
O239   O     0.70419   0.04581   0.20487   0.00000  Uiso   1.00
O240   O     0.79580   0.45419   0.12846   0.00000  Uiso   1.00
O241   O     0.70419   0.45419   0.12846   0.00000  Uiso   1.00
O242   O     0.79580   0.04581   0.20487   0.00000  Uiso   1.00
O243   O     0.79580   0.04581   0.12846   0.00000  Uiso   1.00
O244   O     0.70419   0.45419   0.20487   0.00000  Uiso   1.00
O245   O     0.95419   0.29581   0.12846   0.00000  Uiso   1.00
O246   O     0.95419   0.29581   0.20487   0.00000  Uiso   1.00
O247   O     0.54580   0.20419   0.12846   0.00000  Uiso   1.00
O248   O     0.95419   0.20419   0.12846   0.00000  Uiso   1.00
O249   O     0.54580   0.29581   0.20487   0.00000  Uiso   1.00
O250   O     0.54580   0.29581   0.12846   0.00000  Uiso   1.00
O251   O     0.95419   0.20419   0.20487   0.00000  Uiso   1.00
O252   O     0.79580   0.45419   0.20487   0.00000  Uiso   1.00
Zn253  Zn    0.50000   0.25000   0.21771   0.00000  Uiso   1.00
Zn254  Zn    0.50000   0.25000   0.11563   0.00000  Uiso   1.00
Zn255  Zn    0.75000   0.00000   0.21771   0.00000  Uiso   1.00
Zn256  Zn    0.75000   0.00000   0.11563   0.00000  Uiso   1.00
C257   C     0.06064   0.69074   0.16680   0.00000  Uiso   1.00
C258   C     0.00093   0.71017   0.30923   0.00000  Uiso   1.00
C259   C     0.49907   0.71017   0.02411   0.00000  Uiso   1.00
C260   C     0.49908   0.78983   0.30923   0.00000  Uiso   1.00
C261   C     0.25090   0.53983   0.02411   0.00000  Uiso   1.00
C262   C     0.25089   0.96017   0.30922   0.00000  Uiso   1.00
C263   C     0.24911   0.96017   0.02411   0.00000  Uiso   1.00
C264   C     0.24910   0.53983   0.30923   0.00000  Uiso   1.00
C265   C     0.39049   0.64150   0.12496   0.00000  Uiso   1.00
C266   C     0.11085   0.85741   0.20657   0.00000  Uiso   1.00
C267   C     0.10955   0.85845   0.12496   0.00000  Uiso   1.00
C268   C     0.43936   0.80925   0.16680   0.00000  Uiso   1.00
C269   C     0.38910   0.64266   0.20656   0.00000  Uiso   1.00
C270   C     0.10950   0.64149   0.20836   0.00000  Uiso   1.00
C271   C     0.38916   0.85741   0.12676   0.00000  Uiso   1.00
C272   C     0.39045   0.85845   0.20837   0.00000  Uiso   1.00
C273   C     0.11086   0.64260   0.12677   0.00000  Uiso   1.00
C274   C     0.14058   0.89141   0.12496   0.00000  Uiso   1.00
C275   C     0.36094   0.60731   0.20656   0.00000  Uiso   1.00
C276   C     0.35947   0.60854   0.12496   0.00000  Uiso   1.00
C277   C     0.13900   0.89277   0.20655   0.00000  Uiso   1.00
C278   C     0.35942   0.89141   0.20837   0.00000  Uiso   1.00
C279   C     0.43936   0.69075   0.16654   0.00000  Uiso   1.00
C280   C     0.13903   0.60726   0.12678   0.00000  Uiso   1.00
C281   C     0.14053   0.60854   0.20837   0.00000  Uiso   1.00
C282   C     0.36100   0.89276   0.12678   0.00000  Uiso   1.00
C283   C     0.09448   0.84169   0.16597   0.00000  Uiso   1.00
C284   C     0.40552   0.65831   0.16597   0.00000  Uiso   1.00
C285   C     0.40552   0.84169   0.16736   0.00000  Uiso   1.00
C286   C     0.09446   0.65829   0.16736   0.00000  Uiso   1.00
C287   C     0.34448   0.59169   0.16597   0.00000  Uiso   1.00
C288   C     0.15551   0.90832   0.16596   0.00000  Uiso   1.00
C289   C     0.15551   0.59167   0.16736   0.00000  Uiso   1.00
C290   C     0.06064   0.80925   0.16654   0.00000  Uiso   1.00
C291   C     0.34448   0.90832   0.16737   0.00000  Uiso   1.00
C292   C     0.47182   0.86238   0.04976   0.00000  Uiso   1.00
C293   C     0.47170   0.63767   0.28361   0.00000  Uiso   1.00
C294   C     0.02822   0.63764   0.04973   0.00000  Uiso   1.00
C295   C     0.02822   0.86238   0.28362   0.00000  Uiso   1.00
C296   C     0.22155   0.61231   0.04963   0.00000  Uiso   1.00
C297   C     0.22142   0.88773   0.28375   0.00000  Uiso   1.00
C298   C     0.27855   0.88772   0.04958   0.00000  Uiso   1.00
C299   C     0.27844   0.61232   0.28371   0.00000  Uiso   1.00
C300   C     0.31064   0.94075   0.16680   0.00000  Uiso   1.00
C301   C     0.18936   0.55925   0.16680   0.00000  Uiso   1.00
C302   C     0.18935   0.94075   0.16653   0.00000  Uiso   1.00
C303   C     0.31064   0.55925   0.16654   0.00000  Uiso   1.00
C304   C     0.00093   0.78983   0.02411   0.00000  Uiso   1.00
H305   H     0.40234   0.65383   0.09307   0.00000  Uiso   1.00
H306   H     0.35185   0.59270   0.23827   0.00000  Uiso   1.00
H307   H     0.34759   0.59624   0.09307   0.00000  Uiso   1.00
H308   H     0.14804   0.90743   0.23826   0.00000  Uiso   1.00
H309   H     0.34750   0.90366   0.24026   0.00000  Uiso   1.00
H310   H     0.14811   0.59264   0.09507   0.00000  Uiso   1.00
H311   H     0.15243   0.59626   0.24025   0.00000  Uiso   1.00
H312   H     0.35196   0.90742   0.09508   0.00000  Uiso   1.00
H313   H     0.03664   0.84563   0.04321   0.00000  Uiso   1.00
H314   H     0.47938   0.89323   0.03031   0.00000  Uiso   1.00
H315   H     0.46700   0.87326   0.08499   0.00000  Uiso   1.00
H316   H     0.10170   0.84287   0.23829   0.00000  Uiso   1.00
H317   H     0.44190   0.84734   0.03608   0.00000  Uiso   1.00
H318   H     0.03653   0.65430   0.29019   0.00000  Uiso   1.00
H319   H     0.47917   0.60686   0.30317   0.00000  Uiso   1.00
H320   H     0.46690   0.62671   0.24840   0.00000  Uiso   1.00
H321   H     0.44179   0.65281   0.29721   0.00000  Uiso   1.00
H322   H     0.46340   0.65436   0.04321   0.00000  Uiso   1.00
H323   H     0.02071   0.60685   0.03016   0.00000  Uiso   1.00
H324   H     0.03300   0.62666   0.08495   0.00000  Uiso   1.00
H325   H     0.05815   0.65274   0.03613   0.00000  Uiso   1.00
H326   H     0.46340   0.84564   0.29011   0.00000  Uiso   1.00
H327   H     0.09775   0.84607   0.09307   0.00000  Uiso   1.00
H328   H     0.02069   0.89320   0.30314   0.00000  Uiso   1.00
H329   H     0.03303   0.87332   0.24841   0.00000  Uiso   1.00
H330   H     0.05815   0.84730   0.29726   0.00000  Uiso   1.00
H331   H     0.28642   0.59572   0.04331   0.00000  Uiso   1.00
H332   H     0.22902   0.64310   0.03005   0.00000  Uiso   1.00
H333   H     0.21670   0.62333   0.08481   0.00000  Uiso   1.00
H334   H     0.19166   0.59713   0.03602   0.00000  Uiso   1.00
H335   H     0.28633   0.90423   0.28998   0.00000  Uiso   1.00
H336   H     0.22883   0.85698   0.30343   0.00000  Uiso   1.00
H337   H     0.21658   0.87664   0.24859   0.00000  Uiso   1.00
H338   H     0.39820   0.65724   0.23827   0.00000  Uiso   1.00
H339   H     0.19155   0.90301   0.29731   0.00000  Uiso   1.00
H340   H     0.21365   0.90424   0.04334   0.00000  Uiso   1.00
H341   H     0.27115   0.85698   0.02988   0.00000  Uiso   1.00
H342   H     0.28339   0.87660   0.08473   0.00000  Uiso   1.00
H343   H     0.30843   0.90299   0.03602   0.00000  Uiso   1.00
H344   H     0.21357   0.59571   0.29003   0.00000  Uiso   1.00
H345   H     0.27097   0.64308   0.30334   0.00000  Uiso   1.00
H346   H     0.28327   0.62336   0.24854   0.00000  Uiso   1.00
H347   H     0.30833   0.59712   0.29730   0.00000  Uiso   1.00
H348   H     0.09766   0.65384   0.24025   0.00000  Uiso   1.00
H349   H     0.39831   0.84288   0.09504   0.00000  Uiso   1.00
H350   H     0.40226   0.84607   0.24026   0.00000  Uiso   1.00
H351   H     0.10173   0.65716   0.09506   0.00000  Uiso   1.00
H352   H     0.15250   0.90366   0.09307   0.00000  Uiso   1.00
N353   N     0.00000   0.75000   0.28573   0.00000  Uiso   1.00
N354   N     0.25688   0.91923   0.28507   0.00000  Uiso   1.00
N355   N     0.24311   0.91923   0.04826   0.00000  Uiso   1.00
N356   N     0.24303   0.58076   0.28508   0.00000  Uiso   1.00
N357   N    -0.00000   0.75000   0.04760   0.00000  Uiso   1.00
N358   N     0.25000   0.50000   0.28573   0.00000  Uiso   1.00
N359   N     0.25000   0.50000   0.04760   0.00000  Uiso   1.00
N360   N     0.00715   0.83074   0.04824   0.00000  Uiso   1.00
N361   N     0.00709   0.66925   0.28510   0.00000  Uiso   1.00
N362   N     0.49288   0.66926   0.04824   0.00000  Uiso   1.00
N363   N     0.49288   0.83075   0.28510   0.00000  Uiso   1.00
N364   N     0.25696   0.58076   0.04825   0.00000  Uiso   1.00
O365   O     0.04580   0.70419   0.20487   0.00000  Uiso   1.00
O366   O     0.20419   0.54581   0.12846   0.00000  Uiso   1.00
O367   O     0.20419   0.54581   0.20487   0.00000  Uiso   1.00
O368   O     0.29580   0.95419   0.12846   0.00000  Uiso   1.00
O369   O     0.20419   0.95419   0.12846   0.00000  Uiso   1.00
O370   O     0.29580   0.54581   0.20487   0.00000  Uiso   1.00
O371   O     0.29580   0.54581   0.12846   0.00000  Uiso   1.00
O372   O     0.20419   0.95419   0.20487   0.00000  Uiso   1.00
O373   O     0.45419   0.79581   0.12846   0.00000  Uiso   1.00
O374   O     0.45419   0.79581   0.20487   0.00000  Uiso   1.00
O375   O     0.04580   0.70419   0.12846   0.00000  Uiso   1.00
O376   O     0.45419   0.70419   0.12846   0.00000  Uiso   1.00
O377   O     0.04580   0.79581   0.20487   0.00000  Uiso   1.00
O378   O     0.04580   0.79581   0.12846   0.00000  Uiso   1.00
O379   O     0.45419   0.70419   0.20487   0.00000  Uiso   1.00
O380   O     0.29580   0.95419   0.20487   0.00000  Uiso   1.00
Zn381  Zn    0.00000   0.75000   0.21771   0.00000  Uiso   1.00
Zn382  Zn   -0.00000   0.75000   0.11563   0.00000  Uiso   1.00
Zn383  Zn    0.25000   0.50000   0.21771   0.00000  Uiso   1.00
Zn384  Zn    0.25000   0.50000   0.11563   0.00000  Uiso   1.00
C385   C     0.56064   0.69074   0.16680   0.00000  Uiso   1.00
C386   C     0.50093   0.71017   0.30923   0.00000  Uiso   1.00
C387   C     0.99907   0.71017   0.02411   0.00000  Uiso   1.00
C388   C     0.99908   0.78983   0.30923   0.00000  Uiso   1.00
C389   C     0.75090   0.53983   0.02411   0.00000  Uiso   1.00
C390   C     0.75089   0.96017   0.30922   0.00000  Uiso   1.00
C391   C     0.74911   0.96017   0.02411   0.00000  Uiso   1.00
C392   C     0.74910   0.53983   0.30923   0.00000  Uiso   1.00
C393   C     0.89049   0.64150   0.12496   0.00000  Uiso   1.00
C394   C     0.61085   0.85741   0.20657   0.00000  Uiso   1.00
C395   C     0.60955   0.85845   0.12496   0.00000  Uiso   1.00
C396   C     0.93936   0.80925   0.16680   0.00000  Uiso   1.00
C397   C     0.88910   0.64266   0.20656   0.00000  Uiso   1.00
C398   C     0.60950   0.64149   0.20836   0.00000  Uiso   1.00
C399   C     0.88916   0.85741   0.12676   0.00000  Uiso   1.00
C400   C     0.89045   0.85845   0.20837   0.00000  Uiso   1.00
C401   C     0.61086   0.64260   0.12677   0.00000  Uiso   1.00
C402   C     0.64058   0.89141   0.12496   0.00000  Uiso   1.00
C403   C     0.86094   0.60731   0.20656   0.00000  Uiso   1.00
C404   C     0.85947   0.60854   0.12496   0.00000  Uiso   1.00
C405   C     0.63900   0.89277   0.20655   0.00000  Uiso   1.00
C406   C     0.85942   0.89141   0.20837   0.00000  Uiso   1.00
C407   C     0.93936   0.69075   0.16654   0.00000  Uiso   1.00
C408   C     0.63903   0.60726   0.12678   0.00000  Uiso   1.00
C409   C     0.64053   0.60854   0.20837   0.00000  Uiso   1.00
C410   C     0.86100   0.89276   0.12678   0.00000  Uiso   1.00
C411   C     0.59448   0.84169   0.16597   0.00000  Uiso   1.00
C412   C     0.90552   0.65831   0.16597   0.00000  Uiso   1.00
C413   C     0.90552   0.84169   0.16736   0.00000  Uiso   1.00
C414   C     0.59446   0.65829   0.16736   0.00000  Uiso   1.00
C415   C     0.84448   0.59169   0.16597   0.00000  Uiso   1.00
C416   C     0.65551   0.90832   0.16596   0.00000  Uiso   1.00
C417   C     0.65551   0.59167   0.16736   0.00000  Uiso   1.00
C418   C     0.56064   0.80925   0.16654   0.00000  Uiso   1.00
C419   C     0.84448   0.90832   0.16737   0.00000  Uiso   1.00
C420   C     0.97182   0.86238   0.04976   0.00000  Uiso   1.00
C421   C     0.97170   0.63767   0.28361   0.00000  Uiso   1.00
C422   C     0.52822   0.63764   0.04973   0.00000  Uiso   1.00
C423   C     0.52822   0.86238   0.28362   0.00000  Uiso   1.00
C424   C     0.72155   0.61231   0.04963   0.00000  Uiso   1.00
C425   C     0.72142   0.88773   0.28375   0.00000  Uiso   1.00
C426   C     0.77855   0.88772   0.04958   0.00000  Uiso   1.00
C427   C     0.77844   0.61232   0.28371   0.00000  Uiso   1.00
C428   C     0.81064   0.94075   0.16680   0.00000  Uiso   1.00
C429   C     0.68936   0.55925   0.16680   0.00000  Uiso   1.00
C430   C     0.68935   0.94075   0.16653   0.00000  Uiso   1.00
C431   C     0.81064   0.55925   0.16654   0.00000  Uiso   1.00
C432   C     0.50093   0.78983   0.02411   0.00000  Uiso   1.00
H433   H     0.90234   0.65383   0.09307   0.00000  Uiso   1.00
H434   H     0.85185   0.59270   0.23827   0.00000  Uiso   1.00
H435   H     0.84759   0.59624   0.09307   0.00000  Uiso   1.00
H436   H     0.64804   0.90743   0.23826   0.00000  Uiso   1.00
H437   H     0.84750   0.90366   0.24026   0.00000  Uiso   1.00
H438   H     0.64811   0.59264   0.09507   0.00000  Uiso   1.00
H439   H     0.65243   0.59626   0.24025   0.00000  Uiso   1.00
H440   H     0.85196   0.90742   0.09508   0.00000  Uiso   1.00
H441   H     0.53664   0.84563   0.04321   0.00000  Uiso   1.00
H442   H     0.97938   0.89323   0.03031   0.00000  Uiso   1.00
H443   H     0.96700   0.87326   0.08499   0.00000  Uiso   1.00
H444   H     0.60170   0.84287   0.23829   0.00000  Uiso   1.00
H445   H     0.94190   0.84734   0.03608   0.00000  Uiso   1.00
H446   H     0.53653   0.65430   0.29019   0.00000  Uiso   1.00
H447   H     0.97917   0.60686   0.30317   0.00000  Uiso   1.00
H448   H     0.96690   0.62671   0.24840   0.00000  Uiso   1.00
H449   H     0.94179   0.65281   0.29721   0.00000  Uiso   1.00
H450   H     0.96340   0.65436   0.04321   0.00000  Uiso   1.00
H451   H     0.52071   0.60685   0.03016   0.00000  Uiso   1.00
H452   H     0.53300   0.62666   0.08495   0.00000  Uiso   1.00
H453   H     0.55815   0.65274   0.03613   0.00000  Uiso   1.00
H454   H     0.96340   0.84564   0.29011   0.00000  Uiso   1.00
H455   H     0.59775   0.84607   0.09307   0.00000  Uiso   1.00
H456   H     0.52069   0.89320   0.30314   0.00000  Uiso   1.00
H457   H     0.53303   0.87332   0.24841   0.00000  Uiso   1.00
H458   H     0.55815   0.84730   0.29726   0.00000  Uiso   1.00
H459   H     0.78642   0.59572   0.04331   0.00000  Uiso   1.00
H460   H     0.72902   0.64310   0.03005   0.00000  Uiso   1.00
H461   H     0.71670   0.62333   0.08481   0.00000  Uiso   1.00
H462   H     0.69166   0.59713   0.03602   0.00000  Uiso   1.00
H463   H     0.78633   0.90423   0.28998   0.00000  Uiso   1.00
H464   H     0.72883   0.85698   0.30343   0.00000  Uiso   1.00
H465   H     0.71658   0.87664   0.24859   0.00000  Uiso   1.00
H466   H     0.89820   0.65724   0.23827   0.00000  Uiso   1.00
H467   H     0.69155   0.90301   0.29731   0.00000  Uiso   1.00
H468   H     0.71365   0.90424   0.04334   0.00000  Uiso   1.00
H469   H     0.77115   0.85698   0.02988   0.00000  Uiso   1.00
H470   H     0.78339   0.87660   0.08473   0.00000  Uiso   1.00
H471   H     0.80843   0.90299   0.03602   0.00000  Uiso   1.00
H472   H     0.71357   0.59571   0.29003   0.00000  Uiso   1.00
H473   H     0.77097   0.64308   0.30334   0.00000  Uiso   1.00
H474   H     0.78327   0.62336   0.24854   0.00000  Uiso   1.00
H475   H     0.80833   0.59712   0.29730   0.00000  Uiso   1.00
H476   H     0.59766   0.65384   0.24025   0.00000  Uiso   1.00
H477   H     0.89831   0.84288   0.09504   0.00000  Uiso   1.00
H478   H     0.90226   0.84607   0.24026   0.00000  Uiso   1.00
H479   H     0.60173   0.65716   0.09506   0.00000  Uiso   1.00
H480   H     0.65250   0.90366   0.09307   0.00000  Uiso   1.00
N481   N     0.50000   0.75000   0.28573   0.00000  Uiso   1.00
N482   N     0.75688   0.91923   0.28507   0.00000  Uiso   1.00
N483   N     0.74311   0.91923   0.04826   0.00000  Uiso   1.00
N484   N     0.74303   0.58076   0.28508   0.00000  Uiso   1.00
N485   N     0.50000   0.75000   0.04760   0.00000  Uiso   1.00
N486   N     0.75000   0.50000   0.28573   0.00000  Uiso   1.00
N487   N     0.75000   0.50000   0.04760   0.00000  Uiso   1.00
N488   N     0.50715   0.83074   0.04824   0.00000  Uiso   1.00
N489   N     0.50709   0.66925   0.28510   0.00000  Uiso   1.00
N490   N     0.99288   0.66926   0.04824   0.00000  Uiso   1.00
N491   N     0.99288   0.83075   0.28510   0.00000  Uiso   1.00
N492   N     0.75696   0.58076   0.04825   0.00000  Uiso   1.00
O493   O     0.54580   0.70419   0.20487   0.00000  Uiso   1.00
O494   O     0.70419   0.54581   0.12846   0.00000  Uiso   1.00
O495   O     0.70419   0.54581   0.20487   0.00000  Uiso   1.00
O496   O     0.79580   0.95419   0.12846   0.00000  Uiso   1.00
O497   O     0.70419   0.95419   0.12846   0.00000  Uiso   1.00
O498   O     0.79580   0.54581   0.20487   0.00000  Uiso   1.00
O499   O     0.79580   0.54581   0.12846   0.00000  Uiso   1.00
O500   O     0.70419   0.95419   0.20487   0.00000  Uiso   1.00
O501   O     0.95419   0.79581   0.12846   0.00000  Uiso   1.00
O502   O     0.95419   0.79581   0.20487   0.00000  Uiso   1.00
O503   O     0.54580   0.70419   0.12846   0.00000  Uiso   1.00
O504   O     0.95419   0.70419   0.12846   0.00000  Uiso   1.00
O505   O     0.54580   0.79581   0.20487   0.00000  Uiso   1.00
O506   O     0.54580   0.79581   0.12846   0.00000  Uiso   1.00
O507   O     0.95419   0.70419   0.20487   0.00000  Uiso   1.00
O508   O     0.79580   0.95419   0.20487   0.00000  Uiso   1.00
Zn509  Zn    0.50000   0.75000   0.21771   0.00000  Uiso   1.00
Zn510  Zn    0.50000   0.75000   0.11563   0.00000  Uiso   1.00
Zn511  Zn    0.75000   0.50000   0.21771   0.00000  Uiso   1.00
Zn512  Zn    0.75000   0.50000   0.11563   0.00000  Uiso   1.00
C513   C     0.06064   0.19074   0.50013   0.00000  Uiso   1.00
C514   C     0.00093   0.21017   0.64256   0.00000  Uiso   1.00
C515   C     0.49907   0.21017   0.35744   0.00000  Uiso   1.00
C516   C     0.49908   0.28983   0.64256   0.00000  Uiso   1.00
C517   C     0.25090   0.03983   0.35744   0.00000  Uiso   1.00
C518   C     0.25089   0.46017   0.64256   0.00000  Uiso   1.00
C519   C     0.24911   0.46017   0.35744   0.00000  Uiso   1.00
C520   C     0.24910   0.03983   0.64256   0.00000  Uiso   1.00
C521   C     0.39049   0.14150   0.45829   0.00000  Uiso   1.00
C522   C     0.11085   0.35741   0.53990   0.00000  Uiso   1.00
C523   C     0.10955   0.35845   0.45829   0.00000  Uiso   1.00
C524   C     0.43936   0.30925   0.50013   0.00000  Uiso   1.00
C525   C     0.38910   0.14266   0.53990   0.00000  Uiso   1.00
C526   C     0.10950   0.14149   0.54170   0.00000  Uiso   1.00
C527   C     0.38916   0.35741   0.46010   0.00000  Uiso   1.00
C528   C     0.39045   0.35845   0.54170   0.00000  Uiso   1.00
C529   C     0.11086   0.14260   0.46010   0.00000  Uiso   1.00
C530   C     0.14058   0.39141   0.45829   0.00000  Uiso   1.00
C531   C     0.36094   0.10731   0.53989   0.00000  Uiso   1.00
C532   C     0.35947   0.10854   0.45829   0.00000  Uiso   1.00
C533   C     0.13900   0.39277   0.53989   0.00000  Uiso   1.00
C534   C     0.35942   0.39141   0.54171   0.00000  Uiso   1.00
C535   C     0.43936   0.19075   0.49987   0.00000  Uiso   1.00
C536   C     0.13903   0.10726   0.46011   0.00000  Uiso   1.00
C537   C     0.14053   0.10854   0.54170   0.00000  Uiso   1.00
C538   C     0.36100   0.39276   0.46011   0.00000  Uiso   1.00
C539   C     0.09448   0.34169   0.49931   0.00000  Uiso   1.00
C540   C     0.40552   0.15831   0.49930   0.00000  Uiso   1.00
C541   C     0.40552   0.34169   0.50069   0.00000  Uiso   1.00
C542   C     0.09446   0.15829   0.50069   0.00000  Uiso   1.00
C543   C     0.34448   0.09169   0.49930   0.00000  Uiso   1.00
C544   C     0.15551   0.40832   0.49930   0.00000  Uiso   1.00
C545   C     0.15551   0.09167   0.50070   0.00000  Uiso   1.00
C546   C     0.06064   0.30925   0.49987   0.00000  Uiso   1.00
C547   C     0.34448   0.40832   0.50070   0.00000  Uiso   1.00
C548   C     0.47182   0.36238   0.38309   0.00000  Uiso   1.00
C549   C     0.47170   0.13767   0.61694   0.00000  Uiso   1.00
C550   C     0.02822   0.13764   0.38307   0.00000  Uiso   1.00
C551   C     0.02822   0.36238   0.61695   0.00000  Uiso   1.00
C552   C     0.22155   0.11231   0.38297   0.00000  Uiso   1.00
C553   C     0.22142   0.38773   0.61708   0.00000  Uiso   1.00
C554   C     0.27855   0.38772   0.38291   0.00000  Uiso   1.00
C555   C     0.27844   0.11232   0.61705   0.00000  Uiso   1.00
C556   C     0.31064   0.44075   0.50013   0.00000  Uiso   1.00
C557   C     0.18936   0.05925   0.50013   0.00000  Uiso   1.00
C558   C     0.18935   0.44075   0.49987   0.00000  Uiso   1.00
C559   C     0.31064   0.05925   0.49987   0.00000  Uiso   1.00
C560   C     0.00093   0.28983   0.35744   0.00000  Uiso   1.00
H561   H     0.40234   0.15383   0.42641   0.00000  Uiso   1.00
H562   H     0.35185   0.09270   0.57160   0.00000  Uiso   1.00
H563   H     0.34759   0.09624   0.42641   0.00000  Uiso   1.00
H564   H     0.14804   0.40743   0.57159   0.00000  Uiso   1.00
H565   H     0.34750   0.40366   0.57360   0.00000  Uiso   1.00
H566   H     0.14811   0.09264   0.42840   0.00000  Uiso   1.00
H567   H     0.15243   0.09626   0.57358   0.00000  Uiso   1.00
H568   H     0.35196   0.40742   0.42841   0.00000  Uiso   1.00
H569   H     0.03664   0.34563   0.37654   0.00000  Uiso   1.00
H570   H     0.47938   0.39323   0.36365   0.00000  Uiso   1.00
H571   H     0.46700   0.37326   0.41833   0.00000  Uiso   1.00
H572   H     0.10170   0.34287   0.57162   0.00000  Uiso   1.00
H573   H     0.44190   0.34734   0.36941   0.00000  Uiso   1.00
H574   H     0.03653   0.15430   0.62352   0.00000  Uiso   1.00
H575   H     0.47917   0.10686   0.63650   0.00000  Uiso   1.00
H576   H     0.46690   0.12671   0.58174   0.00000  Uiso   1.00
H577   H     0.44179   0.15281   0.63055   0.00000  Uiso   1.00
H578   H     0.46340   0.15436   0.37654   0.00000  Uiso   1.00
H579   H     0.02071   0.10685   0.36350   0.00000  Uiso   1.00
H580   H     0.03300   0.12666   0.41828   0.00000  Uiso   1.00
H581   H     0.05815   0.15274   0.36947   0.00000  Uiso   1.00
H582   H     0.46340   0.34564   0.62345   0.00000  Uiso   1.00
H583   H     0.09775   0.34607   0.42640   0.00000  Uiso   1.00
H584   H     0.02069   0.39320   0.63648   0.00000  Uiso   1.00
H585   H     0.03303   0.37332   0.58174   0.00000  Uiso   1.00
H586   H     0.05815   0.34730   0.63059   0.00000  Uiso   1.00
H587   H     0.28642   0.09572   0.37664   0.00000  Uiso   1.00
H588   H     0.22902   0.14310   0.36338   0.00000  Uiso   1.00
H589   H     0.21670   0.12333   0.41815   0.00000  Uiso   1.00
H590   H     0.19166   0.09713   0.36935   0.00000  Uiso   1.00
H591   H     0.28633   0.40423   0.62331   0.00000  Uiso   1.00
H592   H     0.22883   0.35698   0.63676   0.00000  Uiso   1.00
H593   H     0.21658   0.37664   0.58192   0.00000  Uiso   1.00
H594   H     0.39820   0.15724   0.57161   0.00000  Uiso   1.00
H595   H     0.19155   0.40301   0.63064   0.00000  Uiso   1.00
H596   H     0.21365   0.40424   0.37667   0.00000  Uiso   1.00
H597   H     0.27115   0.35698   0.36321   0.00000  Uiso   1.00
H598   H     0.28339   0.37660   0.41806   0.00000  Uiso   1.00
H599   H     0.30843   0.40299   0.36935   0.00000  Uiso   1.00
H600   H     0.21357   0.09571   0.62336   0.00000  Uiso   1.00
H601   H     0.27097   0.14308   0.63667   0.00000  Uiso   1.00
H602   H     0.28327   0.12336   0.58187   0.00000  Uiso   1.00
H603   H     0.30833   0.09712   0.63064   0.00000  Uiso   1.00
H604   H     0.09766   0.15384   0.57358   0.00000  Uiso   1.00
H605   H     0.39831   0.34288   0.42837   0.00000  Uiso   1.00
H606   H     0.40226   0.34607   0.57359   0.00000  Uiso   1.00
H607   H     0.10173   0.15716   0.42839   0.00000  Uiso   1.00
H608   H     0.15250   0.40366   0.42640   0.00000  Uiso   1.00
N609   N     0.00000   0.25000   0.61907   0.00000  Uiso   1.00
N610   N     0.25688   0.41923   0.61841   0.00000  Uiso   1.00
N611   N     0.24311   0.41923   0.38159   0.00000  Uiso   1.00
N612   N     0.24303   0.08076   0.61842   0.00000  Uiso   1.00
N613   N    -0.00000   0.25000   0.38093   0.00000  Uiso   1.00
N614   N     0.25000   0.00000   0.61907   0.00000  Uiso   1.00
N615   N     0.25000   0.00000   0.38093   0.00000  Uiso   1.00
N616   N     0.00715   0.33074   0.38157   0.00000  Uiso   1.00
N617   N     0.00709   0.16925   0.61843   0.00000  Uiso   1.00
N618   N     0.49288   0.16926   0.38157   0.00000  Uiso   1.00
N619   N     0.49288   0.33075   0.61843   0.00000  Uiso   1.00
N620   N     0.25696   0.08076   0.38159   0.00000  Uiso   1.00
O621   O     0.04580   0.20419   0.53821   0.00000  Uiso   1.00
O622   O     0.20419   0.04581   0.46179   0.00000  Uiso   1.00
O623   O     0.20419   0.04581   0.53821   0.00000  Uiso   1.00
O624   O     0.29580   0.45419   0.46179   0.00000  Uiso   1.00
O625   O     0.20419   0.45419   0.46179   0.00000  Uiso   1.00
O626   O     0.29580   0.04581   0.53821   0.00000  Uiso   1.00
O627   O     0.29580   0.04581   0.46179   0.00000  Uiso   1.00
O628   O     0.20419   0.45419   0.53821   0.00000  Uiso   1.00
O629   O     0.45419   0.29581   0.46179   0.00000  Uiso   1.00
O630   O     0.45419   0.29581   0.53821   0.00000  Uiso   1.00
O631   O     0.04580   0.20419   0.46179   0.00000  Uiso   1.00
O632   O     0.45419   0.20419   0.46179   0.00000  Uiso   1.00
O633   O     0.04580   0.29581   0.53821   0.00000  Uiso   1.00
O634   O     0.04580   0.29581   0.46179   0.00000  Uiso   1.00
O635   O     0.45419   0.20419   0.53821   0.00000  Uiso   1.00
O636   O     0.29580   0.45419   0.53821   0.00000  Uiso   1.00
Zn637  Zn    0.00000   0.25000   0.55104   0.00000  Uiso   1.00
Zn638  Zn   -0.00000   0.25000   0.44896   0.00000  Uiso   1.00
Zn639  Zn    0.25000   0.00000   0.55104   0.00000  Uiso   1.00
Zn640  Zn    0.25000   0.00000   0.44896   0.00000  Uiso   1.00
C641   C     0.56064   0.19074   0.50013   0.00000  Uiso   1.00
C642   C     0.50093   0.21017   0.64256   0.00000  Uiso   1.00
C643   C     0.99907   0.21017   0.35744   0.00000  Uiso   1.00
C644   C     0.99908   0.28983   0.64256   0.00000  Uiso   1.00
C645   C     0.75090   0.03983   0.35744   0.00000  Uiso   1.00
C646   C     0.75089   0.46017   0.64256   0.00000  Uiso   1.00
C647   C     0.74911   0.46017   0.35744   0.00000  Uiso   1.00
C648   C     0.74910   0.03983   0.64256   0.00000  Uiso   1.00
C649   C     0.89049   0.14150   0.45829   0.00000  Uiso   1.00
C650   C     0.61085   0.35741   0.53990   0.00000  Uiso   1.00
C651   C     0.60955   0.35845   0.45829   0.00000  Uiso   1.00
C652   C     0.93936   0.30925   0.50013   0.00000  Uiso   1.00
C653   C     0.88910   0.14266   0.53990   0.00000  Uiso   1.00
C654   C     0.60950   0.14149   0.54170   0.00000  Uiso   1.00
C655   C     0.88916   0.35741   0.46010   0.00000  Uiso   1.00
C656   C     0.89045   0.35845   0.54170   0.00000  Uiso   1.00
C657   C     0.61086   0.14260   0.46010   0.00000  Uiso   1.00
C658   C     0.64058   0.39141   0.45829   0.00000  Uiso   1.00
C659   C     0.86094   0.10731   0.53989   0.00000  Uiso   1.00
C660   C     0.85947   0.10854   0.45829   0.00000  Uiso   1.00
C661   C     0.63900   0.39277   0.53989   0.00000  Uiso   1.00
C662   C     0.85942   0.39141   0.54171   0.00000  Uiso   1.00
C663   C     0.93936   0.19075   0.49987   0.00000  Uiso   1.00
C664   C     0.63903   0.10726   0.46011   0.00000  Uiso   1.00
C665   C     0.64053   0.10854   0.54170   0.00000  Uiso   1.00
C666   C     0.86100   0.39276   0.46011   0.00000  Uiso   1.00
C667   C     0.59448   0.34169   0.49931   0.00000  Uiso   1.00
C668   C     0.90552   0.15831   0.49930   0.00000  Uiso   1.00
C669   C     0.90552   0.34169   0.50069   0.00000  Uiso   1.00
C670   C     0.59446   0.15829   0.50069   0.00000  Uiso   1.00
C671   C     0.84448   0.09169   0.49930   0.00000  Uiso   1.00
C672   C     0.65551   0.40832   0.49930   0.00000  Uiso   1.00
C673   C     0.65551   0.09167   0.50070   0.00000  Uiso   1.00
C674   C     0.56064   0.30925   0.49987   0.00000  Uiso   1.00
C675   C     0.84448   0.40832   0.50070   0.00000  Uiso   1.00
C676   C     0.97182   0.36238   0.38309   0.00000  Uiso   1.00
C677   C     0.97170   0.13767   0.61694   0.00000  Uiso   1.00
C678   C     0.52822   0.13764   0.38307   0.00000  Uiso   1.00
C679   C     0.52822   0.36238   0.61695   0.00000  Uiso   1.00
C680   C     0.72155   0.11231   0.38297   0.00000  Uiso   1.00
C681   C     0.72142   0.38773   0.61708   0.00000  Uiso   1.00
C682   C     0.77855   0.38772   0.38291   0.00000  Uiso   1.00
C683   C     0.77844   0.11232   0.61705   0.00000  Uiso   1.00
C684   C     0.81064   0.44075   0.50013   0.00000  Uiso   1.00
C685   C     0.68936   0.05925   0.50013   0.00000  Uiso   1.00
C686   C     0.68935   0.44075   0.49987   0.00000  Uiso   1.00
C687   C     0.81064   0.05925   0.49987   0.00000  Uiso   1.00
C688   C     0.50093   0.28983   0.35744   0.00000  Uiso   1.00
H689   H     0.90234   0.15383   0.42641   0.00000  Uiso   1.00
H690   H     0.85185   0.09270   0.57160   0.00000  Uiso   1.00
H691   H     0.84759   0.09624   0.42641   0.00000  Uiso   1.00
H692   H     0.64804   0.40743   0.57159   0.00000  Uiso   1.00
H693   H     0.84750   0.40366   0.57360   0.00000  Uiso   1.00
H694   H     0.64811   0.09264   0.42840   0.00000  Uiso   1.00
H695   H     0.65243   0.09626   0.57358   0.00000  Uiso   1.00
H696   H     0.85196   0.40742   0.42841   0.00000  Uiso   1.00
H697   H     0.53664   0.34563   0.37654   0.00000  Uiso   1.00
H698   H     0.97938   0.39323   0.36365   0.00000  Uiso   1.00
H699   H     0.96700   0.37326   0.41833   0.00000  Uiso   1.00
H700   H     0.60170   0.34287   0.57162   0.00000  Uiso   1.00
H701   H     0.94190   0.34734   0.36941   0.00000  Uiso   1.00
H702   H     0.53653   0.15430   0.62352   0.00000  Uiso   1.00
H703   H     0.97917   0.10686   0.63650   0.00000  Uiso   1.00
H704   H     0.96690   0.12671   0.58174   0.00000  Uiso   1.00
H705   H     0.94179   0.15281   0.63055   0.00000  Uiso   1.00
H706   H     0.96340   0.15436   0.37654   0.00000  Uiso   1.00
H707   H     0.52071   0.10685   0.36350   0.00000  Uiso   1.00
H708   H     0.53300   0.12666   0.41828   0.00000  Uiso   1.00
H709   H     0.55815   0.15274   0.36947   0.00000  Uiso   1.00
H710   H     0.96340   0.34564   0.62345   0.00000  Uiso   1.00
H711   H     0.59775   0.34607   0.42640   0.00000  Uiso   1.00
H712   H     0.52069   0.39320   0.63648   0.00000  Uiso   1.00
H713   H     0.53303   0.37332   0.58174   0.00000  Uiso   1.00
H714   H     0.55815   0.34730   0.63059   0.00000  Uiso   1.00
H715   H     0.78642   0.09572   0.37664   0.00000  Uiso   1.00
H716   H     0.72902   0.14310   0.36338   0.00000  Uiso   1.00
H717   H     0.71670   0.12333   0.41815   0.00000  Uiso   1.00
H718   H     0.69166   0.09713   0.36935   0.00000  Uiso   1.00
H719   H     0.78633   0.40423   0.62331   0.00000  Uiso   1.00
H720   H     0.72883   0.35698   0.63676   0.00000  Uiso   1.00
H721   H     0.71658   0.37664   0.58192   0.00000  Uiso   1.00
H722   H     0.89820   0.15724   0.57161   0.00000  Uiso   1.00
H723   H     0.69155   0.40301   0.63064   0.00000  Uiso   1.00
H724   H     0.71365   0.40424   0.37667   0.00000  Uiso   1.00
H725   H     0.77115   0.35698   0.36321   0.00000  Uiso   1.00
H726   H     0.78339   0.37660   0.41806   0.00000  Uiso   1.00
H727   H     0.80843   0.40299   0.36935   0.00000  Uiso   1.00
H728   H     0.71357   0.09571   0.62336   0.00000  Uiso   1.00
H729   H     0.77097   0.14308   0.63667   0.00000  Uiso   1.00
H730   H     0.78327   0.12336   0.58187   0.00000  Uiso   1.00
H731   H     0.80833   0.09712   0.63064   0.00000  Uiso   1.00
H732   H     0.59766   0.15384   0.57358   0.00000  Uiso   1.00
H733   H     0.89831   0.34288   0.42837   0.00000  Uiso   1.00
H734   H     0.90226   0.34607   0.57359   0.00000  Uiso   1.00
H735   H     0.60173   0.15716   0.42839   0.00000  Uiso   1.00
H736   H     0.65250   0.40366   0.42640   0.00000  Uiso   1.00
N737   N     0.50000   0.25000   0.61907   0.00000  Uiso   1.00
N738   N     0.75688   0.41923   0.61841   0.00000  Uiso   1.00
N739   N     0.74311   0.41923   0.38159   0.00000  Uiso   1.00
N740   N     0.74303   0.08076   0.61842   0.00000  Uiso   1.00
N741   N     0.50000   0.25000   0.38093   0.00000  Uiso   1.00
N742   N     0.75000   0.00000   0.61907   0.00000  Uiso   1.00
N743   N     0.75000   0.00000   0.38093   0.00000  Uiso   1.00
N744   N     0.50715   0.33074   0.38157   0.00000  Uiso   1.00
N745   N     0.50709   0.16925   0.61843   0.00000  Uiso   1.00
N746   N     0.99288   0.16926   0.38157   0.00000  Uiso   1.00
N747   N     0.99288   0.33075   0.61843   0.00000  Uiso   1.00
N748   N     0.75696   0.08076   0.38159   0.00000  Uiso   1.00
O749   O     0.54580   0.20419   0.53821   0.00000  Uiso   1.00
O750   O     0.70419   0.04581   0.46179   0.00000  Uiso   1.00
O751   O     0.70419   0.04581   0.53821   0.00000  Uiso   1.00
O752   O     0.79580   0.45419   0.46179   0.00000  Uiso   1.00
O753   O     0.70419   0.45419   0.46179   0.00000  Uiso   1.00
O754   O     0.79580   0.04581   0.53821   0.00000  Uiso   1.00
O755   O     0.79580   0.04581   0.46179   0.00000  Uiso   1.00
O756   O     0.70419   0.45419   0.53821   0.00000  Uiso   1.00
O757   O     0.95419   0.29581   0.46179   0.00000  Uiso   1.00
O758   O     0.95419   0.29581   0.53821   0.00000  Uiso   1.00
O759   O     0.54580   0.20419   0.46179   0.00000  Uiso   1.00
O760   O     0.95419   0.20419   0.46179   0.00000  Uiso   1.00
O761   O     0.54580   0.29581   0.53821   0.00000  Uiso   1.00
O762   O     0.54580   0.29581   0.46179   0.00000  Uiso   1.00
O763   O     0.95419   0.20419   0.53821   0.00000  Uiso   1.00
O764   O     0.79580   0.45419   0.53821   0.00000  Uiso   1.00
Zn765  Zn    0.50000   0.25000   0.55104   0.00000  Uiso   1.00
Zn766  Zn    0.50000   0.25000   0.44896   0.00000  Uiso   1.00
Zn767  Zn    0.75000   0.00000   0.55104   0.00000  Uiso   1.00
Zn768  Zn    0.75000   0.00000   0.44896   0.00000  Uiso   1.00
C769   C     0.06064   0.69074   0.50013   0.00000  Uiso   1.00
C770   C     0.00093   0.71017   0.64256   0.00000  Uiso   1.00
C771   C     0.49907   0.71017   0.35744   0.00000  Uiso   1.00
C772   C     0.49908   0.78983   0.64256   0.00000  Uiso   1.00
C773   C     0.25090   0.53983   0.35744   0.00000  Uiso   1.00
C774   C     0.25089   0.96017   0.64256   0.00000  Uiso   1.00
C775   C     0.24911   0.96017   0.35744   0.00000  Uiso   1.00
C776   C     0.24910   0.53983   0.64256   0.00000  Uiso   1.00
C777   C     0.39049   0.64150   0.45829   0.00000  Uiso   1.00
C778   C     0.11085   0.85741   0.53990   0.00000  Uiso   1.00
C779   C     0.10955   0.85845   0.45829   0.00000  Uiso   1.00
C780   C     0.43936   0.80925   0.50013   0.00000  Uiso   1.00
C781   C     0.38910   0.64266   0.53990   0.00000  Uiso   1.00
C782   C     0.10950   0.64149   0.54170   0.00000  Uiso   1.00
C783   C     0.38916   0.85741   0.46010   0.00000  Uiso   1.00
C784   C     0.39045   0.85845   0.54170   0.00000  Uiso   1.00
C785   C     0.11086   0.64260   0.46010   0.00000  Uiso   1.00
C786   C     0.14058   0.89141   0.45829   0.00000  Uiso   1.00
C787   C     0.36094   0.60731   0.53989   0.00000  Uiso   1.00
C788   C     0.35947   0.60854   0.45829   0.00000  Uiso   1.00
C789   C     0.13900   0.89277   0.53989   0.00000  Uiso   1.00
C790   C     0.35942   0.89141   0.54171   0.00000  Uiso   1.00
C791   C     0.43936   0.69075   0.49987   0.00000  Uiso   1.00
C792   C     0.13903   0.60726   0.46011   0.00000  Uiso   1.00
C793   C     0.14053   0.60854   0.54170   0.00000  Uiso   1.00
C794   C     0.36100   0.89276   0.46011   0.00000  Uiso   1.00
C795   C     0.09448   0.84169   0.49931   0.00000  Uiso   1.00
C796   C     0.40552   0.65831   0.49930   0.00000  Uiso   1.00
C797   C     0.40552   0.84169   0.50069   0.00000  Uiso   1.00
C798   C     0.09446   0.65829   0.50069   0.00000  Uiso   1.00
C799   C     0.34448   0.59169   0.49930   0.00000  Uiso   1.00
C800   C     0.15551   0.90832   0.49930   0.00000  Uiso   1.00
C801   C     0.15551   0.59167   0.50070   0.00000  Uiso   1.00
C802   C     0.06064   0.80925   0.49987   0.00000  Uiso   1.00
C803   C     0.34448   0.90832   0.50070   0.00000  Uiso   1.00
C804   C     0.47182   0.86238   0.38309   0.00000  Uiso   1.00
C805   C     0.47170   0.63767   0.61694   0.00000  Uiso   1.00
C806   C     0.02822   0.63764   0.38307   0.00000  Uiso   1.00
C807   C     0.02822   0.86238   0.61695   0.00000  Uiso   1.00
C808   C     0.22155   0.61231   0.38297   0.00000  Uiso   1.00
C809   C     0.22142   0.88773   0.61708   0.00000  Uiso   1.00
C810   C     0.27855   0.88772   0.38291   0.00000  Uiso   1.00
C811   C     0.27844   0.61232   0.61705   0.00000  Uiso   1.00
C812   C     0.31064   0.94075   0.50013   0.00000  Uiso   1.00
C813   C     0.18936   0.55925   0.50013   0.00000  Uiso   1.00
C814   C     0.18935   0.94075   0.49987   0.00000  Uiso   1.00
C815   C     0.31064   0.55925   0.49987   0.00000  Uiso   1.00
C816   C     0.00093   0.78983   0.35744   0.00000  Uiso   1.00
H817   H     0.40234   0.65383   0.42641   0.00000  Uiso   1.00
H818   H     0.35185   0.59270   0.57160   0.00000  Uiso   1.00
H819   H     0.34759   0.59624   0.42641   0.00000  Uiso   1.00
H820   H     0.14804   0.90743   0.57159   0.00000  Uiso   1.00
H821   H     0.34750   0.90366   0.57360   0.00000  Uiso   1.00
H822   H     0.14811   0.59264   0.42840   0.00000  Uiso   1.00
H823   H     0.15243   0.59626   0.57358   0.00000  Uiso   1.00
H824   H     0.35196   0.90742   0.42841   0.00000  Uiso   1.00
H825   H     0.03664   0.84563   0.37654   0.00000  Uiso   1.00
H826   H     0.47938   0.89323   0.36365   0.00000  Uiso   1.00
H827   H     0.46700   0.87326   0.41833   0.00000  Uiso   1.00
H828   H     0.10170   0.84287   0.57162   0.00000  Uiso   1.00
H829   H     0.44190   0.84734   0.36941   0.00000  Uiso   1.00
H830   H     0.03653   0.65430   0.62352   0.00000  Uiso   1.00
H831   H     0.47917   0.60686   0.63650   0.00000  Uiso   1.00
H832   H     0.46690   0.62671   0.58174   0.00000  Uiso   1.00
H833   H     0.44179   0.65281   0.63055   0.00000  Uiso   1.00
H834   H     0.46340   0.65436   0.37654   0.00000  Uiso   1.00
H835   H     0.02071   0.60685   0.36350   0.00000  Uiso   1.00
H836   H     0.03300   0.62666   0.41828   0.00000  Uiso   1.00
H837   H     0.05815   0.65274   0.36947   0.00000  Uiso   1.00
H838   H     0.46340   0.84564   0.62345   0.00000  Uiso   1.00
H839   H     0.09775   0.84607   0.42640   0.00000  Uiso   1.00
H840   H     0.02069   0.89320   0.63648   0.00000  Uiso   1.00
H841   H     0.03303   0.87332   0.58174   0.00000  Uiso   1.00
H842   H     0.05815   0.84730   0.63059   0.00000  Uiso   1.00
H843   H     0.28642   0.59572   0.37664   0.00000  Uiso   1.00
H844   H     0.22902   0.64310   0.36338   0.00000  Uiso   1.00
H845   H     0.21670   0.62333   0.41815   0.00000  Uiso   1.00
H846   H     0.19166   0.59713   0.36935   0.00000  Uiso   1.00
H847   H     0.28633   0.90423   0.62331   0.00000  Uiso   1.00
H848   H     0.22883   0.85698   0.63676   0.00000  Uiso   1.00
H849   H     0.21658   0.87664   0.58192   0.00000  Uiso   1.00
H850   H     0.39820   0.65724   0.57161   0.00000  Uiso   1.00
H851   H     0.19155   0.90301   0.63064   0.00000  Uiso   1.00
H852   H     0.21365   0.90424   0.37667   0.00000  Uiso   1.00
H853   H     0.27115   0.85698   0.36321   0.00000  Uiso   1.00
H854   H     0.28339   0.87660   0.41806   0.00000  Uiso   1.00
H855   H     0.30843   0.90299   0.36935   0.00000  Uiso   1.00
H856   H     0.21357   0.59571   0.62336   0.00000  Uiso   1.00
H857   H     0.27097   0.64308   0.63667   0.00000  Uiso   1.00
H858   H     0.28327   0.62336   0.58187   0.00000  Uiso   1.00
H859   H     0.30833   0.59712   0.63064   0.00000  Uiso   1.00
H860   H     0.09766   0.65384   0.57358   0.00000  Uiso   1.00
H861   H     0.39831   0.84288   0.42837   0.00000  Uiso   1.00
H862   H     0.40226   0.84607   0.57359   0.00000  Uiso   1.00
H863   H     0.10173   0.65716   0.42839   0.00000  Uiso   1.00
H864   H     0.15250   0.90366   0.42640   0.00000  Uiso   1.00
N865   N     0.00000   0.75000   0.61907   0.00000  Uiso   1.00
N866   N     0.25688   0.91923   0.61841   0.00000  Uiso   1.00
N867   N     0.24311   0.91923   0.38159   0.00000  Uiso   1.00
N868   N     0.24303   0.58076   0.61842   0.00000  Uiso   1.00
N869   N    -0.00000   0.75000   0.38093   0.00000  Uiso   1.00
N870   N     0.25000   0.50000   0.61907   0.00000  Uiso   1.00
N871   N     0.25000   0.50000   0.38093   0.00000  Uiso   1.00
N872   N     0.00715   0.83074   0.38157   0.00000  Uiso   1.00
N873   N     0.00709   0.66925   0.61843   0.00000  Uiso   1.00
N874   N     0.49288   0.66926   0.38157   0.00000  Uiso   1.00
N875   N     0.49288   0.83075   0.61843   0.00000  Uiso   1.00
N876   N     0.25696   0.58076   0.38159   0.00000  Uiso   1.00
O877   O     0.04580   0.70419   0.53821   0.00000  Uiso   1.00
O878   O     0.20419   0.54581   0.46179   0.00000  Uiso   1.00
O879   O     0.20419   0.54581   0.53821   0.00000  Uiso   1.00
O880   O     0.29580   0.95419   0.46179   0.00000  Uiso   1.00
O881   O     0.20419   0.95419   0.46179   0.00000  Uiso   1.00
O882   O     0.29580   0.54581   0.53821   0.00000  Uiso   1.00
O883   O     0.29580   0.54581   0.46179   0.00000  Uiso   1.00
O884   O     0.20419   0.95419   0.53821   0.00000  Uiso   1.00
O885   O     0.45419   0.79581   0.46179   0.00000  Uiso   1.00
O886   O     0.45419   0.79581   0.53821   0.00000  Uiso   1.00
O887   O     0.04580   0.70419   0.46179   0.00000  Uiso   1.00
O888   O     0.45419   0.70419   0.46179   0.00000  Uiso   1.00
O889   O     0.04580   0.79581   0.53821   0.00000  Uiso   1.00
O890   O     0.04580   0.79581   0.46179   0.00000  Uiso   1.00
O891   O     0.45419   0.70419   0.53821   0.00000  Uiso   1.00
O892   O     0.29580   0.95419   0.53821   0.00000  Uiso   1.00
Zn893  Zn    0.00000   0.75000   0.55104   0.00000  Uiso   1.00
Zn894  Zn   -0.00000   0.75000   0.44896   0.00000  Uiso   1.00
Zn895  Zn    0.25000   0.50000   0.55104   0.00000  Uiso   1.00
Zn896  Zn    0.25000   0.50000   0.44896   0.00000  Uiso   1.00
C897   C     0.56064   0.69074   0.50013   0.00000  Uiso   1.00
C898   C     0.50093   0.71017   0.64256   0.00000  Uiso   1.00
C899   C     0.99907   0.71017   0.35744   0.00000  Uiso   1.00
C900   C     0.99908   0.78983   0.64256   0.00000  Uiso   1.00
C901   C     0.75090   0.53983   0.35744   0.00000  Uiso   1.00
C902   C     0.75089   0.96017   0.64256   0.00000  Uiso   1.00
C903   C     0.74911   0.96017   0.35744   0.00000  Uiso   1.00
C904   C     0.74910   0.53983   0.64256   0.00000  Uiso   1.00
C905   C     0.89049   0.64150   0.45829   0.00000  Uiso   1.00
C906   C     0.61085   0.85741   0.53990   0.00000  Uiso   1.00
C907   C     0.60955   0.85845   0.45829   0.00000  Uiso   1.00
C908   C     0.93936   0.80925   0.50013   0.00000  Uiso   1.00
C909   C     0.88910   0.64266   0.53990   0.00000  Uiso   1.00
C910   C     0.60950   0.64149   0.54170   0.00000  Uiso   1.00
C911   C     0.88916   0.85741   0.46010   0.00000  Uiso   1.00
C912   C     0.89045   0.85845   0.54170   0.00000  Uiso   1.00
C913   C     0.61086   0.64260   0.46010   0.00000  Uiso   1.00
C914   C     0.64058   0.89141   0.45829   0.00000  Uiso   1.00
C915   C     0.86094   0.60731   0.53989   0.00000  Uiso   1.00
C916   C     0.85947   0.60854   0.45829   0.00000  Uiso   1.00
C917   C     0.63900   0.89277   0.53989   0.00000  Uiso   1.00
C918   C     0.85942   0.89141   0.54171   0.00000  Uiso   1.00
C919   C     0.93936   0.69075   0.49987   0.00000  Uiso   1.00
C920   C     0.63903   0.60726   0.46011   0.00000  Uiso   1.00
C921   C     0.64053   0.60854   0.54170   0.00000  Uiso   1.00
C922   C     0.86100   0.89276   0.46011   0.00000  Uiso   1.00
C923   C     0.59448   0.84169   0.49931   0.00000  Uiso   1.00
C924   C     0.90552   0.65831   0.49930   0.00000  Uiso   1.00
C925   C     0.90552   0.84169   0.50069   0.00000  Uiso   1.00
C926   C     0.59446   0.65829   0.50069   0.00000  Uiso   1.00
C927   C     0.84448   0.59169   0.49930   0.00000  Uiso   1.00
C928   C     0.65551   0.90832   0.49930   0.00000  Uiso   1.00
C929   C     0.65551   0.59167   0.50070   0.00000  Uiso   1.00
C930   C     0.56064   0.80925   0.49987   0.00000  Uiso   1.00
C931   C     0.84448   0.90832   0.50070   0.00000  Uiso   1.00
C932   C     0.97182   0.86238   0.38309   0.00000  Uiso   1.00
C933   C     0.97170   0.63767   0.61694   0.00000  Uiso   1.00
C934   C     0.52822   0.63764   0.38307   0.00000  Uiso   1.00
C935   C     0.52822   0.86238   0.61695   0.00000  Uiso   1.00
C936   C     0.72155   0.61231   0.38297   0.00000  Uiso   1.00
C937   C     0.72142   0.88773   0.61708   0.00000  Uiso   1.00
C938   C     0.77855   0.88772   0.38291   0.00000  Uiso   1.00
C939   C     0.77844   0.61232   0.61705   0.00000  Uiso   1.00
C940   C     0.81064   0.94075   0.50013   0.00000  Uiso   1.00
C941   C     0.68936   0.55925   0.50013   0.00000  Uiso   1.00
C942   C     0.68935   0.94075   0.49987   0.00000  Uiso   1.00
C943   C     0.81064   0.55925   0.49987   0.00000  Uiso   1.00
C944   C     0.50093   0.78983   0.35744   0.00000  Uiso   1.00
H945   H     0.90234   0.65383   0.42641   0.00000  Uiso   1.00
H946   H     0.85185   0.59270   0.57160   0.00000  Uiso   1.00
H947   H     0.84759   0.59624   0.42641   0.00000  Uiso   1.00
H948   H     0.64804   0.90743   0.57159   0.00000  Uiso   1.00
H949   H     0.84750   0.90366   0.57360   0.00000  Uiso   1.00
H950   H     0.64811   0.59264   0.42840   0.00000  Uiso   1.00
H951   H     0.65243   0.59626   0.57358   0.00000  Uiso   1.00
H952   H     0.85196   0.90742   0.42841   0.00000  Uiso   1.00
H953   H     0.53664   0.84563   0.37654   0.00000  Uiso   1.00
H954   H     0.97938   0.89323   0.36365   0.00000  Uiso   1.00
H955   H     0.96700   0.87326   0.41833   0.00000  Uiso   1.00
H956   H     0.60170   0.84287   0.57162   0.00000  Uiso   1.00
H957   H     0.94190   0.84734   0.36941   0.00000  Uiso   1.00
H958   H     0.53653   0.65430   0.62352   0.00000  Uiso   1.00
H959   H     0.97917   0.60686   0.63650   0.00000  Uiso   1.00
H960   H     0.96690   0.62671   0.58174   0.00000  Uiso   1.00
H961   H     0.94179   0.65281   0.63055   0.00000  Uiso   1.00
H962   H     0.96340   0.65436   0.37654   0.00000  Uiso   1.00
H963   H     0.52071   0.60685   0.36350   0.00000  Uiso   1.00
H964   H     0.53300   0.62666   0.41828   0.00000  Uiso   1.00
H965   H     0.55815   0.65274   0.36947   0.00000  Uiso   1.00
H966   H     0.96340   0.84564   0.62345   0.00000  Uiso   1.00
H967   H     0.59775   0.84607   0.42640   0.00000  Uiso   1.00
H968   H     0.52069   0.89320   0.63648   0.00000  Uiso   1.00
H969   H     0.53303   0.87332   0.58174   0.00000  Uiso   1.00
H970   H     0.55815   0.84730   0.63059   0.00000  Uiso   1.00
H971   H     0.78642   0.59572   0.37664   0.00000  Uiso   1.00
H972   H     0.72902   0.64310   0.36338   0.00000  Uiso   1.00
H973   H     0.71670   0.62333   0.41815   0.00000  Uiso   1.00
H974   H     0.69166   0.59713   0.36935   0.00000  Uiso   1.00
H975   H     0.78633   0.90423   0.62331   0.00000  Uiso   1.00
H976   H     0.72883   0.85698   0.63676   0.00000  Uiso   1.00
H977   H     0.71658   0.87664   0.58192   0.00000  Uiso   1.00
H978   H     0.89820   0.65724   0.57161   0.00000  Uiso   1.00
H979   H     0.69155   0.90301   0.63064   0.00000  Uiso   1.00
H980   H     0.71365   0.90424   0.37667   0.00000  Uiso   1.00
H981   H     0.77115   0.85698   0.36321   0.00000  Uiso   1.00
H982   H     0.78339   0.87660   0.41806   0.00000  Uiso   1.00
H983   H     0.80843   0.90299   0.36935   0.00000  Uiso   1.00
H984   H     0.71357   0.59571   0.62336   0.00000  Uiso   1.00
H985   H     0.77097   0.64308   0.63667   0.00000  Uiso   1.00
H986   H     0.78327   0.62336   0.58187   0.00000  Uiso   1.00
H987   H     0.80833   0.59712   0.63064   0.00000  Uiso   1.00
H988   H     0.59766   0.65384   0.57358   0.00000  Uiso   1.00
H989   H     0.89831   0.84288   0.42837   0.00000  Uiso   1.00
H990   H     0.90226   0.84607   0.57359   0.00000  Uiso   1.00
H991   H     0.60173   0.65716   0.42839   0.00000  Uiso   1.00
H992   H     0.65250   0.90366   0.42640   0.00000  Uiso   1.00
N993   N     0.50000   0.75000   0.61907   0.00000  Uiso   1.00
N994   N     0.75688   0.91923   0.61841   0.00000  Uiso   1.00
N995   N     0.74311   0.91923   0.38159   0.00000  Uiso   1.00
N996   N     0.74303   0.58076   0.61842   0.00000  Uiso   1.00
N997   N     0.50000   0.75000   0.38093   0.00000  Uiso   1.00
N998   N     0.75000   0.50000   0.61907   0.00000  Uiso   1.00
N999   N     0.75000   0.50000   0.38093   0.00000  Uiso   1.00
N1000  N     0.50715   0.83074   0.38157   0.00000  Uiso   1.00
N1001  N     0.50709   0.66925   0.61843   0.00000  Uiso   1.00
N1002  N     0.99288   0.66926   0.38157   0.00000  Uiso   1.00
N1003  N     0.99288   0.83075   0.61843   0.00000  Uiso   1.00
N1004  N     0.75696   0.58076   0.38159   0.00000  Uiso   1.00
O1005  O     0.54580   0.70419   0.53821   0.00000  Uiso   1.00
O1006  O     0.70419   0.54581   0.46179   0.00000  Uiso   1.00
O1007  O     0.70419   0.54581   0.53821   0.00000  Uiso   1.00
O1008  O     0.79580   0.95419   0.46179   0.00000  Uiso   1.00
O1009  O     0.70419   0.95419   0.46179   0.00000  Uiso   1.00
O1010  O     0.79580   0.54581   0.53821   0.00000  Uiso   1.00
O1011  O     0.79580   0.54581   0.46179   0.00000  Uiso   1.00
O1012  O     0.70419   0.95419   0.53821   0.00000  Uiso   1.00
O1013  O     0.95419   0.79581   0.46179   0.00000  Uiso   1.00
O1014  O     0.95419   0.79581   0.53821   0.00000  Uiso   1.00
O1015  O     0.54580   0.70419   0.46179   0.00000  Uiso   1.00
O1016  O     0.95419   0.70419   0.46179   0.00000  Uiso   1.00
O1017  O     0.54580   0.79581   0.53821   0.00000  Uiso   1.00
O1018  O     0.54580   0.79581   0.46179   0.00000  Uiso   1.00
O1019  O     0.95419   0.70419   0.53821   0.00000  Uiso   1.00
O1020  O     0.79580   0.95419   0.53821   0.00000  Uiso   1.00
Zn1021 Zn    0.50000   0.75000   0.55104   0.00000  Uiso   1.00
Zn1022 Zn    0.50000   0.75000   0.44896   0.00000  Uiso   1.00
Zn1023 Zn    0.75000   0.50000   0.55104   0.00000  Uiso   1.00
Zn1024 Zn    0.75000   0.50000   0.44896   0.00000  Uiso   1.00
C1025  C     0.06064   0.19074   0.83346   0.00000  Uiso   1.00
C1026  C     0.00093   0.21017   0.97589   0.00000  Uiso   1.00
C1027  C     0.49907   0.21017   0.69078   0.00000  Uiso   1.00
C1028  C     0.49908   0.28983   0.97589   0.00000  Uiso   1.00
C1029  C     0.25090   0.03983   0.69078   0.00000  Uiso   1.00
C1030  C     0.25089   0.46017   0.97589   0.00000  Uiso   1.00
C1031  C     0.24911   0.46017   0.69078   0.00000  Uiso   1.00
C1032  C     0.24910   0.03983   0.97589   0.00000  Uiso   1.00
C1033  C     0.39049   0.14150   0.79163   0.00000  Uiso   1.00
C1034  C     0.11085   0.35741   0.87323   0.00000  Uiso   1.00
C1035  C     0.10955   0.35845   0.79163   0.00000  Uiso   1.00
C1036  C     0.43936   0.30925   0.83346   0.00000  Uiso   1.00
C1037  C     0.38910   0.14266   0.87323   0.00000  Uiso   1.00
C1038  C     0.10950   0.14149   0.87503   0.00000  Uiso   1.00
C1039  C     0.38916   0.35741   0.79343   0.00000  Uiso   1.00
C1040  C     0.39045   0.35845   0.87504   0.00000  Uiso   1.00
C1041  C     0.11086   0.14260   0.79344   0.00000  Uiso   1.00
C1042  C     0.14058   0.39141   0.79162   0.00000  Uiso   1.00
C1043  C     0.36094   0.10731   0.87323   0.00000  Uiso   1.00
C1044  C     0.35947   0.10854   0.79163   0.00000  Uiso   1.00
C1045  C     0.13900   0.39277   0.87322   0.00000  Uiso   1.00
C1046  C     0.35942   0.39141   0.87504   0.00000  Uiso   1.00
C1047  C     0.43936   0.19075   0.83320   0.00000  Uiso   1.00
C1048  C     0.13903   0.10726   0.79344   0.00000  Uiso   1.00
C1049  C     0.14053   0.10854   0.87503   0.00000  Uiso   1.00
C1050  C     0.36100   0.39276   0.79344   0.00000  Uiso   1.00
C1051  C     0.09448   0.34169   0.83264   0.00000  Uiso   1.00
C1052  C     0.40552   0.15831   0.83264   0.00000  Uiso   1.00
C1053  C     0.40552   0.34169   0.83403   0.00000  Uiso   1.00
C1054  C     0.09446   0.15829   0.83403   0.00000  Uiso   1.00
C1055  C     0.34448   0.09169   0.83263   0.00000  Uiso   1.00
C1056  C     0.15551   0.40832   0.83263   0.00000  Uiso   1.00
C1057  C     0.15551   0.09167   0.83403   0.00000  Uiso   1.00
C1058  C     0.06064   0.30925   0.83320   0.00000  Uiso   1.00
C1059  C     0.34448   0.40832   0.83403   0.00000  Uiso   1.00
C1060  C     0.47182   0.36238   0.71643   0.00000  Uiso   1.00
C1061  C     0.47170   0.13767   0.95028   0.00000  Uiso   1.00
C1062  C     0.02822   0.13764   0.71640   0.00000  Uiso   1.00
C1063  C     0.02822   0.36238   0.95029   0.00000  Uiso   1.00
C1064  C     0.22155   0.11231   0.71630   0.00000  Uiso   1.00
C1065  C     0.22142   0.38773   0.95041   0.00000  Uiso   1.00
C1066  C     0.27855   0.38772   0.71624   0.00000  Uiso   1.00
C1067  C     0.27844   0.11232   0.95038   0.00000  Uiso   1.00
C1068  C     0.31064   0.44075   0.83346   0.00000  Uiso   1.00
C1069  C     0.18936   0.05925   0.83346   0.00000  Uiso   1.00
C1070  C     0.18935   0.44075   0.83320   0.00000  Uiso   1.00
C1071  C     0.31064   0.05925   0.83320   0.00000  Uiso   1.00
C1072  C     0.00093   0.28983   0.69078   0.00000  Uiso   1.00
H1073  H     0.40234   0.15383   0.75974   0.00000  Uiso   1.00
H1074  H     0.35185   0.09270   0.90493   0.00000  Uiso   1.00
H1075  H     0.34759   0.09624   0.75974   0.00000  Uiso   1.00
H1076  H     0.14804   0.40743   0.90492   0.00000  Uiso   1.00
H1077  H     0.34750   0.40366   0.90693   0.00000  Uiso   1.00
H1078  H     0.14811   0.09264   0.76174   0.00000  Uiso   1.00
H1079  H     0.15243   0.09626   0.90692   0.00000  Uiso   1.00
H1080  H     0.35196   0.40742   0.76174   0.00000  Uiso   1.00
H1081  H     0.03664   0.34563   0.70988   0.00000  Uiso   1.00
H1082  H     0.47938   0.39323   0.69698   0.00000  Uiso   1.00
H1083  H     0.46700   0.37326   0.75166   0.00000  Uiso   1.00
H1084  H     0.10170   0.34287   0.90496   0.00000  Uiso   1.00
H1085  H     0.44190   0.34734   0.70274   0.00000  Uiso   1.00
H1086  H     0.03653   0.15430   0.95685   0.00000  Uiso   1.00
H1087  H     0.47917   0.10686   0.96983   0.00000  Uiso   1.00
H1088  H     0.46690   0.12671   0.91507   0.00000  Uiso   1.00
H1089  H     0.44179   0.15281   0.96388   0.00000  Uiso   1.00
H1090  H     0.46340   0.15436   0.70988   0.00000  Uiso   1.00
H1091  H     0.02071   0.10685   0.69683   0.00000  Uiso   1.00
H1092  H     0.03300   0.12666   0.75161   0.00000  Uiso   1.00
H1093  H     0.05815   0.15274   0.70280   0.00000  Uiso   1.00
H1094  H     0.46340   0.34564   0.95678   0.00000  Uiso   1.00
H1095  H     0.09775   0.34607   0.75974   0.00000  Uiso   1.00
H1096  H     0.02069   0.39320   0.96981   0.00000  Uiso   1.00
H1097  H     0.03303   0.37332   0.91507   0.00000  Uiso   1.00
H1098  H     0.05815   0.34730   0.96392   0.00000  Uiso   1.00
H1099  H     0.28642   0.09572   0.70997   0.00000  Uiso   1.00
H1100  H     0.22902   0.14310   0.69671   0.00000  Uiso   1.00
H1101  H     0.21670   0.12333   0.75148   0.00000  Uiso   1.00
H1102  H     0.19166   0.09713   0.70269   0.00000  Uiso   1.00
H1103  H     0.28633   0.40423   0.95665   0.00000  Uiso   1.00
H1104  H     0.22883   0.35698   0.97009   0.00000  Uiso   1.00
H1105  H     0.21658   0.37664   0.91526   0.00000  Uiso   1.00
H1106  H     0.39820   0.15724   0.90494   0.00000  Uiso   1.00
H1107  H     0.19155   0.40301   0.96397   0.00000  Uiso   1.00
H1108  H     0.21365   0.40424   0.71001   0.00000  Uiso   1.00
H1109  H     0.27115   0.35698   0.69654   0.00000  Uiso   1.00
H1110  H     0.28339   0.37660   0.75140   0.00000  Uiso   1.00
H1111  H     0.30843   0.40299   0.70269   0.00000  Uiso   1.00
H1112  H     0.21357   0.09571   0.95669   0.00000  Uiso   1.00
H1113  H     0.27097   0.14308   0.97001   0.00000  Uiso   1.00
H1114  H     0.28327   0.12336   0.91520   0.00000  Uiso   1.00
H1115  H     0.30833   0.09712   0.96397   0.00000  Uiso   1.00
H1116  H     0.09766   0.15384   0.90692   0.00000  Uiso   1.00
H1117  H     0.39831   0.34288   0.76171   0.00000  Uiso   1.00
H1118  H     0.40226   0.34607   0.90693   0.00000  Uiso   1.00
H1119  H     0.10173   0.15716   0.76173   0.00000  Uiso   1.00
H1120  H     0.15250   0.40366   0.75973   0.00000  Uiso   1.00
N1121  N     0.00000   0.25000   0.95240   0.00000  Uiso   1.00
N1122  N     0.25688   0.41923   0.95174   0.00000  Uiso   1.00
N1123  N     0.24311   0.41923   0.71492   0.00000  Uiso   1.00
N1124  N     0.24303   0.08076   0.95175   0.00000  Uiso   1.00
N1125  N    -0.00000   0.25000   0.71427   0.00000  Uiso   1.00
N1126  N     0.25000   0.00000   0.95240   0.00000  Uiso   1.00
N1127  N     0.25000   0.00000   0.71427   0.00000  Uiso   1.00
N1128  N     0.00715   0.33074   0.71491   0.00000  Uiso   1.00
N1129  N     0.00709   0.16925   0.95176   0.00000  Uiso   1.00
N1130  N     0.49288   0.16926   0.71491   0.00000  Uiso   1.00
N1131  N     0.49288   0.33075   0.95176   0.00000  Uiso   1.00
N1132  N     0.25696   0.08076   0.71492   0.00000  Uiso   1.00
O1133  O     0.04580   0.20419   0.87154   0.00000  Uiso   1.00
O1134  O     0.20419   0.04581   0.79513   0.00000  Uiso   1.00
O1135  O     0.20419   0.04581   0.87154   0.00000  Uiso   1.00
O1136  O     0.29580   0.45419   0.79513   0.00000  Uiso   1.00
O1137  O     0.20419   0.45419   0.79513   0.00000  Uiso   1.00
O1138  O     0.29580   0.04581   0.87154   0.00000  Uiso   1.00
O1139  O     0.29580   0.04581   0.79513   0.00000  Uiso   1.00
O1140  O     0.20419   0.45419   0.87154   0.00000  Uiso   1.00
O1141  O     0.45419   0.29581   0.79513   0.00000  Uiso   1.00
O1142  O     0.45419   0.29581   0.87154   0.00000  Uiso   1.00
O1143  O     0.04580   0.20419   0.79513   0.00000  Uiso   1.00
O1144  O     0.45419   0.20419   0.79513   0.00000  Uiso   1.00
O1145  O     0.04580   0.29581   0.87154   0.00000  Uiso   1.00
O1146  O     0.04580   0.29581   0.79513   0.00000  Uiso   1.00
O1147  O     0.45419   0.20419   0.87154   0.00000  Uiso   1.00
O1148  O     0.29580   0.45419   0.87154   0.00000  Uiso   1.00
Zn1149 Zn    0.00000   0.25000   0.88437   0.00000  Uiso   1.00
Zn1150 Zn   -0.00000   0.25000   0.78229   0.00000  Uiso   1.00
Zn1151 Zn    0.25000   0.00000   0.88437   0.00000  Uiso   1.00
Zn1152 Zn    0.25000   0.00000   0.78229   0.00000  Uiso   1.00
C1153  C     0.56064   0.19074   0.83346   0.00000  Uiso   1.00
C1154  C     0.50093   0.21017   0.97589   0.00000  Uiso   1.00
C1155  C     0.99907   0.21017   0.69078   0.00000  Uiso   1.00
C1156  C     0.99908   0.28983   0.97589   0.00000  Uiso   1.00
C1157  C     0.75090   0.03983   0.69078   0.00000  Uiso   1.00
C1158  C     0.75089   0.46017   0.97589   0.00000  Uiso   1.00
C1159  C     0.74911   0.46017   0.69078   0.00000  Uiso   1.00
C1160  C     0.74910   0.03983   0.97589   0.00000  Uiso   1.00
C1161  C     0.89049   0.14150   0.79163   0.00000  Uiso   1.00
C1162  C     0.61085   0.35741   0.87323   0.00000  Uiso   1.00
C1163  C     0.60955   0.35845   0.79163   0.00000  Uiso   1.00
C1164  C     0.93936   0.30925   0.83346   0.00000  Uiso   1.00
C1165  C     0.88910   0.14266   0.87323   0.00000  Uiso   1.00
C1166  C     0.60950   0.14149   0.87503   0.00000  Uiso   1.00
C1167  C     0.88916   0.35741   0.79343   0.00000  Uiso   1.00
C1168  C     0.89045   0.35845   0.87504   0.00000  Uiso   1.00
C1169  C     0.61086   0.14260   0.79344   0.00000  Uiso   1.00
C1170  C     0.64058   0.39141   0.79162   0.00000  Uiso   1.00
C1171  C     0.86094   0.10731   0.87323   0.00000  Uiso   1.00
C1172  C     0.85947   0.10854   0.79163   0.00000  Uiso   1.00
C1173  C     0.63900   0.39277   0.87322   0.00000  Uiso   1.00
C1174  C     0.85942   0.39141   0.87504   0.00000  Uiso   1.00
C1175  C     0.93936   0.19075   0.83320   0.00000  Uiso   1.00
C1176  C     0.63903   0.10726   0.79344   0.00000  Uiso   1.00
C1177  C     0.64053   0.10854   0.87503   0.00000  Uiso   1.00
C1178  C     0.86100   0.39276   0.79344   0.00000  Uiso   1.00
C1179  C     0.59448   0.34169   0.83264   0.00000  Uiso   1.00
C1180  C     0.90552   0.15831   0.83264   0.00000  Uiso   1.00
C1181  C     0.90552   0.34169   0.83403   0.00000  Uiso   1.00
C1182  C     0.59446   0.15829   0.83403   0.00000  Uiso   1.00
C1183  C     0.84448   0.09169   0.83263   0.00000  Uiso   1.00
C1184  C     0.65551   0.40832   0.83263   0.00000  Uiso   1.00
C1185  C     0.65551   0.09167   0.83403   0.00000  Uiso   1.00
C1186  C     0.56064   0.30925   0.83320   0.00000  Uiso   1.00
C1187  C     0.84448   0.40832   0.83403   0.00000  Uiso   1.00
C1188  C     0.97182   0.36238   0.71643   0.00000  Uiso   1.00
C1189  C     0.97170   0.13767   0.95028   0.00000  Uiso   1.00
C1190  C     0.52822   0.13764   0.71640   0.00000  Uiso   1.00
C1191  C     0.52822   0.36238   0.95029   0.00000  Uiso   1.00
C1192  C     0.72155   0.11231   0.71630   0.00000  Uiso   1.00
C1193  C     0.72142   0.38773   0.95041   0.00000  Uiso   1.00
C1194  C     0.77855   0.38772   0.71624   0.00000  Uiso   1.00
C1195  C     0.77844   0.11232   0.95038   0.00000  Uiso   1.00
C1196  C     0.81064   0.44075   0.83346   0.00000  Uiso   1.00
C1197  C     0.68936   0.05925   0.83346   0.00000  Uiso   1.00
C1198  C     0.68935   0.44075   0.83320   0.00000  Uiso   1.00
C1199  C     0.81064   0.05925   0.83320   0.00000  Uiso   1.00
C1200  C     0.50093   0.28983   0.69078   0.00000  Uiso   1.00
H1201  H     0.90234   0.15383   0.75974   0.00000  Uiso   1.00
H1202  H     0.85185   0.09270   0.90493   0.00000  Uiso   1.00
H1203  H     0.84759   0.09624   0.75974   0.00000  Uiso   1.00
H1204  H     0.64804   0.40743   0.90492   0.00000  Uiso   1.00
H1205  H     0.84750   0.40366   0.90693   0.00000  Uiso   1.00
H1206  H     0.64811   0.09264   0.76174   0.00000  Uiso   1.00
H1207  H     0.65243   0.09626   0.90692   0.00000  Uiso   1.00
H1208  H     0.85196   0.40742   0.76174   0.00000  Uiso   1.00
H1209  H     0.53664   0.34563   0.70988   0.00000  Uiso   1.00
H1210  H     0.97938   0.39323   0.69698   0.00000  Uiso   1.00
H1211  H     0.96700   0.37326   0.75166   0.00000  Uiso   1.00
H1212  H     0.60170   0.34287   0.90496   0.00000  Uiso   1.00
H1213  H     0.94190   0.34734   0.70274   0.00000  Uiso   1.00
H1214  H     0.53653   0.15430   0.95685   0.00000  Uiso   1.00
H1215  H     0.97917   0.10686   0.96983   0.00000  Uiso   1.00
H1216  H     0.96690   0.12671   0.91507   0.00000  Uiso   1.00
H1217  H     0.94179   0.15281   0.96388   0.00000  Uiso   1.00
H1218  H     0.96340   0.15436   0.70988   0.00000  Uiso   1.00
H1219  H     0.52071   0.10685   0.69683   0.00000  Uiso   1.00
H1220  H     0.53300   0.12666   0.75161   0.00000  Uiso   1.00
H1221  H     0.55815   0.15274   0.70280   0.00000  Uiso   1.00
H1222  H     0.96340   0.34564   0.95678   0.00000  Uiso   1.00
H1223  H     0.59775   0.34607   0.75974   0.00000  Uiso   1.00
H1224  H     0.52069   0.39320   0.96981   0.00000  Uiso   1.00
H1225  H     0.53303   0.37332   0.91507   0.00000  Uiso   1.00
H1226  H     0.55815   0.34730   0.96392   0.00000  Uiso   1.00
H1227  H     0.78642   0.09572   0.70997   0.00000  Uiso   1.00
H1228  H     0.72902   0.14310   0.69671   0.00000  Uiso   1.00
H1229  H     0.71670   0.12333   0.75148   0.00000  Uiso   1.00
H1230  H     0.69166   0.09713   0.70269   0.00000  Uiso   1.00
H1231  H     0.78633   0.40423   0.95665   0.00000  Uiso   1.00
H1232  H     0.72883   0.35698   0.97009   0.00000  Uiso   1.00
H1233  H     0.71658   0.37664   0.91526   0.00000  Uiso   1.00
H1234  H     0.89820   0.15724   0.90494   0.00000  Uiso   1.00
H1235  H     0.69155   0.40301   0.96397   0.00000  Uiso   1.00
H1236  H     0.71365   0.40424   0.71001   0.00000  Uiso   1.00
H1237  H     0.77115   0.35698   0.69654   0.00000  Uiso   1.00
H1238  H     0.78339   0.37660   0.75140   0.00000  Uiso   1.00
H1239  H     0.80843   0.40299   0.70269   0.00000  Uiso   1.00
H1240  H     0.71357   0.09571   0.95669   0.00000  Uiso   1.00
H1241  H     0.77097   0.14308   0.97001   0.00000  Uiso   1.00
H1242  H     0.78327   0.12336   0.91520   0.00000  Uiso   1.00
H1243  H     0.80833   0.09712   0.96397   0.00000  Uiso   1.00
H1244  H     0.59766   0.15384   0.90692   0.00000  Uiso   1.00
H1245  H     0.89831   0.34288   0.76171   0.00000  Uiso   1.00
H1246  H     0.90226   0.34607   0.90693   0.00000  Uiso   1.00
H1247  H     0.60173   0.15716   0.76173   0.00000  Uiso   1.00
H1248  H     0.65250   0.40366   0.75973   0.00000  Uiso   1.00
N1249  N     0.50000   0.25000   0.95240   0.00000  Uiso   1.00
N1250  N     0.75688   0.41923   0.95174   0.00000  Uiso   1.00
N1251  N     0.74311   0.41923   0.71492   0.00000  Uiso   1.00
N1252  N     0.74303   0.08076   0.95175   0.00000  Uiso   1.00
N1253  N     0.50000   0.25000   0.71427   0.00000  Uiso   1.00
N1254  N     0.75000   0.00000   0.95240   0.00000  Uiso   1.00
N1255  N     0.75000   0.00000   0.71427   0.00000  Uiso   1.00
N1256  N     0.50715   0.33074   0.71491   0.00000  Uiso   1.00
N1257  N     0.50709   0.16925   0.95176   0.00000  Uiso   1.00
N1258  N     0.99288   0.16926   0.71491   0.00000  Uiso   1.00
N1259  N     0.99288   0.33075   0.95176   0.00000  Uiso   1.00
N1260  N     0.75696   0.08076   0.71492   0.00000  Uiso   1.00
O1261  O     0.54580   0.20419   0.87154   0.00000  Uiso   1.00
O1262  O     0.70419   0.04581   0.79513   0.00000  Uiso   1.00
O1263  O     0.70419   0.04581   0.87154   0.00000  Uiso   1.00
O1264  O     0.79580   0.45419   0.79513   0.00000  Uiso   1.00
O1265  O     0.70419   0.45419   0.79513   0.00000  Uiso   1.00
O1266  O     0.79580   0.04581   0.87154   0.00000  Uiso   1.00
O1267  O     0.79580   0.04581   0.79513   0.00000  Uiso   1.00
O1268  O     0.70419   0.45419   0.87154   0.00000  Uiso   1.00
O1269  O     0.95419   0.29581   0.79513   0.00000  Uiso   1.00
O1270  O     0.95419   0.29581   0.87154   0.00000  Uiso   1.00
O1271  O     0.54580   0.20419   0.79513   0.00000  Uiso   1.00
O1272  O     0.95419   0.20419   0.79513   0.00000  Uiso   1.00
O1273  O     0.54580   0.29581   0.87154   0.00000  Uiso   1.00
O1274  O     0.54580   0.29581   0.79513   0.00000  Uiso   1.00
O1275  O     0.95419   0.20419   0.87154   0.00000  Uiso   1.00
O1276  O     0.79580   0.45419   0.87154   0.00000  Uiso   1.00
Zn1277 Zn    0.50000   0.25000   0.88437   0.00000  Uiso   1.00
Zn1278 Zn    0.50000   0.25000   0.78229   0.00000  Uiso   1.00
Zn1279 Zn    0.75000   0.00000   0.88437   0.00000  Uiso   1.00
Zn1280 Zn    0.75000   0.00000   0.78229   0.00000  Uiso   1.00
C1281  C     0.06064   0.69074   0.83346   0.00000  Uiso   1.00
C1282  C     0.00093   0.71017   0.97589   0.00000  Uiso   1.00
C1283  C     0.49907   0.71017   0.69078   0.00000  Uiso   1.00
C1284  C     0.49908   0.78983   0.97589   0.00000  Uiso   1.00
C1285  C     0.25090   0.53983   0.69078   0.00000  Uiso   1.00
C1286  C     0.25089   0.96017   0.97589   0.00000  Uiso   1.00
C1287  C     0.24911   0.96017   0.69078   0.00000  Uiso   1.00
C1288  C     0.24910   0.53983   0.97589   0.00000  Uiso   1.00
C1289  C     0.39049   0.64150   0.79163   0.00000  Uiso   1.00
C1290  C     0.11085   0.85741   0.87323   0.00000  Uiso   1.00
C1291  C     0.10955   0.85845   0.79163   0.00000  Uiso   1.00
C1292  C     0.43936   0.80925   0.83346   0.00000  Uiso   1.00
C1293  C     0.38910   0.64266   0.87323   0.00000  Uiso   1.00
C1294  C     0.10950   0.64149   0.87503   0.00000  Uiso   1.00
C1295  C     0.38916   0.85741   0.79343   0.00000  Uiso   1.00
C1296  C     0.39045   0.85845   0.87504   0.00000  Uiso   1.00
C1297  C     0.11086   0.64260   0.79344   0.00000  Uiso   1.00
C1298  C     0.14058   0.89141   0.79162   0.00000  Uiso   1.00
C1299  C     0.36094   0.60731   0.87323   0.00000  Uiso   1.00
C1300  C     0.35947   0.60854   0.79163   0.00000  Uiso   1.00
C1301  C     0.13900   0.89277   0.87322   0.00000  Uiso   1.00
C1302  C     0.35942   0.89141   0.87504   0.00000  Uiso   1.00
C1303  C     0.43936   0.69075   0.83320   0.00000  Uiso   1.00
C1304  C     0.13903   0.60726   0.79344   0.00000  Uiso   1.00
C1305  C     0.14053   0.60854   0.87503   0.00000  Uiso   1.00
C1306  C     0.36100   0.89276   0.79344   0.00000  Uiso   1.00
C1307  C     0.09448   0.84169   0.83264   0.00000  Uiso   1.00
C1308  C     0.40552   0.65831   0.83264   0.00000  Uiso   1.00
C1309  C     0.40552   0.84169   0.83403   0.00000  Uiso   1.00
C1310  C     0.09446   0.65829   0.83403   0.00000  Uiso   1.00
C1311  C     0.34448   0.59169   0.83263   0.00000  Uiso   1.00
C1312  C     0.15551   0.90832   0.83263   0.00000  Uiso   1.00
C1313  C     0.15551   0.59167   0.83403   0.00000  Uiso   1.00
C1314  C     0.06064   0.80925   0.83320   0.00000  Uiso   1.00
C1315  C     0.34448   0.90832   0.83403   0.00000  Uiso   1.00
C1316  C     0.47182   0.86238   0.71643   0.00000  Uiso   1.00
C1317  C     0.47170   0.63767   0.95028   0.00000  Uiso   1.00
C1318  C     0.02822   0.63764   0.71640   0.00000  Uiso   1.00
C1319  C     0.02822   0.86238   0.95029   0.00000  Uiso   1.00
C1320  C     0.22155   0.61231   0.71630   0.00000  Uiso   1.00
C1321  C     0.22142   0.88773   0.95041   0.00000  Uiso   1.00
C1322  C     0.27855   0.88772   0.71624   0.00000  Uiso   1.00
C1323  C     0.27844   0.61232   0.95038   0.00000  Uiso   1.00
C1324  C     0.31064   0.94075   0.83346   0.00000  Uiso   1.00
C1325  C     0.18936   0.55925   0.83346   0.00000  Uiso   1.00
C1326  C     0.18935   0.94075   0.83320   0.00000  Uiso   1.00
C1327  C     0.31064   0.55925   0.83320   0.00000  Uiso   1.00
C1328  C     0.00093   0.78983   0.69078   0.00000  Uiso   1.00
H1329  H     0.40234   0.65383   0.75974   0.00000  Uiso   1.00
H1330  H     0.35185   0.59270   0.90493   0.00000  Uiso   1.00
H1331  H     0.34759   0.59624   0.75974   0.00000  Uiso   1.00
H1332  H     0.14804   0.90743   0.90492   0.00000  Uiso   1.00
H1333  H     0.34750   0.90366   0.90693   0.00000  Uiso   1.00
H1334  H     0.14811   0.59264   0.76174   0.00000  Uiso   1.00
H1335  H     0.15243   0.59626   0.90692   0.00000  Uiso   1.00
H1336  H     0.35196   0.90742   0.76174   0.00000  Uiso   1.00
H1337  H     0.03664   0.84563   0.70988   0.00000  Uiso   1.00
H1338  H     0.47938   0.89323   0.69698   0.00000  Uiso   1.00
H1339  H     0.46700   0.87326   0.75166   0.00000  Uiso   1.00
H1340  H     0.10170   0.84287   0.90496   0.00000  Uiso   1.00
H1341  H     0.44190   0.84734   0.70274   0.00000  Uiso   1.00
H1342  H     0.03653   0.65430   0.95685   0.00000  Uiso   1.00
H1343  H     0.47917   0.60686   0.96983   0.00000  Uiso   1.00
H1344  H     0.46690   0.62671   0.91507   0.00000  Uiso   1.00
H1345  H     0.44179   0.65281   0.96388   0.00000  Uiso   1.00
H1346  H     0.46340   0.65436   0.70988   0.00000  Uiso   1.00
H1347  H     0.02071   0.60685   0.69683   0.00000  Uiso   1.00
H1348  H     0.03300   0.62666   0.75161   0.00000  Uiso   1.00
H1349  H     0.05815   0.65274   0.70280   0.00000  Uiso   1.00
H1350  H     0.46340   0.84564   0.95678   0.00000  Uiso   1.00
H1351  H     0.09775   0.84607   0.75974   0.00000  Uiso   1.00
H1352  H     0.02069   0.89320   0.96981   0.00000  Uiso   1.00
H1353  H     0.03303   0.87332   0.91507   0.00000  Uiso   1.00
H1354  H     0.05815   0.84730   0.96392   0.00000  Uiso   1.00
H1355  H     0.28642   0.59572   0.70997   0.00000  Uiso   1.00
H1356  H     0.22902   0.64310   0.69671   0.00000  Uiso   1.00
H1357  H     0.21670   0.62333   0.75148   0.00000  Uiso   1.00
H1358  H     0.19166   0.59713   0.70269   0.00000  Uiso   1.00
H1359  H     0.28633   0.90423   0.95665   0.00000  Uiso   1.00
H1360  H     0.22883   0.85698   0.97009   0.00000  Uiso   1.00
H1361  H     0.21658   0.87664   0.91526   0.00000  Uiso   1.00
H1362  H     0.39820   0.65724   0.90494   0.00000  Uiso   1.00
H1363  H     0.19155   0.90301   0.96397   0.00000  Uiso   1.00
H1364  H     0.21365   0.90424   0.71001   0.00000  Uiso   1.00
H1365  H     0.27115   0.85698   0.69654   0.00000  Uiso   1.00
H1366  H     0.28339   0.87660   0.75140   0.00000  Uiso   1.00
H1367  H     0.30843   0.90299   0.70269   0.00000  Uiso   1.00
H1368  H     0.21357   0.59571   0.95669   0.00000  Uiso   1.00
H1369  H     0.27097   0.64308   0.97001   0.00000  Uiso   1.00
H1370  H     0.28327   0.62336   0.91520   0.00000  Uiso   1.00
H1371  H     0.30833   0.59712   0.96397   0.00000  Uiso   1.00
H1372  H     0.09766   0.65384   0.90692   0.00000  Uiso   1.00
H1373  H     0.39831   0.84288   0.76171   0.00000  Uiso   1.00
H1374  H     0.40226   0.84607   0.90693   0.00000  Uiso   1.00
H1375  H     0.10173   0.65716   0.76173   0.00000  Uiso   1.00
H1376  H     0.15250   0.90366   0.75973   0.00000  Uiso   1.00
N1377  N     0.00000   0.75000   0.95240   0.00000  Uiso   1.00
N1378  N     0.25688   0.91923   0.95174   0.00000  Uiso   1.00
N1379  N     0.24311   0.91923   0.71492   0.00000  Uiso   1.00
N1380  N     0.24303   0.58076   0.95175   0.00000  Uiso   1.00
N1381  N    -0.00000   0.75000   0.71427   0.00000  Uiso   1.00
N1382  N     0.25000   0.50000   0.95240   0.00000  Uiso   1.00
N1383  N     0.25000   0.50000   0.71427   0.00000  Uiso   1.00
N1384  N     0.00715   0.83074   0.71491   0.00000  Uiso   1.00
N1385  N     0.00709   0.66925   0.95176   0.00000  Uiso   1.00
N1386  N     0.49288   0.66926   0.71491   0.00000  Uiso   1.00
N1387  N     0.49288   0.83075   0.95176   0.00000  Uiso   1.00
N1388  N     0.25696   0.58076   0.71492   0.00000  Uiso   1.00
O1389  O     0.04580   0.70419   0.87154   0.00000  Uiso   1.00
O1390  O     0.20419   0.54581   0.79513   0.00000  Uiso   1.00
O1391  O     0.20419   0.54581   0.87154   0.00000  Uiso   1.00
O1392  O     0.29580   0.95419   0.79513   0.00000  Uiso   1.00
O1393  O     0.20419   0.95419   0.79513   0.00000  Uiso   1.00
O1394  O     0.29580   0.54581   0.87154   0.00000  Uiso   1.00
O1395  O     0.29580   0.54581   0.79513   0.00000  Uiso   1.00
O1396  O     0.20419   0.95419   0.87154   0.00000  Uiso   1.00
O1397  O     0.45419   0.79581   0.79513   0.00000  Uiso   1.00
O1398  O     0.45419   0.79581   0.87154   0.00000  Uiso   1.00
O1399  O     0.04580   0.70419   0.79513   0.00000  Uiso   1.00
O1400  O     0.45419   0.70419   0.79513   0.00000  Uiso   1.00
O1401  O     0.04580   0.79581   0.87154   0.00000  Uiso   1.00
O1402  O     0.04580   0.79581   0.79513   0.00000  Uiso   1.00
O1403  O     0.45419   0.70419   0.87154   0.00000  Uiso   1.00
O1404  O     0.29580   0.95419   0.87154   0.00000  Uiso   1.00
Zn1405 Zn    0.00000   0.75000   0.88437   0.00000  Uiso   1.00
Zn1406 Zn   -0.00000   0.75000   0.78229   0.00000  Uiso   1.00
Zn1407 Zn    0.25000   0.50000   0.88437   0.00000  Uiso   1.00
Zn1408 Zn    0.25000   0.50000   0.78229   0.00000  Uiso   1.00
C1409  C     0.56064   0.69074   0.83346   0.00000  Uiso   1.00
C1410  C     0.50093   0.71017   0.97589   0.00000  Uiso   1.00
C1411  C     0.99907   0.71017   0.69078   0.00000  Uiso   1.00
C1412  C     0.99908   0.78983   0.97589   0.00000  Uiso   1.00
C1413  C     0.75090   0.53983   0.69078   0.00000  Uiso   1.00
C1414  C     0.75089   0.96017   0.97589   0.00000  Uiso   1.00
C1415  C     0.74911   0.96017   0.69078   0.00000  Uiso   1.00
C1416  C     0.74910   0.53983   0.97589   0.00000  Uiso   1.00
C1417  C     0.89049   0.64150   0.79163   0.00000  Uiso   1.00
C1418  C     0.61085   0.85741   0.87323   0.00000  Uiso   1.00
C1419  C     0.60955   0.85845   0.79163   0.00000  Uiso   1.00
C1420  C     0.93936   0.80925   0.83346   0.00000  Uiso   1.00
C1421  C     0.88910   0.64266   0.87323   0.00000  Uiso   1.00
C1422  C     0.60950   0.64149   0.87503   0.00000  Uiso   1.00
C1423  C     0.88916   0.85741   0.79343   0.00000  Uiso   1.00
C1424  C     0.89045   0.85845   0.87504   0.00000  Uiso   1.00
C1425  C     0.61086   0.64260   0.79344   0.00000  Uiso   1.00
C1426  C     0.64058   0.89141   0.79162   0.00000  Uiso   1.00
C1427  C     0.86094   0.60731   0.87323   0.00000  Uiso   1.00
C1428  C     0.85947   0.60854   0.79163   0.00000  Uiso   1.00
C1429  C     0.63900   0.89277   0.87322   0.00000  Uiso   1.00
C1430  C     0.85942   0.89141   0.87504   0.00000  Uiso   1.00
C1431  C     0.93936   0.69075   0.83320   0.00000  Uiso   1.00
C1432  C     0.63903   0.60726   0.79344   0.00000  Uiso   1.00
C1433  C     0.64053   0.60854   0.87503   0.00000  Uiso   1.00
C1434  C     0.86100   0.89276   0.79344   0.00000  Uiso   1.00
C1435  C     0.59448   0.84169   0.83264   0.00000  Uiso   1.00
C1436  C     0.90552   0.65831   0.83264   0.00000  Uiso   1.00
C1437  C     0.90552   0.84169   0.83403   0.00000  Uiso   1.00
C1438  C     0.59446   0.65829   0.83403   0.00000  Uiso   1.00
C1439  C     0.84448   0.59169   0.83263   0.00000  Uiso   1.00
C1440  C     0.65551   0.90832   0.83263   0.00000  Uiso   1.00
C1441  C     0.65551   0.59167   0.83403   0.00000  Uiso   1.00
C1442  C     0.56064   0.80925   0.83320   0.00000  Uiso   1.00
C1443  C     0.84448   0.90832   0.83403   0.00000  Uiso   1.00
C1444  C     0.97182   0.86238   0.71643   0.00000  Uiso   1.00
C1445  C     0.97170   0.63767   0.95028   0.00000  Uiso   1.00
C1446  C     0.52822   0.63764   0.71640   0.00000  Uiso   1.00
C1447  C     0.52822   0.86238   0.95029   0.00000  Uiso   1.00
C1448  C     0.72155   0.61231   0.71630   0.00000  Uiso   1.00
C1449  C     0.72142   0.88773   0.95041   0.00000  Uiso   1.00
C1450  C     0.77855   0.88772   0.71624   0.00000  Uiso   1.00
C1451  C     0.77844   0.61232   0.95038   0.00000  Uiso   1.00
C1452  C     0.81064   0.94075   0.83346   0.00000  Uiso   1.00
C1453  C     0.68936   0.55925   0.83346   0.00000  Uiso   1.00
C1454  C     0.68935   0.94075   0.83320   0.00000  Uiso   1.00
C1455  C     0.81064   0.55925   0.83320   0.00000  Uiso   1.00
C1456  C     0.50093   0.78983   0.69078   0.00000  Uiso   1.00
H1457  H     0.90234   0.65383   0.75974   0.00000  Uiso   1.00
H1458  H     0.85185   0.59270   0.90493   0.00000  Uiso   1.00
H1459  H     0.84759   0.59624   0.75974   0.00000  Uiso   1.00
H1460  H     0.64804   0.90743   0.90492   0.00000  Uiso   1.00
H1461  H     0.84750   0.90366   0.90693   0.00000  Uiso   1.00
H1462  H     0.64811   0.59264   0.76174   0.00000  Uiso   1.00
H1463  H     0.65243   0.59626   0.90692   0.00000  Uiso   1.00
H1464  H     0.85196   0.90742   0.76174   0.00000  Uiso   1.00
H1465  H     0.53664   0.84563   0.70988   0.00000  Uiso   1.00
H1466  H     0.97938   0.89323   0.69698   0.00000  Uiso   1.00
H1467  H     0.96700   0.87326   0.75166   0.00000  Uiso   1.00
H1468  H     0.60170   0.84287   0.90496   0.00000  Uiso   1.00
H1469  H     0.94190   0.84734   0.70274   0.00000  Uiso   1.00
H1470  H     0.53653   0.65430   0.95685   0.00000  Uiso   1.00
H1471  H     0.97917   0.60686   0.96983   0.00000  Uiso   1.00
H1472  H     0.96690   0.62671   0.91507   0.00000  Uiso   1.00
H1473  H     0.94179   0.65281   0.96388   0.00000  Uiso   1.00
H1474  H     0.96340   0.65436   0.70988   0.00000  Uiso   1.00
H1475  H     0.52071   0.60685   0.69683   0.00000  Uiso   1.00
H1476  H     0.53300   0.62666   0.75161   0.00000  Uiso   1.00
H1477  H     0.55815   0.65274   0.70280   0.00000  Uiso   1.00
H1478  H     0.96340   0.84564   0.95678   0.00000  Uiso   1.00
H1479  H     0.59775   0.84607   0.75974   0.00000  Uiso   1.00
H1480  H     0.52069   0.89320   0.96981   0.00000  Uiso   1.00
H1481  H     0.53303   0.87332   0.91507   0.00000  Uiso   1.00
H1482  H     0.55815   0.84730   0.96392   0.00000  Uiso   1.00
H1483  H     0.78642   0.59572   0.70997   0.00000  Uiso   1.00
H1484  H     0.72902   0.64310   0.69671   0.00000  Uiso   1.00
H1485  H     0.71670   0.62333   0.75148   0.00000  Uiso   1.00
H1486  H     0.69166   0.59713   0.70269   0.00000  Uiso   1.00
H1487  H     0.78633   0.90423   0.95665   0.00000  Uiso   1.00
H1488  H     0.72883   0.85698   0.97009   0.00000  Uiso   1.00
H1489  H     0.71658   0.87664   0.91526   0.00000  Uiso   1.00
H1490  H     0.89820   0.65724   0.90494   0.00000  Uiso   1.00
H1491  H     0.69155   0.90301   0.96397   0.00000  Uiso   1.00
H1492  H     0.71365   0.90424   0.71001   0.00000  Uiso   1.00
H1493  H     0.77115   0.85698   0.69654   0.00000  Uiso   1.00
H1494  H     0.78339   0.87660   0.75140   0.00000  Uiso   1.00
H1495  H     0.80843   0.90299   0.70269   0.00000  Uiso   1.00
H1496  H     0.71357   0.59571   0.95669   0.00000  Uiso   1.00
H1497  H     0.77097   0.64308   0.97001   0.00000  Uiso   1.00
H1498  H     0.78327   0.62336   0.91520   0.00000  Uiso   1.00
H1499  H     0.80833   0.59712   0.96397   0.00000  Uiso   1.00
H1500  H     0.59766   0.65384   0.90692   0.00000  Uiso   1.00
H1501  H     0.89831   0.84288   0.76171   0.00000  Uiso   1.00
H1502  H     0.90226   0.84607   0.90693   0.00000  Uiso   1.00
H1503  H     0.60173   0.65716   0.76173   0.00000  Uiso   1.00
H1504  H     0.65250   0.90366   0.75973   0.00000  Uiso   1.00
N1505  N     0.50000   0.75000   0.95240   0.00000  Uiso   1.00
N1506  N     0.75688   0.91923   0.95174   0.00000  Uiso   1.00
N1507  N     0.74311   0.91923   0.71492   0.00000  Uiso   1.00
N1508  N     0.74303   0.58076   0.95175   0.00000  Uiso   1.00
N1509  N     0.50000   0.75000   0.71427   0.00000  Uiso   1.00
N1510  N     0.75000   0.50000   0.95240   0.00000  Uiso   1.00
N1511  N     0.75000   0.50000   0.71427   0.00000  Uiso   1.00
N1512  N     0.50715   0.83074   0.71491   0.00000  Uiso   1.00
N1513  N     0.50709   0.66925   0.95176   0.00000  Uiso   1.00
N1514  N     0.99288   0.66926   0.71491   0.00000  Uiso   1.00
N1515  N     0.99288   0.83075   0.95176   0.00000  Uiso   1.00
N1516  N     0.75696   0.58076   0.71492   0.00000  Uiso   1.00
O1517  O     0.54580   0.70419   0.87154   0.00000  Uiso   1.00
O1518  O     0.70419   0.54581   0.79513   0.00000  Uiso   1.00
O1519  O     0.70419   0.54581   0.87154   0.00000  Uiso   1.00
O1520  O     0.79580   0.95419   0.79513   0.00000  Uiso   1.00
O1521  O     0.70419   0.95419   0.79513   0.00000  Uiso   1.00
O1522  O     0.79580   0.54581   0.87154   0.00000  Uiso   1.00
O1523  O     0.79580   0.54581   0.79513   0.00000  Uiso   1.00
O1524  O     0.70419   0.95419   0.87154   0.00000  Uiso   1.00
O1525  O     0.95419   0.79581   0.79513   0.00000  Uiso   1.00
O1526  O     0.95419   0.79581   0.87154   0.00000  Uiso   1.00
O1527  O     0.54580   0.70419   0.79513   0.00000  Uiso   1.00
O1528  O     0.95419   0.70419   0.79513   0.00000  Uiso   1.00
O1529  O     0.54580   0.79581   0.87154   0.00000  Uiso   1.00
O1530  O     0.54580   0.79581   0.79513   0.00000  Uiso   1.00
O1531  O     0.95419   0.70419   0.87154   0.00000  Uiso   1.00
O1532  O     0.79580   0.95419   0.87154   0.00000  Uiso   1.00
Zn1533 Zn    0.50000   0.75000   0.88437   0.00000  Uiso   1.00
Zn1534 Zn    0.50000   0.75000   0.78229   0.00000  Uiso   1.00
Zn1535 Zn    0.75000   0.50000   0.88437   0.00000  Uiso   1.00
Zn1536 Zn    0.75000   0.50000   0.78229   0.00000  Uiso   1.00
loop_
_geom_bond_atom_site_label_1
_geom_bond_atom_site_label_2
_geom_bond_distance
_geom_bond_site_symmetry_2
_ccdc_geom_bond_type
C1     O119    1.294   .     A
C1     O109    1.287   .     A
C1     C30     1.426   .     S
C2     N97     1.371   .     A
C2     N105    1.422   .     S
C2     C643    1.437   1_455 S
C3     N229    1.371   .     A
C3     N106    1.421   .     S
C3     C1154   1.437   1_554 S
C4     N107    1.422   .     S
C4     C688    1.437   .     S
C4     N225    1.371   .     S
C5     N103    1.371   .     A
C5     N108    1.422   .     S
C5     C1032   1.437   1_554 S
C6     N98     1.421   .     S
C6     C519    1.437   .     S
C6     N358    1.371   .     S
C7     N99     1.422   .     S
C7     C1030   1.437   1_554 S
C7     N359    1.371   .     S
C8     N100    1.422   .     S
C8     N102    1.371   .     A
C8     C517    1.437   .     S
C9     H49     1.082   .     S
C9     C20     1.374   .     A
C9     C28     1.399   .     A
C10    C27     1.392   .     A
C10    H60     1.076   .     S
C10    C21     1.366   .     A
C11    C18     1.374   .     A
C11    H71     1.082   .     S
C11    C27     1.399   .     A
C12    C29     1.426   .     S
C12    O118    1.287   .     A
C12    O117    1.294   .     A
C13    C28     1.392   .     A
C13    C19     1.366   .     A
C13    H82     1.076   .     S
C14    C30     1.399   .     A
C14    H92     1.082   .     S
C14    C25     1.374   .     A
C15    C29     1.392   .     A
C15    C26     1.366   .     A
C15    H93     1.076   .     S
C16    C22     1.374   .     A
C16    H94     1.082   .     S
C16    C29     1.399   .     A
C17    C30     1.392   .     A
C17    C24     1.366   .     A
C17    H95     1.076   .     S
C18    H96     1.082   .     S
C18    C32     1.399   .     A
C19    C31     1.392   .     A
C19    H50     1.076   .     S
C20    H51     1.082   .     S
C20    C31     1.399   .     A
C21    C32     1.392   .     A
C21    H52     1.076   .     S
C22    C35     1.399   .     A
C22    H53     1.082   .     S
C23    O120    1.287   .     A
C23    O123    1.294   .     A
C23    C28     1.426   .     S
C24    H54     1.076   .     S
C24    C33     1.392   .     A
C25    H55     1.082   .     S
C25    C33     1.399   .     A
C26    H56     1.076   .     S
C26    C35     1.392   .     A
C27    C34     1.426   .     S
C31    C47     1.426   .     S
C32    C46     1.426   .     S
C33    C45     1.426   .     S
C34    O122    1.287   .     A
C34    O121    1.294   .     A
C35    C44     1.426   .     S
C36    H59     1.107   .     S
C36    H58     1.107   .     S
C36    H61     1.111   .     S
C36    N232    1.446   .     S
C37    H65     1.111   .     S
C37    H63     1.107   .     S
C37    H64     1.107   .     S
C37    N233    1.446   .     S
C38    H69     1.111   .     S
C38    H68     1.108   .     S
C38    H67     1.107   .     S
C38    N234    1.446   1_455 S
C39    H74     1.111   .     S
C39    H72     1.107   .     S
C39    H73     1.107   .     S
C39    N235    1.446   1_455 S
C40    N108    1.446   .     S
C40    H76     1.107   .     S
C40    H77     1.107   .     S
C40    H78     1.111   .     S
C41    H80     1.107   .     S
C41    H81     1.107   .     S
C41    N98     1.446   .     S
C41    H83     1.111   .     S
C42    H86     1.107   .     S
C42    H85     1.107   .     S
C42    N99     1.446   .     S
C42    H87     1.111   .     S
C43    H89     1.107   .     S
C43    H90     1.107   .     S
C43    N100    1.446   .     S
C43    H91     1.111   .     S
C44    O124    1.287   .     A
C44    O112    1.294   .     A
C45    O110    1.294   .     A
C45    O111    1.287   .     A
C46    O113    1.287   .     A
C46    O116    1.294   .     A
C47    O114    1.294   .     A
C47    O115    1.287   .     A
C48    N104    1.422   .     S
C48    C1156   1.437   1_454 S
C48    N101    1.371   .     S
H57    N104    1.030   .     S
H62    N105    1.030   .     S
H66    N106    1.030   .     S
H70    N107    1.030   .     S
H75    N108    1.030   .     S
H79    N98     1.030   .     S
H84    N99     1.030   .     S
H88    N100    1.030   .     S
N97    Zn125   2.025   .     S
N97    C132    1.371   1_455 S
N101   C131    1.371   1_455 A
N101   Zn126   2.025   .     S
N102   C262    1.371   1_545 S
N102   Zn127   2.025   .     S
N103   Zn128   2.025   .     S
N103   C263    1.371   1_545 S
N104   C164    1.446   1_455 S
N105   C165    1.446   1_455 S
N106   C166    1.446   .     S
N107   C167    1.446   .     S
O109   Zn125   2.006   .     S
O110   Zn128   2.006   .     S
O111   Zn127   2.006   .     S
O112   Zn384   2.006   .     S
O113   Zn384   2.006   .     S
O114   Zn127   2.006   .     S
O115   Zn128   2.006   .     S
O116   Zn383   2.006   .     S
O117   Zn254   2.006   .     S
O118   Zn253   2.006   .     S
O119   Zn126   2.006   .     S
O120   Zn254   2.006   .     S
O121   Zn125   2.006   .     S
O122   Zn126   2.006   .     S
O123   Zn253   2.006   .     S
O124   Zn383   2.006   .     S
Zn125  O251    2.006   1_455 S
Zn125  O246    2.006   1_455 S
Zn126  O245    2.006   1_455 S
Zn126  O248    2.006   1_455 S
Zn127  O372    2.006   1_545 S
Zn127  O380    2.006   1_545 S
Zn128  O369    2.006   1_545 S
Zn128  O368    2.006   1_545 S
C129   O247    1.294   .     A
C129   O237    1.287   .     A
C129   C158    1.426   .     S
C130   N225    1.371   .     A
C130   N233    1.422   .     S
C130   C515    1.437   .     S
C131   N101    1.371   1_655 A
C131   N234    1.421   .     S
C131   C1026   1.437   1_654 S
C132   N235    1.422   .     S
C132   C560    1.437   1_655 S
C132   N97     1.371   1_655 S
C133   N231    1.371   .     A
C133   N236    1.422   .     S
C133   C1160   1.437   1_554 S
C134   N226    1.421   .     S
C134   C647    1.437   .     S
C134   N486    1.371   .     S
C135   N227    1.422   .     S
C135   C1158   1.437   1_554 S
C135   N487    1.371   .     S
C136   N228    1.422   .     S
C136   N230    1.371   .     A
C136   C645    1.437   .     S
C137   H177    1.082   .     S
C137   C148    1.374   .     A
C137   C156    1.399   .     A
C138   C155    1.392   .     A
C138   H188    1.076   .     S
C138   C149    1.366   .     A
C139   C146    1.374   .     A
C139   H199    1.082   .     S
C139   C155    1.399   .     A
C140   C157    1.426   .     S
C140   O246    1.287   .     A
C140   O245    1.294   .     A
C141   C156    1.392   .     A
C141   C147    1.366   .     A
C141   H210    1.076   .     S
C142   C158    1.399   .     A
C142   H220    1.082   .     S
C142   C153    1.374   .     A
C143   C157    1.392   .     A
C143   C154    1.366   .     A
C143   H221    1.076   .     S
C144   C150    1.374   .     A
C144   H222    1.082   .     S
C144   C157    1.399   .     A
C145   C158    1.392   .     A
C145   C152    1.366   .     A
C145   H223    1.076   .     S
C146   H224    1.082   .     S
C146   C160    1.399   .     A
C147   C159    1.392   .     A
C147   H178    1.076   .     S
C148   H179    1.082   .     S
C148   C159    1.399   .     A
C149   C160    1.392   .     A
C149   H180    1.076   .     S
C150   C163    1.399   .     A
C150   H181    1.082   .     S
C151   O248    1.287   .     A
C151   O251    1.294   .     A
C151   C156    1.426   .     S
C152   H182    1.076   .     S
C152   C161    1.392   .     A
C153   H183    1.082   .     S
C153   C161    1.399   .     A
C154   H184    1.076   .     S
C154   C163    1.392   .     A
C155   C162    1.426   .     S
C159   C175    1.426   .     S
C160   C174    1.426   .     S
C161   C173    1.426   .     S
C162   O250    1.287   .     A
C162   O249    1.294   .     A
C163   C172    1.426   .     S
C164   H187    1.107   .     S
C164   H186    1.107   .     S
C164   H189    1.111   .     S
C164   N104    1.446   1_655 S
C165   H193    1.111   .     S
C165   H191    1.107   .     S
C165   H192    1.107   .     S
C165   N105    1.446   1_655 S
C166   H197    1.111   .     S
C166   H196    1.108   .     S
C166   H195    1.107   .     S
C167   H202    1.111   .     S
C167   H200    1.107   .     S
C167   H201    1.107   .     S
C168   N236    1.446   .     S
C168   H204    1.107   .     S
C168   H205    1.107   .     S
C168   H206    1.111   .     S
C169   H208    1.107   .     S
C169   H209    1.107   .     S
C169   N226    1.446   .     S
C169   H211    1.111   .     S
C170   H214    1.107   .     S
C170   H213    1.107   .     S
C170   N227    1.446   .     S
C170   H215    1.111   .     S
C171   H217    1.107   .     S
C171   H218    1.107   .     S
C171   N228    1.446   .     S
C171   H219    1.111   .     S
C172   O252    1.287   .     A
C172   O240    1.294   .     A
C173   O238    1.294   .     A
C173   O239    1.287   .     A
C174   O241    1.287   .     A
C174   O244    1.294   .     A
C175   O242    1.294   .     A
C175   O243    1.287   .     A
C176   N232    1.422   .     S
C176   C1028   1.437   1_554 S
C176   N229    1.371   .     S
H185   N232    1.030   .     S
H190   N233    1.030   .     S
H194   N234    1.030   .     S
H198   N235    1.030   .     S
H203   N236    1.030   .     S
H207   N226    1.030   .     S
H212   N227    1.030   .     S
H216   N228    1.030   .     S
N225   Zn253   2.025   .     S
N229   Zn254   2.025   .     S
N230   C390    1.371   1_545 S
N230   Zn255   2.025   .     S
N231   Zn256   2.025   .     S
N231   C391    1.371   1_545 S
N234   C38     1.446   1_655 S
N235   C39     1.446   1_655 S
O237   Zn253   2.006   .     S
O238   Zn256   2.006   .     S
O239   Zn255   2.006   .     S
O240   Zn512   2.006   .     S
O241   Zn512   2.006   .     S
O242   Zn255   2.006   .     S
O243   Zn256   2.006   .     S
O244   Zn511   2.006   .     S
O245   Zn126   2.006   1_655 S
O246   Zn125   2.006   1_655 S
O247   Zn254   2.006   .     S
O248   Zn126   2.006   1_655 S
O249   Zn253   2.006   .     S
O250   Zn254   2.006   .     S
O251   Zn125   2.006   1_655 S
O252   Zn511   2.006   .     S
Zn255  O500    2.006   1_545 S
Zn255  O508    2.006   1_545 S
Zn256  O497    2.006   1_545 S
Zn256  O496    2.006   1_545 S
C257   O375    1.294   .     A
C257   O365    1.287   .     A
C257   C286    1.426   .     S
C258   N353    1.371   .     A
C258   N361    1.422   .     S
C258   C899    1.437   1_455 S
C259   N485    1.371   .     A
C259   N362    1.421   .     S
C259   C1410   1.437   1_554 S
C260   N363    1.422   .     S
C260   C944    1.437   .     S
C260   N481    1.371   .     S
C261   N359    1.371   .     A
C261   N364    1.422   .     S
C261   C1288   1.437   1_554 S
C262   N354    1.421   .     S
C262   C775    1.437   .     S
C262   N102    1.371   1_565 S
C263   N355    1.422   .     S
C263   C1286   1.437   1_554 S
C263   N103    1.371   1_565 S
C264   N356    1.422   .     S
C264   N358    1.371   .     A
C264   C773    1.437   .     S
C265   H305    1.082   .     S
C265   C276    1.374   .     A
C265   C284    1.399   .     A
C266   C283    1.392   .     A
C266   H316    1.076   .     S
C266   C277    1.366   .     A
C267   C274    1.374   .     A
C267   H327    1.082   .     S
C267   C283    1.399   .     A
C268   C285    1.426   .     S
C268   O374    1.287   .     A
C268   O373    1.294   .     A
C269   C284    1.392   .     A
C269   C275    1.366   .     A
C269   H338    1.076   .     S
C270   C286    1.399   .     A
C270   H348    1.082   .     S
C270   C281    1.374   .     A
C271   C285    1.392   .     A
C271   C282    1.366   .     A
C271   H349    1.076   .     S
C272   C278    1.374   .     A
C272   H350    1.082   .     S
C272   C285    1.399   .     A
C273   C286    1.392   .     A
C273   C280    1.366   .     A
C273   H351    1.076   .     S
C274   H352    1.082   .     S
C274   C288    1.399   .     A
C275   C287    1.392   .     A
C275   H306    1.076   .     S
C276   H307    1.082   .     S
C276   C287    1.399   .     A
C277   C288    1.392   .     A
C277   H308    1.076   .     S
C278   C291    1.399   .     A
C278   H309    1.082   .     S
C279   O376    1.287   .     A
C279   O379    1.294   .     A
C279   C284    1.426   .     S
C280   H310    1.076   .     S
C280   C289    1.392   .     A
C281   H311    1.082   .     S
C281   C289    1.399   .     A
C282   H312    1.076   .     S
C282   C291    1.392   .     A
C283   C290    1.426   .     S
C287   C303    1.426   .     S
C288   C302    1.426   .     S
C289   C301    1.426   .     S
C290   O378    1.287   .     A
C290   O377    1.294   .     A
C291   C300    1.426   .     S
C292   H315    1.107   .     S
C292   H314    1.107   .     S
C292   H317    1.111   .     S
C292   N488    1.446   .     S
C293   H321    1.111   .     S
C293   H319    1.107   .     S
C293   H320    1.107   .     S
C293   N489    1.446   .     S
C294   H325    1.111   .     S
C294   H324    1.108   .     S
C294   H323    1.107   .     S
C294   N490    1.446   1_455 S
C295   H330    1.111   .     S
C295   H328    1.107   .     S
C295   H329    1.107   .     S
C295   N491    1.446   1_455 S
C296   N364    1.446   .     S
C296   H332    1.107   .     S
C296   H333    1.107   .     S
C296   H334    1.111   .     S
C297   H336    1.107   .     S
C297   H337    1.107   .     S
C297   N354    1.446   .     S
C297   H339    1.111   .     S
C298   H342    1.107   .     S
C298   H341    1.107   .     S
C298   N355    1.446   .     S
C298   H343    1.111   .     S
C299   H345    1.107   .     S
C299   H346    1.107   .     S
C299   N356    1.446   .     S
C299   H347    1.111   .     S
C300   O380    1.287   .     A
C300   O368    1.294   .     A
C301   O366    1.294   .     A
C301   O367    1.287   .     A
C302   O369    1.287   .     A
C302   O372    1.294   .     A
C303   O370    1.294   .     A
C303   O371    1.287   .     A
C304   N360    1.422   .     S
C304   C1412   1.437   1_454 S
C304   N357    1.371   .     S
H313   N360    1.030   .     S
H318   N361    1.030   .     S
H322   N362    1.030   .     S
H326   N363    1.030   .     S
H331   N364    1.030   .     S
H335   N354    1.030   .     S
H340   N355    1.030   .     S
H344   N356    1.030   .     S
N353   Zn381   2.025   .     S
N353   C388    1.371   1_455 S
N357   C387    1.371   1_455 A
N357   Zn382   2.025   .     S
N358   Zn383   2.025   .     S
N359   Zn384   2.025   .     S
N360   C420    1.446   1_455 S
N361   C421    1.446   1_455 S
N362   C422    1.446   .     S
N363   C423    1.446   .     S
O365   Zn381   2.006   .     S
O366   Zn384   2.006   .     S
O367   Zn383   2.006   .     S
O368   Zn128   2.006   1_565 S
O369   Zn128   2.006   1_565 S
O370   Zn383   2.006   .     S
O371   Zn384   2.006   .     S
O372   Zn127   2.006   1_565 S
O373   Zn510   2.006   .     S
O374   Zn509   2.006   .     S
O375   Zn382   2.006   .     S
O376   Zn510   2.006   .     S
O377   Zn381   2.006   .     S
O378   Zn382   2.006   .     S
O379   Zn509   2.006   .     S
O380   Zn127   2.006   1_565 S
Zn381  O507    2.006   1_455 S
Zn381  O502    2.006   1_455 S
Zn382  O501    2.006   1_455 S
Zn382  O504    2.006   1_455 S
C385   O503    1.294   .     A
C385   O493    1.287   .     A
C385   C414    1.426   .     S
C386   N481    1.371   .     A
C386   N489    1.422   .     S
C386   C771    1.437   .     S
C387   N357    1.371   1_655 A
C387   N490    1.421   .     S
C387   C1282   1.437   1_654 S
C388   N491    1.422   .     S
C388   C816    1.437   1_655 S
C388   N353    1.371   1_655 S
C389   N487    1.371   .     A
C389   N492    1.422   .     S
C389   C1416   1.437   1_554 S
C390   N482    1.421   .     S
C390   C903    1.437   .     S
C390   N230    1.371   1_565 S
C391   N483    1.422   .     S
C391   C1414   1.437   1_554 S
C391   N231    1.371   1_565 S
C392   N484    1.422   .     S
C392   N486    1.371   .     A
C392   C901    1.437   .     S
C393   H433    1.082   .     S
C393   C404    1.374   .     A
C393   C412    1.399   .     A
C394   C411    1.392   .     A
C394   H444    1.076   .     S
C394   C405    1.366   .     A
C395   C402    1.374   .     A
C395   H455    1.082   .     S
C395   C411    1.399   .     A
C396   C413    1.426   .     S
C396   O502    1.287   .     A
C396   O501    1.294   .     A
C397   C412    1.392   .     A
C397   C403    1.366   .     A
C397   H466    1.076   .     S
C398   C414    1.399   .     A
C398   H476    1.082   .     S
C398   C409    1.374   .     A
C399   C413    1.392   .     A
C399   C410    1.366   .     A
C399   H477    1.076   .     S
C400   C406    1.374   .     A
C400   H478    1.082   .     S
C400   C413    1.399   .     A
C401   C414    1.392   .     A
C401   C408    1.366   .     A
C401   H479    1.076   .     S
C402   H480    1.082   .     S
C402   C416    1.399   .     A
C403   C415    1.392   .     A
C403   H434    1.076   .     S
C404   H435    1.082   .     S
C404   C415    1.399   .     A
C405   C416    1.392   .     A
C405   H436    1.076   .     S
C406   C419    1.399   .     A
C406   H437    1.082   .     S
C407   O504    1.287   .     A
C407   O507    1.294   .     A
C407   C412    1.426   .     S
C408   H438    1.076   .     S
C408   C417    1.392   .     A
C409   H439    1.082   .     S
C409   C417    1.399   .     A
C410   H440    1.076   .     S
C410   C419    1.392   .     A
C411   C418    1.426   .     S
C415   C431    1.426   .     S
C416   C430    1.426   .     S
C417   C429    1.426   .     S
C418   O506    1.287   .     A
C418   O505    1.294   .     A
C419   C428    1.426   .     S
C420   H443    1.107   .     S
C420   H442    1.107   .     S
C420   H445    1.111   .     S
C420   N360    1.446   1_655 S
C421   H449    1.111   .     S
C421   H447    1.107   .     S
C421   H448    1.107   .     S
C421   N361    1.446   1_655 S
C422   H453    1.111   .     S
C422   H452    1.108   .     S
C422   H451    1.107   .     S
C423   H458    1.111   .     S
C423   H456    1.107   .     S
C423   H457    1.107   .     S
C424   N492    1.446   .     S
C424   H460    1.107   .     S
C424   H461    1.107   .     S
C424   H462    1.111   .     S
C425   H464    1.107   .     S
C425   H465    1.107   .     S
C425   N482    1.446   .     S
C425   H467    1.111   .     S
C426   H470    1.107   .     S
C426   H469    1.107   .     S
C426   N483    1.446   .     S
C426   H471    1.111   .     S
C427   H473    1.107   .     S
C427   H474    1.107   .     S
C427   N484    1.446   .     S
C427   H475    1.111   .     S
C428   O508    1.287   .     A
C428   O496    1.294   .     A
C429   O494    1.294   .     A
C429   O495    1.287   .     A
C430   O497    1.287   .     A
C430   O500    1.294   .     A
C431   O498    1.294   .     A
C431   O499    1.287   .     A
C432   N488    1.422   .     S
C432   C1284   1.437   1_554 S
C432   N485    1.371   .     S
H441   N488    1.030   .     S
H446   N489    1.030   .     S
H450   N490    1.030   .     S
H454   N491    1.030   .     S
H459   N492    1.030   .     S
H463   N482    1.030   .     S
H468   N483    1.030   .     S
H472   N484    1.030   .     S
N481   Zn509   2.025   .     S
N485   Zn510   2.025   .     S
N486   Zn511   2.025   .     S
N487   Zn512   2.025   .     S
N490   C294    1.446   1_655 S
N491   C295    1.446   1_655 S
O493   Zn509   2.006   .     S
O494   Zn512   2.006   .     S
O495   Zn511   2.006   .     S
O496   Zn256   2.006   1_565 S
O497   Zn256   2.006   1_565 S
O498   Zn511   2.006   .     S
O499   Zn512   2.006   .     S
O500   Zn255   2.006   1_565 S
O501   Zn382   2.006   1_655 S
O502   Zn381   2.006   1_655 S
O503   Zn510   2.006   .     S
O504   Zn382   2.006   1_655 S
O505   Zn509   2.006   .     S
O506   Zn510   2.006   .     S
O507   Zn381   2.006   1_655 S
O508   Zn255   2.006   1_565 S
C513   O631    1.294   .     A
C513   O621    1.287   .     A
C513   C542    1.426   .     S
C514   N609    1.371   .     A
C514   N617    1.422   .     S
C514   C1155   1.437   1_455 S
C515   N741    1.371   .     A
C515   N618    1.421   .     S
C516   N619    1.422   .     S
C516   C1200   1.437   .     S
C516   N737    1.371   .     S
C517   N615    1.371   .     A
C517   N620    1.422   .     S
C518   N610    1.421   .     S
C518   C1031   1.437   .     S
C518   N870    1.371   .     S
C519   N611    1.422   .     S
C519   N871    1.371   .     S
C520   N612    1.422   .     S
C520   N614    1.371   .     A
C520   C1029   1.437   .     S
C521   H561    1.082   .     S
C521   C532    1.374   .     A
C521   C540    1.399   .     A
C522   C539    1.392   .     A
C522   H572    1.076   .     S
C522   C533    1.366   .     A
C523   C530    1.374   .     A
C523   H583    1.082   .     S
C523   C539    1.399   .     A
C524   C541    1.426   .     S
C524   O630    1.287   .     A
C524   O629    1.294   .     A
C525   C540    1.392   .     A
C525   C531    1.366   .     A
C525   H594    1.076   .     S
C526   C542    1.399   .     A
C526   H604    1.082   .     S
C526   C537    1.374   .     A
C527   C541    1.392   .     A
C527   C538    1.366   .     A
C527   H605    1.076   .     S
C528   C534    1.374   .     A
C528   H606    1.082   .     S
C528   C541    1.399   .     A
C529   C542    1.392   .     A
C529   C536    1.366   .     A
C529   H607    1.076   .     S
C530   H608    1.082   .     S
C530   C544    1.399   .     A
C531   C543    1.392   .     A
C531   H562    1.076   .     S
C532   H563    1.082   .     S
C532   C543    1.399   .     A
C533   C544    1.392   .     A
C533   H564    1.076   .     S
C534   C547    1.399   .     A
C534   H565    1.082   .     S
C535   O632    1.287   .     A
C535   O635    1.294   .     A
C535   C540    1.426   .     S
C536   H566    1.076   .     S
C536   C545    1.392   .     A
C537   H567    1.082   .     S
C537   C545    1.399   .     A
C538   H568    1.076   .     S
C538   C547    1.392   .     A
C539   C546    1.426   .     S
C543   C559    1.426   .     S
C544   C558    1.426   .     S
C545   C557    1.426   .     S
C546   O634    1.287   .     A
C546   O633    1.294   .     A
C547   C556    1.426   .     S
C548   H571    1.107   .     S
C548   H570    1.107   .     S
C548   H573    1.111   .     S
C548   N744    1.446   .     S
C549   H577    1.111   .     S
C549   H575    1.107   .     S
C549   H576    1.107   .     S
C549   N745    1.446   .     S
C550   H581    1.111   .     S
C550   H580    1.108   .     S
C550   H579    1.107   .     S
C550   N746    1.446   1_455 S
C551   H586    1.111   .     S
C551   H584    1.107   .     S
C551   H585    1.107   .     S
C551   N747    1.446   1_455 S
C552   N620    1.446   .     S
C552   H588    1.107   .     S
C552   H589    1.107   .     S
C552   H590    1.111   .     S
C553   H592    1.107   .     S
C553   H593    1.107   .     S
C553   N610    1.446   .     S
C553   H595    1.111   .     S
C554   H598    1.107   .     S
C554   H597    1.107   .     S
C554   N611    1.446   .     S
C554   H599    1.111   .     S
C555   H601    1.107   .     S
C555   H602    1.107   .     S
C555   N612    1.446   .     S
C555   H603    1.111   .     S
C556   O636    1.287   .     A
C556   O624    1.294   .     A
C557   O622    1.294   .     A
C557   O623    1.287   .     A
C558   O625    1.287   .     A
C558   O628    1.294   .     A
C559   O626    1.294   .     A
C559   O627    1.287   .     A
C560   N616    1.422   .     S
C560   C132    1.437   1_455 S
C560   N613    1.371   .     S
H569   N616    1.030   .     S
H574   N617    1.030   .     S
H578   N618    1.030   .     S
H582   N619    1.030   .     S
H587   N620    1.030   .     S
H591   N610    1.030   .     S
H596   N611    1.030   .     S
H600   N612    1.030   .     S
N609   Zn637   2.025   .     S
N609   C644    1.371   1_455 S
N613   C643    1.371   1_455 A
N613   Zn638   2.025   .     S
N614   C774    1.371   1_545 S
N614   Zn639   2.025   .     S
N615   Zn640   2.025   .     S
N615   C775    1.371   1_545 S
N616   C676    1.446   1_455 S
N617   C677    1.446   1_455 S
N618   C678    1.446   .     S
N619   C679    1.446   .     S
O621   Zn637   2.006   .     S
O622   Zn640   2.006   .     S
O623   Zn639   2.006   .     S
O624   Zn896   2.006   .     S
O625   Zn896   2.006   .     S
O626   Zn639   2.006   .     S
O627   Zn640   2.006   .     S
O628   Zn895   2.006   .     S
O629   Zn766   2.006   .     S
O630   Zn765   2.006   .     S
O631   Zn638   2.006   .     S
O632   Zn766   2.006   .     S
O633   Zn637   2.006   .     S
O634   Zn638   2.006   .     S
O635   Zn765   2.006   .     S
O636   Zn895   2.006   .     S
Zn637  O763    2.006   1_455 S
Zn637  O758    2.006   1_455 S
Zn638  O757    2.006   1_455 S
Zn638  O760    2.006   1_455 S
Zn639  O884    2.006   1_545 S
Zn639  O892    2.006   1_545 S
Zn640  O881    2.006   1_545 S
Zn640  O880    2.006   1_545 S
C641   O759    1.294   .     A
C641   O749    1.287   .     A
C641   C670    1.426   .     S
C642   N737    1.371   .     A
C642   N745    1.422   .     S
C642   C1027   1.437   .     S
C643   N613    1.371   1_655 A
C643   N746    1.421   .     S
C643   C2      1.437   1_655 S
C644   N747    1.422   .     S
C644   C1072   1.437   1_655 S
C644   N609    1.371   1_655 S
C645   N743    1.371   .     A
C645   N748    1.422   .     S
C646   N738    1.421   .     S
C646   C1159   1.437   .     S
C646   N998    1.371   .     S
C647   N739    1.422   .     S
C647   N999    1.371   .     S
C648   N740    1.422   .     S
C648   N742    1.371   .     A
C648   C1157   1.437   .     S
C649   H689    1.082   .     S
C649   C660    1.374   .     A
C649   C668    1.399   .     A
C650   C667    1.392   .     A
C650   H700    1.076   .     S
C650   C661    1.366   .     A
C651   C658    1.374   .     A
C651   H711    1.082   .     S
C651   C667    1.399   .     A
C652   C669    1.426   .     S
C652   O758    1.287   .     A
C652   O757    1.294   .     A
C653   C668    1.392   .     A
C653   C659    1.366   .     A
C653   H722    1.076   .     S
C654   C670    1.399   .     A
C654   H732    1.082   .     S
C654   C665    1.374   .     A
C655   C669    1.392   .     A
C655   C666    1.366   .     A
C655   H733    1.076   .     S
C656   C662    1.374   .     A
C656   H734    1.082   .     S
C656   C669    1.399   .     A
C657   C670    1.392   .     A
C657   C664    1.366   .     A
C657   H735    1.076   .     S
C658   H736    1.082   .     S
C658   C672    1.399   .     A
C659   C671    1.392   .     A
C659   H690    1.076   .     S
C660   H691    1.082   .     S
C660   C671    1.399   .     A
C661   C672    1.392   .     A
C661   H692    1.076   .     S
C662   C675    1.399   .     A
C662   H693    1.082   .     S
C663   O760    1.287   .     A
C663   O763    1.294   .     A
C663   C668    1.426   .     S
C664   H694    1.076   .     S
C664   C673    1.392   .     A
C665   H695    1.082   .     S
C665   C673    1.399   .     A
C666   H696    1.076   .     S
C666   C675    1.392   .     A
C667   C674    1.426   .     S
C671   C687    1.426   .     S
C672   C686    1.426   .     S
C673   C685    1.426   .     S
C674   O762    1.287   .     A
C674   O761    1.294   .     A
C675   C684    1.426   .     S
C676   H699    1.107   .     S
C676   H698    1.107   .     S
C676   H701    1.111   .     S
C676   N616    1.446   1_655 S
C677   H705    1.111   .     S
C677   H703    1.107   .     S
C677   H704    1.107   .     S
C677   N617    1.446   1_655 S
C678   H709    1.111   .     S
C678   H708    1.108   .     S
C678   H707    1.107   .     S
C679   H714    1.111   .     S
C679   H712    1.107   .     S
C679   H713    1.107   .     S
C680   N748    1.446   .     S
C680   H716    1.107   .     S
C680   H717    1.107   .     S
C680   H718    1.111   .     S
C681   H720    1.107   .     S
C681   H721    1.107   .     S
C681   N738    1.446   .     S
C681   H723    1.111   .     S
C682   H726    1.107   .     S
C682   H725    1.107   .     S
C682   N739    1.446   .     S
C682   H727    1.111   .     S
C683   H729    1.107   .     S
C683   H730    1.107   .     S
C683   N740    1.446   .     S
C683   H731    1.111   .     S
C684   O764    1.287   .     A
C684   O752    1.294   .     A
C685   O750    1.294   .     A
C685   O751    1.287   .     A
C686   O753    1.287   .     A
C686   O756    1.294   .     A
C687   O754    1.294   .     A
C687   O755    1.287   .     A
C688   N744    1.422   .     S
C688   N741    1.371   .     S
H697   N744    1.030   .     S
H702   N745    1.030   .     S
H706   N746    1.030   .     S
H710   N747    1.030   .     S
H715   N748    1.030   .     S
H719   N738    1.030   .     S
H724   N739    1.030   .     S
H728   N740    1.030   .     S
N737   Zn765   2.025   .     S
N741   Zn766   2.025   .     S
N742   C902    1.371   1_545 S
N742   Zn767   2.025   .     S
N743   Zn768   2.025   .     S
N743   C903    1.371   1_545 S
N746   C550    1.446   1_655 S
N747   C551    1.446   1_655 S
O749   Zn765   2.006   .     S
O750   Zn768   2.006   .     S
O751   Zn767   2.006   .     S
O752   Zn1024  2.006   .     S
O753   Zn1024  2.006   .     S
O754   Zn767   2.006   .     S
O755   Zn768   2.006   .     S
O756   Zn1023  2.006   .     S
O757   Zn638   2.006   1_655 S
O758   Zn637   2.006   1_655 S
O759   Zn766   2.006   .     S
O760   Zn638   2.006   1_655 S
O761   Zn765   2.006   .     S
O762   Zn766   2.006   .     S
O763   Zn637   2.006   1_655 S
O764   Zn1023  2.006   .     S
Zn767  O1012   2.006   1_545 S
Zn767  O1020   2.006   1_545 S
Zn768  O1009   2.006   1_545 S
Zn768  O1008   2.006   1_545 S
C769   O887    1.294   .     A
C769   O877    1.287   .     A
C769   C798    1.426   .     S
C770   N865    1.371   .     A
C770   N873    1.422   .     S
C770   C1411   1.437   1_455 S
C771   N997    1.371   .     A
C771   N874    1.421   .     S
C772   N875    1.422   .     S
C772   C1456   1.437   .     S
C772   N993    1.371   .     S
C773   N871    1.371   .     A
C773   N876    1.422   .     S
C774   N866    1.421   .     S
C774   C1287   1.437   .     S
C774   N614    1.371   1_565 S
C775   N867    1.422   .     S
C775   N615    1.371   1_565 S
C776   N868    1.422   .     S
C776   N870    1.371   .     A
C776   C1285   1.437   .     S
C777   H817    1.082   .     S
C777   C788    1.374   .     A
C777   C796    1.399   .     A
C778   C795    1.392   .     A
C778   H828    1.076   .     S
C778   C789    1.366   .     A
C779   C786    1.374   .     A
C779   H839    1.082   .     S
C779   C795    1.399   .     A
C780   C797    1.426   .     S
C780   O886    1.287   .     A
C780   O885    1.294   .     A
C781   C796    1.392   .     A
C781   C787    1.366   .     A
C781   H850    1.076   .     S
C782   C798    1.399   .     A
C782   H860    1.082   .     S
C782   C793    1.374   .     A
C783   C797    1.392   .     A
C783   C794    1.366   .     A
C783   H861    1.076   .     S
C784   C790    1.374   .     A
C784   H862    1.082   .     S
C784   C797    1.399   .     A
C785   C798    1.392   .     A
C785   C792    1.366   .     A
C785   H863    1.076   .     S
C786   H864    1.082   .     S
C786   C800    1.399   .     A
C787   C799    1.392   .     A
C787   H818    1.076   .     S
C788   H819    1.082   .     S
C788   C799    1.399   .     A
C789   C800    1.392   .     A
C789   H820    1.076   .     S
C790   C803    1.399   .     A
C790   H821    1.082   .     S
C791   O888    1.287   .     A
C791   O891    1.294   .     A
C791   C796    1.426   .     S
C792   H822    1.076   .     S
C792   C801    1.392   .     A
C793   H823    1.082   .     S
C793   C801    1.399   .     A
C794   H824    1.076   .     S
C794   C803    1.392   .     A
C795   C802    1.426   .     S
C799   C815    1.426   .     S
C800   C814    1.426   .     S
C801   C813    1.426   .     S
C802   O890    1.287   .     A
C802   O889    1.294   .     A
C803   C812    1.426   .     S
C804   H827    1.107   .     S
C804   H826    1.107   .     S
C804   H829    1.111   .     S
C804   N1000   1.446   .     S
C805   H833    1.111   .     S
C805   H831    1.107   .     S
C805   H832    1.107   .     S
C805   N1001   1.446   .     S
C806   H837    1.111   .     S
C806   H836    1.108   .     S
C806   H835    1.107   .     S
C806   N1002   1.446   1_455 S
C807   H842    1.111   .     S
C807   H840    1.107   .     S
C807   H841    1.107   .     S
C807   N1003   1.446   1_455 S
C808   N876    1.446   .     S
C808   H844    1.107   .     S
C808   H845    1.107   .     S
C808   H846    1.111   .     S
C809   H848    1.107   .     S
C809   H849    1.107   .     S
C809   N866    1.446   .     S
C809   H851    1.111   .     S
C810   H854    1.107   .     S
C810   H853    1.107   .     S
C810   N867    1.446   .     S
C810   H855    1.111   .     S
C811   H857    1.107   .     S
C811   H858    1.107   .     S
C811   N868    1.446   .     S
C811   H859    1.111   .     S
C812   O892    1.287   .     A
C812   O880    1.294   .     A
C813   O878    1.294   .     A
C813   O879    1.287   .     A
C814   O881    1.287   .     A
C814   O884    1.294   .     A
C815   O882    1.294   .     A
C815   O883    1.287   .     A
C816   N872    1.422   .     S
C816   C388    1.437   1_455 S
C816   N869    1.371   .     S
H825   N872    1.030   .     S
H830   N873    1.030   .     S
H834   N874    1.030   .     S
H838   N875    1.030   .     S
H843   N876    1.030   .     S
H847   N866    1.030   .     S
H852   N867    1.030   .     S
H856   N868    1.030   .     S
N865   Zn893   2.025   .     S
N865   C900    1.371   1_455 S
N869   C899    1.371   1_455 A
N869   Zn894   2.025   .     S
N870   Zn895   2.025   .     S
N871   Zn896   2.025   .     S
N872   C932    1.446   1_455 S
N873   C933    1.446   1_455 S
N874   C934    1.446   .     S
N875   C935    1.446   .     S
O877   Zn893   2.006   .     S
O878   Zn896   2.006   .     S
O879   Zn895   2.006   .     S
O880   Zn640   2.006   1_565 S
O881   Zn640   2.006   1_565 S
O882   Zn895   2.006   .     S
O883   Zn896   2.006   .     S
O884   Zn639   2.006   1_565 S
O885   Zn1022  2.006   .     S
O886   Zn1021  2.006   .     S
O887   Zn894   2.006   .     S
O888   Zn1022  2.006   .     S
O889   Zn893   2.006   .     S
O890   Zn894   2.006   .     S
O891   Zn1021  2.006   .     S
O892   Zn639   2.006   1_565 S
Zn893  O1019   2.006   1_455 S
Zn893  O1014   2.006   1_455 S
Zn894  O1013   2.006   1_455 S
Zn894  O1016   2.006   1_455 S
C897   O1015   1.294   .     A
C897   O1005   1.287   .     A
C897   C926    1.426   .     S
C898   N993    1.371   .     A
C898   N1001   1.422   .     S
C898   C1283   1.437   .     S
C899   N869    1.371   1_655 A
C899   N1002   1.421   .     S
C899   C258    1.437   1_655 S
C900   N1003   1.422   .     S
C900   C1328   1.437   1_655 S
C900   N865    1.371   1_655 S
C901   N999    1.371   .     A
C901   N1004   1.422   .     S
C902   N994    1.421   .     S
C902   C1415   1.437   .     S
C902   N742    1.371   1_565 S
C903   N995    1.422   .     S
C903   N743    1.371   1_565 S
C904   N996    1.422   .     S
C904   N998    1.371   .     A
C904   C1413   1.437   .     S
C905   H945    1.082   .     S
C905   C916    1.374   .     A
C905   C924    1.399   .     A
C906   C923    1.392   .     A
C906   H956    1.076   .     S
C906   C917    1.366   .     A
C907   C914    1.374   .     A
C907   H967    1.082   .     S
C907   C923    1.399   .     A
C908   C925    1.426   .     S
C908   O1014   1.287   .     A
C908   O1013   1.294   .     A
C909   C924    1.392   .     A
C909   C915    1.366   .     A
C909   H978    1.076   .     S
C910   C926    1.399   .     A
C910   H988    1.082   .     S
C910   C921    1.374   .     A
C911   C925    1.392   .     A
C911   C922    1.366   .     A
C911   H989    1.076   .     S
C912   C918    1.374   .     A
C912   H990    1.082   .     S
C912   C925    1.399   .     A
C913   C926    1.392   .     A
C913   C920    1.366   .     A
C913   H991    1.076   .     S
C914   H992    1.082   .     S
C914   C928    1.399   .     A
C915   C927    1.392   .     A
C915   H946    1.076   .     S
C916   H947    1.082   .     S
C916   C927    1.399   .     A
C917   C928    1.392   .     A
C917   H948    1.076   .     S
C918   C931    1.399   .     A
C918   H949    1.082   .     S
C919   O1016   1.287   .     A
C919   O1019   1.294   .     A
C919   C924    1.426   .     S
C920   H950    1.076   .     S
C920   C929    1.392   .     A
C921   H951    1.082   .     S
C921   C929    1.399   .     A
C922   H952    1.076   .     S
C922   C931    1.392   .     A
C923   C930    1.426   .     S
C927   C943    1.426   .     S
C928   C942    1.426   .     S
C929   C941    1.426   .     S
C930   O1018   1.287   .     A
C930   O1017   1.294   .     A
C931   C940    1.426   .     S
C932   H955    1.107   .     S
C932   H954    1.107   .     S
C932   H957    1.111   .     S
C932   N872    1.446   1_655 S
C933   H961    1.111   .     S
C933   H959    1.107   .     S
C933   H960    1.107   .     S
C933   N873    1.446   1_655 S
C934   H965    1.111   .     S
C934   H964    1.108   .     S
C934   H963    1.107   .     S
C935   H970    1.111   .     S
C935   H968    1.107   .     S
C935   H969    1.107   .     S
C936   N1004   1.446   .     S
C936   H972    1.107   .     S
C936   H973    1.107   .     S
C936   H974    1.111   .     S
C937   H976    1.107   .     S
C937   H977    1.107   .     S
C937   N994    1.446   .     S
C937   H979    1.111   .     S
C938   H982    1.107   .     S
C938   H981    1.107   .     S
C938   N995    1.446   .     S
C938   H983    1.111   .     S
C939   H985    1.107   .     S
C939   H986    1.107   .     S
C939   N996    1.446   .     S
C939   H987    1.111   .     S
C940   O1020   1.287   .     A
C940   O1008   1.294   .     A
C941   O1006   1.294   .     A
C941   O1007   1.287   .     A
C942   O1009   1.287   .     A
C942   O1012   1.294   .     A
C943   O1010   1.294   .     A
C943   O1011   1.287   .     A
C944   N1000   1.422   .     S
C944   N997    1.371   .     S
H953   N1000   1.030   .     S
H958   N1001   1.030   .     S
H962   N1002   1.030   .     S
H966   N1003   1.030   .     S
H971   N1004   1.030   .     S
H975   N994    1.030   .     S
H980   N995    1.030   .     S
H984   N996    1.030   .     S
N993   Zn1021  2.025   .     S
N997   Zn1022  2.025   .     S
N998   Zn1023  2.025   .     S
N999   Zn1024  2.025   .     S
N1002  C806    1.446   1_655 S
N1003  C807    1.446   1_655 S
O1005  Zn1021  2.006   .     S
O1006  Zn1024  2.006   .     S
O1007  Zn1023  2.006   .     S
O1008  Zn768   2.006   1_565 S
O1009  Zn768   2.006   1_565 S
O1010  Zn1023  2.006   .     S
O1011  Zn1024  2.006   .     S
O1012  Zn767   2.006   1_565 S
O1013  Zn894   2.006   1_655 S
O1014  Zn893   2.006   1_655 S
O1015  Zn1022  2.006   .     S
O1016  Zn894   2.006   1_655 S
O1017  Zn1021  2.006   .     S
O1018  Zn1022  2.006   .     S
O1019  Zn893   2.006   1_655 S
O1020  Zn767   2.006   1_565 S
C1025  O1143   1.294   .     A
C1025  O1133   1.287   .     A
C1025  C1054   1.426   .     S
C1026  N1121   1.371   .     A
C1026  N1129   1.422   .     S
C1026  C131    1.437   1_456 S
C1027  N1253   1.371   .     A
C1027  N1130   1.421   .     S
C1028  N1131   1.422   .     S
C1028  C176    1.437   1_556 S
C1028  N1249   1.371   .     S
C1029  N1127   1.371   .     A
C1029  N1132   1.422   .     S
C1030  N1122   1.421   .     S
C1030  C7      1.437   1_556 S
C1030  N1382   1.371   .     S
C1031  N1123   1.422   .     S
C1031  N1383   1.371   .     S
C1032  N1124   1.422   .     S
C1032  N1126   1.371   .     A
C1032  C5      1.437   1_556 S
C1033  H1073   1.082   .     S
C1033  C1044   1.374   .     A
C1033  C1052   1.399   .     A
C1034  C1051   1.392   .     A
C1034  H1084   1.076   .     S
C1034  C1045   1.366   .     A
C1035  C1042   1.374   .     A
C1035  H1095   1.082   .     S
C1035  C1051   1.399   .     A
C1036  C1053   1.426   .     S
C1036  O1142   1.287   .     A
C1036  O1141   1.294   .     A
C1037  C1052   1.392   .     A
C1037  C1043   1.366   .     A
C1037  H1106   1.076   .     S
C1038  C1054   1.399   .     A
C1038  H1116   1.082   .     S
C1038  C1049   1.374   .     A
C1039  C1053   1.392   .     A
C1039  C1050   1.366   .     A
C1039  H1117   1.076   .     S
C1040  C1046   1.374   .     A
C1040  H1118   1.082   .     S
C1040  C1053   1.399   .     A
C1041  C1054   1.392   .     A
C1041  C1048   1.366   .     A
C1041  H1119   1.076   .     S
C1042  H1120   1.082   .     S
C1042  C1056   1.399   .     A
C1043  C1055   1.392   .     A
C1043  H1074   1.076   .     S
C1044  H1075   1.082   .     S
C1044  C1055   1.399   .     A
C1045  C1056   1.392   .     A
C1045  H1076   1.076   .     S
C1046  C1059   1.399   .     A
C1046  H1077   1.082   .     S
C1047  O1144   1.287   .     A
C1047  O1147   1.294   .     A
C1047  C1052   1.426   .     S
C1048  H1078   1.076   .     S
C1048  C1057   1.392   .     A
C1049  H1079   1.082   .     S
C1049  C1057   1.399   .     A
C1050  H1080   1.076   .     S
C1050  C1059   1.392   .     A
C1051  C1058   1.426   .     S
C1055  C1071   1.426   .     S
C1056  C1070   1.426   .     S
C1057  C1069   1.426   .     S
C1058  O1146   1.287   .     A
C1058  O1145   1.294   .     A
C1059  C1068   1.426   .     S
C1060  H1083   1.107   .     S
C1060  H1082   1.107   .     S
C1060  H1085   1.111   .     S
C1060  N1256   1.446   .     S
C1061  H1089   1.111   .     S
C1061  H1087   1.107   .     S
C1061  H1088   1.107   .     S
C1061  N1257   1.446   .     S
C1062  H1093   1.111   .     S
C1062  H1092   1.108   .     S
C1062  H1091   1.107   .     S
C1062  N1258   1.446   1_455 S
C1063  H1098   1.111   .     S
C1063  H1096   1.107   .     S
C1063  H1097   1.107   .     S
C1063  N1259   1.446   1_455 S
C1064  N1132   1.446   .     S
C1064  H1100   1.107   .     S
C1064  H1101   1.107   .     S
C1064  H1102   1.111   .     S
C1065  H1104   1.107   .     S
C1065  H1105   1.107   .     S
C1065  N1122   1.446   .     S
C1065  H1107   1.111   .     S
C1066  H1110   1.107   .     S
C1066  H1109   1.107   .     S
C1066  N1123   1.446   .     S
C1066  H1111   1.111   .     S
C1067  H1113   1.107   .     S
C1067  H1114   1.107   .     S
C1067  N1124   1.446   .     S
C1067  H1115   1.111   .     S
C1068  O1148   1.287   .     A
C1068  O1136   1.294   .     A
C1069  O1134   1.294   .     A
C1069  O1135   1.287   .     A
C1070  O1137   1.287   .     A
C1070  O1140   1.294   .     A
C1071  O1138   1.294   .     A
C1071  O1139   1.287   .     A
C1072  N1128   1.422   .     S
C1072  C644    1.437   1_455 S
C1072  N1125   1.371   .     S
H1081  N1128   1.030   .     S
H1086  N1129   1.030   .     S
H1090  N1130   1.030   .     S
H1094  N1131   1.030   .     S
H1099  N1132   1.030   .     S
H1103  N1122   1.030   .     S
H1108  N1123   1.030   .     S
H1112  N1124   1.030   .     S
N1121  Zn1149  2.025   .     S
N1121  C1156   1.371   1_455 S
N1125  C1155   1.371   1_455 A
N1125  Zn1150  2.025   .     S
N1126  C1286   1.371   1_545 S
N1126  Zn1151  2.025   .     S
N1127  Zn1152  2.025   .     S
N1127  C1287   1.371   1_545 S
N1128  C1188   1.446   1_455 S
N1129  C1189   1.446   1_455 S
N1130  C1190   1.446   .     S
N1131  C1191   1.446   .     S
O1133  Zn1149  2.006   .     S
O1134  Zn1152  2.006   .     S
O1135  Zn1151  2.006   .     S
O1136  Zn1408  2.006   .     S
O1137  Zn1408  2.006   .     S
O1138  Zn1151  2.006   .     S
O1139  Zn1152  2.006   .     S
O1140  Zn1407  2.006   .     S
O1141  Zn1278  2.006   .     S
O1142  Zn1277  2.006   .     S
O1143  Zn1150  2.006   .     S
O1144  Zn1278  2.006   .     S
O1145  Zn1149  2.006   .     S
O1146  Zn1150  2.006   .     S
O1147  Zn1277  2.006   .     S
O1148  Zn1407  2.006   .     S
Zn1149 O1275   2.006   1_455 S
Zn1149 O1270   2.006   1_455 S
Zn1150 O1269   2.006   1_455 S
Zn1150 O1272   2.006   1_455 S
Zn1151 O1396   2.006   1_545 S
Zn1151 O1404   2.006   1_545 S
Zn1152 O1393   2.006   1_545 S
Zn1152 O1392   2.006   1_545 S
C1153  O1271   1.294   .     A
C1153  O1261   1.287   .     A
C1153  C1182   1.426   .     S
C1154  N1249   1.371   .     A
C1154  N1257   1.422   .     S
C1154  C3      1.437   1_556 S
C1155  N1125   1.371   1_655 A
C1155  N1258   1.421   .     S
C1155  C514    1.437   1_655 S
C1156  N1259   1.422   .     S
C1156  C48     1.437   1_656 S
C1156  N1121   1.371   1_655 S
C1157  N1255   1.371   .     A
C1157  N1260   1.422   .     S
C1158  N1250   1.421   .     S
C1158  C135    1.437   1_556 S
C1158  N1510   1.371   .     S
C1159  N1251   1.422   .     S
C1159  N1511   1.371   .     S
C1160  N1252   1.422   .     S
C1160  N1254   1.371   .     A
C1160  C133    1.437   1_556 S
C1161  H1201   1.082   .     S
C1161  C1172   1.374   .     A
C1161  C1180   1.399   .     A
C1162  C1179   1.392   .     A
C1162  H1212   1.076   .     S
C1162  C1173   1.366   .     A
C1163  C1170   1.374   .     A
C1163  H1223   1.082   .     S
C1163  C1179   1.399   .     A
C1164  C1181   1.426   .     S
C1164  O1270   1.287   .     A
C1164  O1269   1.294   .     A
C1165  C1180   1.392   .     A
C1165  C1171   1.366   .     A
C1165  H1234   1.076   .     S
C1166  C1182   1.399   .     A
C1166  H1244   1.082   .     S
C1166  C1177   1.374   .     A
C1167  C1181   1.392   .     A
C1167  C1178   1.366   .     A
C1167  H1245   1.076   .     S
C1168  C1174   1.374   .     A
C1168  H1246   1.082   .     S
C1168  C1181   1.399   .     A
C1169  C1182   1.392   .     A
C1169  C1176   1.366   .     A
C1169  H1247   1.076   .     S
C1170  H1248   1.082   .     S
C1170  C1184   1.399   .     A
C1171  C1183   1.392   .     A
C1171  H1202   1.076   .     S
C1172  H1203   1.082   .     S
C1172  C1183   1.399   .     A
C1173  C1184   1.392   .     A
C1173  H1204   1.076   .     S
C1174  C1187   1.399   .     A
C1174  H1205   1.082   .     S
C1175  O1272   1.287   .     A
C1175  O1275   1.294   .     A
C1175  C1180   1.426   .     S
C1176  H1206   1.076   .     S
C1176  C1185   1.392   .     A
C1177  H1207   1.082   .     S
C1177  C1185   1.399   .     A
C1178  H1208   1.076   .     S
C1178  C1187   1.392   .     A
C1179  C1186   1.426   .     S
C1183  C1199   1.426   .     S
C1184  C1198   1.426   .     S
C1185  C1197   1.426   .     S
C1186  O1274   1.287   .     A
C1186  O1273   1.294   .     A
C1187  C1196   1.426   .     S
C1188  H1211   1.107   .     S
C1188  H1210   1.107   .     S
C1188  H1213   1.111   .     S
C1188  N1128   1.446   1_655 S
C1189  H1217   1.111   .     S
C1189  H1215   1.107   .     S
C1189  H1216   1.107   .     S
C1189  N1129   1.446   1_655 S
C1190  H1221   1.111   .     S
C1190  H1220   1.108   .     S
C1190  H1219   1.107   .     S
C1191  H1226   1.111   .     S
C1191  H1224   1.107   .     S
C1191  H1225   1.107   .     S
C1192  N1260   1.446   .     S
C1192  H1228   1.107   .     S
C1192  H1229   1.107   .     S
C1192  H1230   1.111   .     S
C1193  H1232   1.107   .     S
C1193  H1233   1.107   .     S
C1193  N1250   1.446   .     S
C1193  H1235   1.111   .     S
C1194  H1238   1.107   .     S
C1194  H1237   1.107   .     S
C1194  N1251   1.446   .     S
C1194  H1239   1.111   .     S
C1195  H1241   1.107   .     S
C1195  H1242   1.107   .     S
C1195  N1252   1.446   .     S
C1195  H1243   1.111   .     S
C1196  O1276   1.287   .     A
C1196  O1264   1.294   .     A
C1197  O1262   1.294   .     A
C1197  O1263   1.287   .     A
C1198  O1265   1.287   .     A
C1198  O1268   1.294   .     A
C1199  O1266   1.294   .     A
C1199  O1267   1.287   .     A
C1200  N1256   1.422   .     S
C1200  N1253   1.371   .     S
H1209  N1256   1.030   .     S
H1214  N1257   1.030   .     S
H1218  N1258   1.030   .     S
H1222  N1259   1.030   .     S
H1227  N1260   1.030   .     S
H1231  N1250   1.030   .     S
H1236  N1251   1.030   .     S
H1240  N1252   1.030   .     S
N1249  Zn1277  2.025   .     S
N1253  Zn1278  2.025   .     S
N1254  C1414   1.371   1_545 S
N1254  Zn1279  2.025   .     S
N1255  Zn1280  2.025   .     S
N1255  C1415   1.371   1_545 S
N1258  C1062   1.446   1_655 S
N1259  C1063   1.446   1_655 S
O1261  Zn1277  2.006   .     S
O1262  Zn1280  2.006   .     S
O1263  Zn1279  2.006   .     S
O1264  Zn1536  2.006   .     S
O1265  Zn1536  2.006   .     S
O1266  Zn1279  2.006   .     S
O1267  Zn1280  2.006   .     S
O1268  Zn1535  2.006   .     S
O1269  Zn1150  2.006   1_655 S
O1270  Zn1149  2.006   1_655 S
O1271  Zn1278  2.006   .     S
O1272  Zn1150  2.006   1_655 S
O1273  Zn1277  2.006   .     S
O1274  Zn1278  2.006   .     S
O1275  Zn1149  2.006   1_655 S
O1276  Zn1535  2.006   .     S
Zn1279 O1524   2.006   1_545 S
Zn1279 O1532   2.006   1_545 S
Zn1280 O1521   2.006   1_545 S
Zn1280 O1520   2.006   1_545 S
C1281  O1399   1.294   .     A
C1281  O1389   1.287   .     A
C1281  C1310   1.426   .     S
C1282  N1377   1.371   .     A
C1282  N1385   1.422   .     S
C1282  C387    1.437   1_456 S
C1283  N1509   1.371   .     A
C1283  N1386   1.421   .     S
C1284  N1387   1.422   .     S
C1284  C432    1.437   1_556 S
C1284  N1505   1.371   .     S
C1285  N1383   1.371   .     A
C1285  N1388   1.422   .     S
C1286  N1378   1.421   .     S
C1286  C263    1.437   1_556 S
C1286  N1126   1.371   1_565 S
C1287  N1379   1.422   .     S
C1287  N1127   1.371   1_565 S
C1288  N1380   1.422   .     S
C1288  N1382   1.371   .     A
C1288  C261    1.437   1_556 S
C1289  H1329   1.082   .     S
C1289  C1300   1.374   .     A
C1289  C1308   1.399   .     A
C1290  C1307   1.392   .     A
C1290  H1340   1.076   .     S
C1290  C1301   1.366   .     A
C1291  C1298   1.374   .     A
C1291  H1351   1.082   .     S
C1291  C1307   1.399   .     A
C1292  C1309   1.426   .     S
C1292  O1398   1.287   .     A
C1292  O1397   1.294   .     A
C1293  C1308   1.392   .     A
C1293  C1299   1.366   .     A
C1293  H1362   1.076   .     S
C1294  C1310   1.399   .     A
C1294  H1372   1.082   .     S
C1294  C1305   1.374   .     A
C1295  C1309   1.392   .     A
C1295  C1306   1.366   .     A
C1295  H1373   1.076   .     S
C1296  C1302   1.374   .     A
C1296  H1374   1.082   .     S
C1296  C1309   1.399   .     A
C1297  C1310   1.392   .     A
C1297  C1304   1.366   .     A
C1297  H1375   1.076   .     S
C1298  H1376   1.082   .     S
C1298  C1312   1.399   .     A
C1299  C1311   1.392   .     A
C1299  H1330   1.076   .     S
C1300  H1331   1.082   .     S
C1300  C1311   1.399   .     A
C1301  C1312   1.392   .     A
C1301  H1332   1.076   .     S
C1302  C1315   1.399   .     A
C1302  H1333   1.082   .     S
C1303  O1400   1.287   .     A
C1303  O1403   1.294   .     A
C1303  C1308   1.426   .     S
C1304  H1334   1.076   .     S
C1304  C1313   1.392   .     A
C1305  H1335   1.082   .     S
C1305  C1313   1.399   .     A
C1306  H1336   1.076   .     S
C1306  C1315   1.392   .     A
C1307  C1314   1.426   .     S
C1311  C1327   1.426   .     S
C1312  C1326   1.426   .     S
C1313  C1325   1.426   .     S
C1314  O1402   1.287   .     A
C1314  O1401   1.294   .     A
C1315  C1324   1.426   .     S
C1316  H1339   1.107   .     S
C1316  H1338   1.107   .     S
C1316  H1341   1.111   .     S
C1316  N1512   1.446   .     S
C1317  H1345   1.111   .     S
C1317  H1343   1.107   .     S
C1317  H1344   1.107   .     S
C1317  N1513   1.446   .     S
C1318  H1349   1.111   .     S
C1318  H1348   1.108   .     S
C1318  H1347   1.107   .     S
C1318  N1514   1.446   1_455 S
C1319  H1354   1.111   .     S
C1319  H1352   1.107   .     S
C1319  H1353   1.107   .     S
C1319  N1515   1.446   1_455 S
C1320  N1388   1.446   .     S
C1320  H1356   1.107   .     S
C1320  H1357   1.107   .     S
C1320  H1358   1.111   .     S
C1321  H1360   1.107   .     S
C1321  H1361   1.107   .     S
C1321  N1378   1.446   .     S
C1321  H1363   1.111   .     S
C1322  H1366   1.107   .     S
C1322  H1365   1.107   .     S
C1322  N1379   1.446   .     S
C1322  H1367   1.111   .     S
C1323  H1369   1.107   .     S
C1323  H1370   1.107   .     S
C1323  N1380   1.446   .     S
C1323  H1371   1.111   .     S
C1324  O1404   1.287   .     A
C1324  O1392   1.294   .     A
C1325  O1390   1.294   .     A
C1325  O1391   1.287   .     A
C1326  O1393   1.287   .     A
C1326  O1396   1.294   .     A
C1327  O1394   1.294   .     A
C1327  O1395   1.287   .     A
C1328  N1384   1.422   .     S
C1328  C900    1.437   1_455 S
C1328  N1381   1.371   .     S
H1337  N1384   1.030   .     S
H1342  N1385   1.030   .     S
H1346  N1386   1.030   .     S
H1350  N1387   1.030   .     S
H1355  N1388   1.030   .     S
H1359  N1378   1.030   .     S
H1364  N1379   1.030   .     S
H1368  N1380   1.030   .     S
N1377  Zn1405  2.025   .     S
N1377  C1412   1.371   1_455 S
N1381  C1411   1.371   1_455 A
N1381  Zn1406  2.025   .     S
N1382  Zn1407  2.025   .     S
N1383  Zn1408  2.025   .     S
N1384  C1444   1.446   1_455 S
N1385  C1445   1.446   1_455 S
N1386  C1446   1.446   .     S
N1387  C1447   1.446   .     S
O1389  Zn1405  2.006   .     S
O1390  Zn1408  2.006   .     S
O1391  Zn1407  2.006   .     S
O1392  Zn1152  2.006   1_565 S
O1393  Zn1152  2.006   1_565 S
O1394  Zn1407  2.006   .     S
O1395  Zn1408  2.006   .     S
O1396  Zn1151  2.006   1_565 S
O1397  Zn1534  2.006   .     S
O1398  Zn1533  2.006   .     S
O1399  Zn1406  2.006   .     S
O1400  Zn1534  2.006   .     S
O1401  Zn1405  2.006   .     S
O1402  Zn1406  2.006   .     S
O1403  Zn1533  2.006   .     S
O1404  Zn1151  2.006   1_565 S
Zn1405 O1531   2.006   1_455 S
Zn1405 O1526   2.006   1_455 S
Zn1406 O1525   2.006   1_455 S
Zn1406 O1528   2.006   1_455 S
C1409  O1527   1.294   .     A
C1409  O1517   1.287   .     A
C1409  C1438   1.426   .     S
C1410  N1505   1.371   .     A
C1410  N1513   1.422   .     S
C1410  C259    1.437   1_556 S
C1411  N1381   1.371   1_655 A
C1411  N1514   1.421   .     S
C1411  C770    1.437   1_655 S
C1412  N1515   1.422   .     S
C1412  C304    1.437   1_656 S
C1412  N1377   1.371   1_655 S
C1413  N1511   1.371   .     A
C1413  N1516   1.422   .     S
C1414  N1506   1.421   .     S
C1414  C391    1.437   1_556 S
C1414  N1254   1.371   1_565 S
C1415  N1507   1.422   .     S
C1415  N1255   1.371   1_565 S
C1416  N1508   1.422   .     S
C1416  N1510   1.371   .     A
C1416  C389    1.437   1_556 S
C1417  H1457   1.082   .     S
C1417  C1428   1.374   .     A
C1417  C1436   1.399   .     A
C1418  C1435   1.392   .     A
C1418  H1468   1.076   .     S
C1418  C1429   1.366   .     A
C1419  C1426   1.374   .     A
C1419  H1479   1.082   .     S
C1419  C1435   1.399   .     A
C1420  C1437   1.426   .     S
C1420  O1526   1.287   .     A
C1420  O1525   1.294   .     A
C1421  C1436   1.392   .     A
C1421  C1427   1.366   .     A
C1421  H1490   1.076   .     S
C1422  C1438   1.399   .     A
C1422  H1500   1.082   .     S
C1422  C1433   1.374   .     A
C1423  C1437   1.392   .     A
C1423  C1434   1.366   .     A
C1423  H1501   1.076   .     S
C1424  C1430   1.374   .     A
C1424  H1502   1.082   .     S
C1424  C1437   1.399   .     A
C1425  C1438   1.392   .     A
C1425  C1432   1.366   .     A
C1425  H1503   1.076   .     S
C1426  H1504   1.082   .     S
C1426  C1440   1.399   .     A
C1427  C1439   1.392   .     A
C1427  H1458   1.076   .     S
C1428  H1459   1.082   .     S
C1428  C1439   1.399   .     A
C1429  C1440   1.392   .     A
C1429  H1460   1.076   .     S
C1430  C1443   1.399   .     A
C1430  H1461   1.082   .     S
C1431  O1528   1.287   .     A
C1431  O1531   1.294   .     A
C1431  C1436   1.426   .     S
C1432  H1462   1.076   .     S
C1432  C1441   1.392   .     A
C1433  H1463   1.082   .     S
C1433  C1441   1.399   .     A
C1434  H1464   1.076   .     S
C1434  C1443   1.392   .     A
C1435  C1442   1.426   .     S
C1439  C1455   1.426   .     S
C1440  C1454   1.426   .     S
C1441  C1453   1.426   .     S
C1442  O1530   1.287   .     A
C1442  O1529   1.294   .     A
C1443  C1452   1.426   .     S
C1444  H1467   1.107   .     S
C1444  H1466   1.107   .     S
C1444  H1469   1.111   .     S
C1444  N1384   1.446   1_655 S
C1445  H1473   1.111   .     S
C1445  H1471   1.107   .     S
C1445  H1472   1.107   .     S
C1445  N1385   1.446   1_655 S
C1446  H1477   1.111   .     S
C1446  H1476   1.108   .     S
C1446  H1475   1.107   .     S
C1447  H1482   1.111   .     S
C1447  H1480   1.107   .     S
C1447  H1481   1.107   .     S
C1448  N1516   1.446   .     S
C1448  H1484   1.107   .     S
C1448  H1485   1.107   .     S
C1448  H1486   1.111   .     S
C1449  H1488   1.107   .     S
C1449  H1489   1.107   .     S
C1449  N1506   1.446   .     S
C1449  H1491   1.111   .     S
C1450  H1494   1.107   .     S
C1450  H1493   1.107   .     S
C1450  N1507   1.446   .     S
C1450  H1495   1.111   .     S
C1451  H1497   1.107   .     S
C1451  H1498   1.107   .     S
C1451  N1508   1.446   .     S
C1451  H1499   1.111   .     S
C1452  O1532   1.287   .     A
C1452  O1520   1.294   .     A
C1453  O1518   1.294   .     A
C1453  O1519   1.287   .     A
C1454  O1521   1.287   .     A
C1454  O1524   1.294   .     A
C1455  O1522   1.294   .     A
C1455  O1523   1.287   .     A
C1456  N1512   1.422   .     S
C1456  N1509   1.371   .     S
H1465  N1512   1.030   .     S
H1470  N1513   1.030   .     S
H1474  N1514   1.030   .     S
H1478  N1515   1.030   .     S
H1483  N1516   1.030   .     S
H1487  N1506   1.030   .     S
H1492  N1507   1.030   .     S
H1496  N1508   1.030   .     S
N1505  Zn1533  2.025   .     S
N1509  Zn1534  2.025   .     S
N1510  Zn1535  2.025   .     S
N1511  Zn1536  2.025   .     S
N1514  C1318   1.446   1_655 S
N1515  C1319   1.446   1_655 S
O1517  Zn1533  2.006   .     S
O1518  Zn1536  2.006   .     S
O1519  Zn1535  2.006   .     S
O1520  Zn1280  2.006   1_565 S
O1521  Zn1280  2.006   1_565 S
O1522  Zn1535  2.006   .     S
O1523  Zn1536  2.006   .     S
O1524  Zn1279  2.006   1_565 S
O1525  Zn1406  2.006   1_655 S
O1526  Zn1405  2.006   1_655 S
O1527  Zn1534  2.006   .     S
O1528  Zn1406  2.006   1_655 S
O1529  Zn1533  2.006   .     S
O1530  Zn1534  2.006   .     S
O1531  Zn1405  2.006   1_655 S
O1532  Zn1279  2.006   1_565 S
