data_str_m3_o10_o16_pcu_sym.109
_audit_creation_date              2020-01-03
_audit_creation_method            'Materials Studio'
_symmetry_space_group_name_H-M    'P1'
_symmetry_Int_Tables_number       1
_symmetry_cell_setting            triclinic
loop_
_symmetry_equiv_pos_as_xyz
  x,y,z
_cell_length_a                    23.5002
_cell_length_b                    25.7934
_cell_length_c                    24.4145
_cell_angle_alpha                 92.5917
_cell_angle_beta                  100.9277
_cell_angle_gamma                 93.4989
loop_
_atom_site_label
_atom_site_type_symbol
_atom_site_fract_x
_atom_site_fract_y
_atom_site_fract_z
_atom_site_U_iso_or_equiv
_atom_site_adp_type
_atom_site_occupancy
C1     C     0.01413   0.26466   0.24773   0.00000  Uiso   1.00
C2     C     0.05659   0.17539   0.41523   0.00000  Uiso   1.00
C3     C     0.02276   0.31876   0.25490   0.00000  Uiso   1.00
C4     C     0.03567   0.16846   0.35509   0.00000  Uiso   1.00
C5     C     0.30971   0.01434   0.24262   0.00000  Uiso   1.00
C6     C     0.31878   0.06854   0.25111   0.00000  Uiso   1.00
C7     C     0.29776   0.16271   0.14495   0.00000  Uiso   1.00
C8     C     0.28346   0.11933   0.49399   0.00000  Uiso   1.00
C9     C     0.27958   0.15804   0.08470   0.00000  Uiso   1.00
C10    C     0.03057   0.21134   0.44540   0.00000  Uiso   1.00
C11    C     0.06267   0.23726   0.49337   0.00000  Uiso   1.00
C12    C     0.14450   0.18448   0.48698   0.00000  Uiso   1.00
C13    C     0.12064   0.22731   0.01191   0.00000  Uiso   1.00
C14    C     0.11149   0.15834   0.43819   0.00000  Uiso   1.00
C15    C     0.20004   0.16697   0.00761   0.00000  Uiso   1.00
C16    C     0.22659   0.13283   0.47432   0.00000  Uiso   1.00
C17    C     0.19365   0.10864   0.42523   0.00000  Uiso   1.00
C18    C     0.13535   0.11784   0.41081   0.00000  Uiso   1.00
C19    C     0.22602   0.17646   0.06325   0.00000  Uiso   1.00
C20    C     0.31049   0.13171   0.04904   0.00000  Uiso   1.00
Cl21   Cl    0.23974   0.32468   0.20444   0.00000  Uiso   1.00
Cl22   Cl    0.17374   0.22884   0.31060   0.00000  Uiso   1.00
Cl23   Cl    0.16246   0.27687   0.05715   0.00000  Uiso   1.00
Cl24   Cl    0.09263   0.00813   0.29249   0.00000  Uiso   1.00
H25    H     0.15694   0.12476   0.20871   0.00000  Uiso   1.00
H26    H     0.30612   0.09616   0.46830   0.00000  Uiso   1.00
H27    H     0.20156   0.19325   0.09187   0.00000  Uiso   1.00
H28    H     0.32139   0.22410   0.42839   0.00000  Uiso   1.00
H29    H     0.04407   0.26893   0.01291   0.00000  Uiso   1.00
H30    H     0.10918   0.09412   0.37648   0.00000  Uiso   1.00
I31    I     0.05954   0.10068   0.07424   0.00000  Uiso   1.00
I32    I     0.22700   0.05311   0.37461   0.00000  Uiso   1.00
N33    N     0.14493   0.15223   0.23542   0.00000  Uiso   1.00
N34    N     0.18840   0.18110   0.26457   0.00000  Uiso   1.00
O35    O     0.29769   0.24629   0.25357   0.00000  Uiso   1.00
O36    O     0.05742   0.23704   0.24423   0.00000  Uiso   1.00
O37    O     0.31490   0.17358   0.33380   0.00000  Uiso   1.00
O38    O     0.07463   0.16433   0.32446   0.00000  Uiso   1.00
O39    O     0.27592   0.09629   0.25576   0.00000  Uiso   1.00
O40    O     0.03565   0.08704   0.24642   0.00000  Uiso   1.00
O41    O     0.25870   0.16901   0.17554   0.00000  Uiso   1.00
O42    O     0.01843   0.15976   0.16620   0.00000  Uiso   1.00
Zn43   Zn    0.27119   0.17284   0.25623   0.00000  Uiso   1.00
Zn44   Zn    0.06214   0.16049   0.24376   0.00000  Uiso   1.00
C45    C     0.34747   0.26466   0.24773   0.00000  Uiso   1.00
C46    C     0.38992   0.17539   0.41523   0.00000  Uiso   1.00
C47    C     0.35610   0.31876   0.25490   0.00000  Uiso   1.00
C48    C     0.36900   0.16846   0.35509   0.00000  Uiso   1.00
C49    C     0.64304   0.01434   0.24262   0.00000  Uiso   1.00
C50    C     0.65212   0.06854   0.25111   0.00000  Uiso   1.00
C51    C     0.63109   0.16271   0.14495   0.00000  Uiso   1.00
C52    C     0.61679   0.11933   0.49399   0.00000  Uiso   1.00
C53    C     0.61291   0.15804   0.08470   0.00000  Uiso   1.00
C54    C     0.36391   0.21134   0.44540   0.00000  Uiso   1.00
C55    C     0.39601   0.23726   0.49337   0.00000  Uiso   1.00
C56    C     0.47783   0.18448   0.48698   0.00000  Uiso   1.00
C57    C     0.45397   0.22731   0.01191   0.00000  Uiso   1.00
C58    C     0.44482   0.15834   0.43819   0.00000  Uiso   1.00
C59    C     0.53337   0.16697   0.00761   0.00000  Uiso   1.00
C60    C     0.55992   0.13283   0.47432   0.00000  Uiso   1.00
C61    C     0.52698   0.10864   0.42523   0.00000  Uiso   1.00
C62    C     0.46868   0.11784   0.41081   0.00000  Uiso   1.00
C63    C     0.55935   0.17646   0.06325   0.00000  Uiso   1.00
C64    C     0.64382   0.13171   0.04904   0.00000  Uiso   1.00
Cl65   Cl    0.57307   0.32468   0.20444   0.00000  Uiso   1.00
Cl66   Cl    0.50708   0.22884   0.31060   0.00000  Uiso   1.00
Cl67   Cl    0.49579   0.27687   0.05715   0.00000  Uiso   1.00
Cl68   Cl    0.42597   0.00813   0.29249   0.00000  Uiso   1.00
H69    H     0.49027   0.12476   0.20871   0.00000  Uiso   1.00
H70    H     0.63946   0.09616   0.46830   0.00000  Uiso   1.00
H71    H     0.53489   0.19325   0.09187   0.00000  Uiso   1.00
H72    H     0.65472   0.22410   0.42839   0.00000  Uiso   1.00
H73    H     0.37740   0.26893   0.01291   0.00000  Uiso   1.00
H74    H     0.44252   0.09412   0.37648   0.00000  Uiso   1.00
I75    I     0.39288   0.10068   0.07424   0.00000  Uiso   1.00
I76    I     0.56033   0.05311   0.37461   0.00000  Uiso   1.00
N77    N     0.47827   0.15223   0.23542   0.00000  Uiso   1.00
N78    N     0.52173   0.18110   0.26457   0.00000  Uiso   1.00
O79    O     0.63102   0.24629   0.25357   0.00000  Uiso   1.00
O80    O     0.39075   0.23704   0.24423   0.00000  Uiso   1.00
O81    O     0.64823   0.17358   0.33380   0.00000  Uiso   1.00
O82    O     0.40796   0.16433   0.32446   0.00000  Uiso   1.00
O83    O     0.60925   0.09629   0.25576   0.00000  Uiso   1.00
O84    O     0.36898   0.08704   0.24642   0.00000  Uiso   1.00
O85    O     0.59204   0.16901   0.17554   0.00000  Uiso   1.00
O86    O     0.35177   0.15976   0.16620   0.00000  Uiso   1.00
Zn87   Zn    0.60453   0.17284   0.25623   0.00000  Uiso   1.00
Zn88   Zn    0.39547   0.16049   0.24376   0.00000  Uiso   1.00
C89    C     0.68080   0.26466   0.24773   0.00000  Uiso   1.00
C90    C     0.72326   0.17539   0.41523   0.00000  Uiso   1.00
C91    C     0.68943   0.31876   0.25490   0.00000  Uiso   1.00
C92    C     0.70233   0.16846   0.35509   0.00000  Uiso   1.00
C93    C     0.97638   0.01434   0.24262   0.00000  Uiso   1.00
C94    C     0.98545   0.06854   0.25111   0.00000  Uiso   1.00
C95    C     0.96442   0.16271   0.14495   0.00000  Uiso   1.00
C96    C     0.95012   0.11933   0.49399   0.00000  Uiso   1.00
C97    C     0.94625   0.15804   0.08470   0.00000  Uiso   1.00
C98    C     0.69724   0.21134   0.44540   0.00000  Uiso   1.00
C99    C     0.72934   0.23726   0.49337   0.00000  Uiso   1.00
C100   C     0.81117   0.18448   0.48698   0.00000  Uiso   1.00
C101   C     0.78730   0.22731   0.01191   0.00000  Uiso   1.00
C102   C     0.77815   0.15834   0.43819   0.00000  Uiso   1.00
C103   C     0.86671   0.16697   0.00761   0.00000  Uiso   1.00
C104   C     0.89325   0.13283   0.47432   0.00000  Uiso   1.00
C105   C     0.86032   0.10864   0.42523   0.00000  Uiso   1.00
C106   C     0.80201   0.11784   0.41081   0.00000  Uiso   1.00
C107   C     0.89269   0.17646   0.06325   0.00000  Uiso   1.00
C108   C     0.97716   0.13171   0.04904   0.00000  Uiso   1.00
Cl109  Cl    0.90640   0.32468   0.20444   0.00000  Uiso   1.00
Cl110  Cl    0.84041   0.22884   0.31060   0.00000  Uiso   1.00
Cl111  Cl    0.82912   0.27687   0.05715   0.00000  Uiso   1.00
Cl112  Cl    0.75930   0.00813   0.29249   0.00000  Uiso   1.00
H113   H     0.82360   0.12476   0.20871   0.00000  Uiso   1.00
H114   H     0.97279   0.09616   0.46830   0.00000  Uiso   1.00
H115   H     0.86822   0.19325   0.09187   0.00000  Uiso   1.00
H116   H     0.98806   0.22410   0.42839   0.00000  Uiso   1.00
H117   H     0.71074   0.26893   0.01291   0.00000  Uiso   1.00
H118   H     0.77585   0.09412   0.37648   0.00000  Uiso   1.00
I119   I     0.72621   0.10068   0.07424   0.00000  Uiso   1.00
I120   I     0.89367   0.05311   0.37461   0.00000  Uiso   1.00
N121   N     0.81160   0.15223   0.23542   0.00000  Uiso   1.00
N122   N     0.85507   0.18110   0.26457   0.00000  Uiso   1.00
O123   O     0.96435   0.24629   0.25357   0.00000  Uiso   1.00
O124   O     0.72408   0.23704   0.24423   0.00000  Uiso   1.00
O125   O     0.98157   0.17358   0.33380   0.00000  Uiso   1.00
O126   O     0.74130   0.16433   0.32446   0.00000  Uiso   1.00
O127   O     0.94258   0.09629   0.25576   0.00000  Uiso   1.00
O128   O     0.70231   0.08704   0.24642   0.00000  Uiso   1.00
O129   O     0.92537   0.16901   0.17554   0.00000  Uiso   1.00
O130   O     0.68510   0.15976   0.16620   0.00000  Uiso   1.00
Zn131  Zn    0.93786   0.17284   0.25623   0.00000  Uiso   1.00
Zn132  Zn    0.72881   0.16049   0.24376   0.00000  Uiso   1.00
C133   C     0.01413   0.59800   0.24773   0.00000  Uiso   1.00
C134   C     0.05659   0.50873   0.41523   0.00000  Uiso   1.00
C135   C     0.02276   0.65210   0.25490   0.00000  Uiso   1.00
C136   C     0.03567   0.50179   0.35509   0.00000  Uiso   1.00
C137   C     0.30971   0.34767   0.24262   0.00000  Uiso   1.00
C138   C     0.31878   0.40187   0.25111   0.00000  Uiso   1.00
C139   C     0.29776   0.49604   0.14495   0.00000  Uiso   1.00
C140   C     0.28346   0.45267   0.49399   0.00000  Uiso   1.00
C141   C     0.27958   0.49137   0.08470   0.00000  Uiso   1.00
C142   C     0.03057   0.54467   0.44540   0.00000  Uiso   1.00
C143   C     0.06267   0.57060   0.49337   0.00000  Uiso   1.00
C144   C     0.14450   0.51781   0.48698   0.00000  Uiso   1.00
C145   C     0.12064   0.56065   0.01191   0.00000  Uiso   1.00
C146   C     0.11149   0.49167   0.43819   0.00000  Uiso   1.00
C147   C     0.20004   0.50030   0.00761   0.00000  Uiso   1.00
C148   C     0.22659   0.46617   0.47432   0.00000  Uiso   1.00
C149   C     0.19365   0.44198   0.42523   0.00000  Uiso   1.00
C150   C     0.13535   0.45118   0.41081   0.00000  Uiso   1.00
C151   C     0.22602   0.50980   0.06325   0.00000  Uiso   1.00
C152   C     0.31049   0.46505   0.04904   0.00000  Uiso   1.00
Cl153  Cl    0.23974   0.65802   0.20444   0.00000  Uiso   1.00
Cl154  Cl    0.17374   0.56217   0.31060   0.00000  Uiso   1.00
Cl155  Cl    0.16246   0.61021   0.05715   0.00000  Uiso   1.00
Cl156  Cl    0.09263   0.34146   0.29249   0.00000  Uiso   1.00
H157   H     0.15694   0.45809   0.20871   0.00000  Uiso   1.00
H158   H     0.30612   0.42950   0.46830   0.00000  Uiso   1.00
H159   H     0.20156   0.52658   0.09187   0.00000  Uiso   1.00
H160   H     0.32139   0.55743   0.42839   0.00000  Uiso   1.00
H161   H     0.04407   0.60226   0.01291   0.00000  Uiso   1.00
H162   H     0.10918   0.42745   0.37648   0.00000  Uiso   1.00
I163   I     0.05954   0.43402   0.07424   0.00000  Uiso   1.00
I164   I     0.22700   0.38644   0.37461   0.00000  Uiso   1.00
N165   N     0.14493   0.48556   0.23542   0.00000  Uiso   1.00
N166   N     0.18840   0.51444   0.26457   0.00000  Uiso   1.00
O167   O     0.29769   0.57963   0.25357   0.00000  Uiso   1.00
O168   O     0.05742   0.57038   0.24423   0.00000  Uiso   1.00
O169   O     0.31490   0.50691   0.33380   0.00000  Uiso   1.00
O170   O     0.07463   0.49766   0.32446   0.00000  Uiso   1.00
O171   O     0.27592   0.42962   0.25576   0.00000  Uiso   1.00
O172   O     0.03565   0.42037   0.24642   0.00000  Uiso   1.00
O173   O     0.25870   0.50234   0.17554   0.00000  Uiso   1.00
O174   O     0.01843   0.49309   0.16620   0.00000  Uiso   1.00
Zn175  Zn    0.27119   0.50618   0.25623   0.00000  Uiso   1.00
Zn176  Zn    0.06214   0.49382   0.24376   0.00000  Uiso   1.00
C177   C     0.34747   0.59800   0.24773   0.00000  Uiso   1.00
C178   C     0.38992   0.50873   0.41523   0.00000  Uiso   1.00
C179   C     0.35610   0.65210   0.25490   0.00000  Uiso   1.00
C180   C     0.36900   0.50179   0.35509   0.00000  Uiso   1.00
C181   C     0.64304   0.34767   0.24262   0.00000  Uiso   1.00
C182   C     0.65212   0.40187   0.25111   0.00000  Uiso   1.00
C183   C     0.63109   0.49604   0.14495   0.00000  Uiso   1.00
C184   C     0.61679   0.45267   0.49399   0.00000  Uiso   1.00
C185   C     0.61291   0.49137   0.08470   0.00000  Uiso   1.00
C186   C     0.36391   0.54467   0.44540   0.00000  Uiso   1.00
C187   C     0.39601   0.57060   0.49337   0.00000  Uiso   1.00
C188   C     0.47783   0.51781   0.48698   0.00000  Uiso   1.00
C189   C     0.45397   0.56065   0.01191   0.00000  Uiso   1.00
C190   C     0.44482   0.49167   0.43819   0.00000  Uiso   1.00
C191   C     0.53337   0.50030   0.00761   0.00000  Uiso   1.00
C192   C     0.55992   0.46617   0.47432   0.00000  Uiso   1.00
C193   C     0.52698   0.44198   0.42523   0.00000  Uiso   1.00
C194   C     0.46868   0.45118   0.41081   0.00000  Uiso   1.00
C195   C     0.55935   0.50980   0.06325   0.00000  Uiso   1.00
C196   C     0.64382   0.46505   0.04904   0.00000  Uiso   1.00
Cl197  Cl    0.57307   0.65802   0.20444   0.00000  Uiso   1.00
Cl198  Cl    0.50708   0.56217   0.31060   0.00000  Uiso   1.00
Cl199  Cl    0.49579   0.61021   0.05715   0.00000  Uiso   1.00
Cl200  Cl    0.42597   0.34146   0.29249   0.00000  Uiso   1.00
H201   H     0.49027   0.45809   0.20871   0.00000  Uiso   1.00
H202   H     0.63946   0.42950   0.46830   0.00000  Uiso   1.00
H203   H     0.53489   0.52658   0.09187   0.00000  Uiso   1.00
H204   H     0.65472   0.55743   0.42839   0.00000  Uiso   1.00
H205   H     0.37740   0.60226   0.01291   0.00000  Uiso   1.00
H206   H     0.44252   0.42745   0.37648   0.00000  Uiso   1.00
I207   I     0.39288   0.43402   0.07424   0.00000  Uiso   1.00
I208   I     0.56033   0.38644   0.37461   0.00000  Uiso   1.00
N209   N     0.47827   0.48556   0.23542   0.00000  Uiso   1.00
N210   N     0.52173   0.51444   0.26457   0.00000  Uiso   1.00
O211   O     0.63102   0.57963   0.25357   0.00000  Uiso   1.00
O212   O     0.39075   0.57038   0.24423   0.00000  Uiso   1.00
O213   O     0.64823   0.50691   0.33380   0.00000  Uiso   1.00
O214   O     0.40796   0.49766   0.32446   0.00000  Uiso   1.00
O215   O     0.60925   0.42962   0.25576   0.00000  Uiso   1.00
O216   O     0.36898   0.42037   0.24642   0.00000  Uiso   1.00
O217   O     0.59204   0.50234   0.17554   0.00000  Uiso   1.00
O218   O     0.35177   0.49309   0.16620   0.00000  Uiso   1.00
Zn219  Zn    0.60453   0.50618   0.25623   0.00000  Uiso   1.00
Zn220  Zn    0.39547   0.49382   0.24376   0.00000  Uiso   1.00
C221   C     0.68080   0.59800   0.24773   0.00000  Uiso   1.00
C222   C     0.72326   0.50873   0.41523   0.00000  Uiso   1.00
C223   C     0.68943   0.65210   0.25490   0.00000  Uiso   1.00
C224   C     0.70233   0.50179   0.35509   0.00000  Uiso   1.00
C225   C     0.97638   0.34767   0.24262   0.00000  Uiso   1.00
C226   C     0.98545   0.40187   0.25111   0.00000  Uiso   1.00
C227   C     0.96442   0.49604   0.14495   0.00000  Uiso   1.00
C228   C     0.95012   0.45267   0.49399   0.00000  Uiso   1.00
C229   C     0.94625   0.49137   0.08470   0.00000  Uiso   1.00
C230   C     0.69724   0.54467   0.44540   0.00000  Uiso   1.00
C231   C     0.72934   0.57060   0.49337   0.00000  Uiso   1.00
C232   C     0.81117   0.51781   0.48698   0.00000  Uiso   1.00
C233   C     0.78730   0.56065   0.01191   0.00000  Uiso   1.00
C234   C     0.77815   0.49167   0.43819   0.00000  Uiso   1.00
C235   C     0.86671   0.50030   0.00761   0.00000  Uiso   1.00
C236   C     0.89325   0.46617   0.47432   0.00000  Uiso   1.00
C237   C     0.86032   0.44198   0.42523   0.00000  Uiso   1.00
C238   C     0.80201   0.45118   0.41081   0.00000  Uiso   1.00
C239   C     0.89269   0.50980   0.06325   0.00000  Uiso   1.00
C240   C     0.97716   0.46505   0.04904   0.00000  Uiso   1.00
Cl241  Cl    0.90640   0.65802   0.20444   0.00000  Uiso   1.00
Cl242  Cl    0.84041   0.56217   0.31060   0.00000  Uiso   1.00
Cl243  Cl    0.82912   0.61021   0.05715   0.00000  Uiso   1.00
Cl244  Cl    0.75930   0.34146   0.29249   0.00000  Uiso   1.00
H245   H     0.82360   0.45809   0.20871   0.00000  Uiso   1.00
H246   H     0.97279   0.42950   0.46830   0.00000  Uiso   1.00
H247   H     0.86822   0.52658   0.09187   0.00000  Uiso   1.00
H248   H     0.98806   0.55743   0.42839   0.00000  Uiso   1.00
H249   H     0.71074   0.60226   0.01291   0.00000  Uiso   1.00
H250   H     0.77585   0.42745   0.37648   0.00000  Uiso   1.00
I251   I     0.72621   0.43402   0.07424   0.00000  Uiso   1.00
I252   I     0.89367   0.38644   0.37461   0.00000  Uiso   1.00
N253   N     0.81160   0.48556   0.23542   0.00000  Uiso   1.00
N254   N     0.85507   0.51444   0.26457   0.00000  Uiso   1.00
O255   O     0.96435   0.57963   0.25357   0.00000  Uiso   1.00
O256   O     0.72408   0.57038   0.24423   0.00000  Uiso   1.00
O257   O     0.98157   0.50691   0.33380   0.00000  Uiso   1.00
O258   O     0.74130   0.49766   0.32446   0.00000  Uiso   1.00
O259   O     0.94258   0.42962   0.25576   0.00000  Uiso   1.00
O260   O     0.70231   0.42037   0.24642   0.00000  Uiso   1.00
O261   O     0.92537   0.50234   0.17554   0.00000  Uiso   1.00
O262   O     0.68510   0.49309   0.16620   0.00000  Uiso   1.00
Zn263  Zn    0.93786   0.50618   0.25623   0.00000  Uiso   1.00
Zn264  Zn    0.72881   0.49382   0.24376   0.00000  Uiso   1.00
C265   C     0.01413   0.93133   0.24773   0.00000  Uiso   1.00
C266   C     0.05659   0.84206   0.41523   0.00000  Uiso   1.00
C267   C     0.02276   0.98543   0.25490   0.00000  Uiso   1.00
C268   C     0.03567   0.83513   0.35509   0.00000  Uiso   1.00
C269   C     0.30971   0.68101   0.24262   0.00000  Uiso   1.00
C270   C     0.31878   0.73520   0.25111   0.00000  Uiso   1.00
C271   C     0.29776   0.82937   0.14495   0.00000  Uiso   1.00
C272   C     0.28346   0.78600   0.49399   0.00000  Uiso   1.00
C273   C     0.27958   0.82471   0.08470   0.00000  Uiso   1.00
C274   C     0.03057   0.87801   0.44540   0.00000  Uiso   1.00
C275   C     0.06267   0.90393   0.49337   0.00000  Uiso   1.00
C276   C     0.14450   0.85114   0.48698   0.00000  Uiso   1.00
C277   C     0.12064   0.89398   0.01191   0.00000  Uiso   1.00
C278   C     0.11149   0.82501   0.43819   0.00000  Uiso   1.00
C279   C     0.20004   0.83363   0.00761   0.00000  Uiso   1.00
C280   C     0.22659   0.79950   0.47432   0.00000  Uiso   1.00
C281   C     0.19365   0.77531   0.42523   0.00000  Uiso   1.00
C282   C     0.13535   0.78451   0.41081   0.00000  Uiso   1.00
C283   C     0.22602   0.84313   0.06325   0.00000  Uiso   1.00
C284   C     0.31049   0.79838   0.04904   0.00000  Uiso   1.00
Cl285  Cl    0.23974   0.99135   0.20444   0.00000  Uiso   1.00
Cl286  Cl    0.17374   0.89551   0.31060   0.00000  Uiso   1.00
Cl287  Cl    0.16246   0.94354   0.05715   0.00000  Uiso   1.00
Cl288  Cl    0.09263   0.67480   0.29249   0.00000  Uiso   1.00
H289   H     0.15694   0.79143   0.20871   0.00000  Uiso   1.00
H290   H     0.30612   0.76283   0.46830   0.00000  Uiso   1.00
H291   H     0.20156   0.85991   0.09187   0.00000  Uiso   1.00
H292   H     0.32139   0.89077   0.42839   0.00000  Uiso   1.00
H293   H     0.04407   0.93560   0.01291   0.00000  Uiso   1.00
H294   H     0.10918   0.76078   0.37648   0.00000  Uiso   1.00
I295   I     0.05954   0.76735   0.07424   0.00000  Uiso   1.00
I296   I     0.22700   0.71978   0.37461   0.00000  Uiso   1.00
N297   N     0.14493   0.81890   0.23542   0.00000  Uiso   1.00
N298   N     0.18840   0.84777   0.26457   0.00000  Uiso   1.00
O299   O     0.29769   0.91296   0.25357   0.00000  Uiso   1.00
O300   O     0.05742   0.90371   0.24423   0.00000  Uiso   1.00
O301   O     0.31490   0.84024   0.33380   0.00000  Uiso   1.00
O302   O     0.07463   0.83099   0.32446   0.00000  Uiso   1.00
O303   O     0.27592   0.76296   0.25576   0.00000  Uiso   1.00
O304   O     0.03565   0.75371   0.24642   0.00000  Uiso   1.00
O305   O     0.25870   0.83567   0.17554   0.00000  Uiso   1.00
O306   O     0.01843   0.82642   0.16620   0.00000  Uiso   1.00
Zn307  Zn    0.27119   0.83951   0.25623   0.00000  Uiso   1.00
Zn308  Zn    0.06214   0.82716   0.24376   0.00000  Uiso   1.00
C309   C     0.34747   0.93133   0.24773   0.00000  Uiso   1.00
C310   C     0.38992   0.84206   0.41523   0.00000  Uiso   1.00
C311   C     0.35610   0.98543   0.25490   0.00000  Uiso   1.00
C312   C     0.36900   0.83513   0.35509   0.00000  Uiso   1.00
C313   C     0.64304   0.68101   0.24262   0.00000  Uiso   1.00
C314   C     0.65212   0.73520   0.25111   0.00000  Uiso   1.00
C315   C     0.63109   0.82937   0.14495   0.00000  Uiso   1.00
C316   C     0.61679   0.78600   0.49399   0.00000  Uiso   1.00
C317   C     0.61291   0.82471   0.08470   0.00000  Uiso   1.00
C318   C     0.36391   0.87801   0.44540   0.00000  Uiso   1.00
C319   C     0.39601   0.90393   0.49337   0.00000  Uiso   1.00
C320   C     0.47783   0.85114   0.48698   0.00000  Uiso   1.00
C321   C     0.45397   0.89398   0.01191   0.00000  Uiso   1.00
C322   C     0.44482   0.82501   0.43819   0.00000  Uiso   1.00
C323   C     0.53337   0.83363   0.00761   0.00000  Uiso   1.00
C324   C     0.55992   0.79950   0.47432   0.00000  Uiso   1.00
C325   C     0.52698   0.77531   0.42523   0.00000  Uiso   1.00
C326   C     0.46868   0.78451   0.41081   0.00000  Uiso   1.00
C327   C     0.55935   0.84313   0.06325   0.00000  Uiso   1.00
C328   C     0.64382   0.79838   0.04904   0.00000  Uiso   1.00
Cl329  Cl    0.57307   0.99135   0.20444   0.00000  Uiso   1.00
Cl330  Cl    0.50708   0.89551   0.31060   0.00000  Uiso   1.00
Cl331  Cl    0.49579   0.94354   0.05715   0.00000  Uiso   1.00
Cl332  Cl    0.42597   0.67480   0.29249   0.00000  Uiso   1.00
H333   H     0.49027   0.79143   0.20871   0.00000  Uiso   1.00
H334   H     0.63946   0.76283   0.46830   0.00000  Uiso   1.00
H335   H     0.53489   0.85991   0.09187   0.00000  Uiso   1.00
H336   H     0.65472   0.89077   0.42839   0.00000  Uiso   1.00
H337   H     0.37740   0.93560   0.01291   0.00000  Uiso   1.00
H338   H     0.44252   0.76078   0.37648   0.00000  Uiso   1.00
I339   I     0.39288   0.76735   0.07424   0.00000  Uiso   1.00
I340   I     0.56033   0.71978   0.37461   0.00000  Uiso   1.00
N341   N     0.47827   0.81890   0.23542   0.00000  Uiso   1.00
N342   N     0.52173   0.84777   0.26457   0.00000  Uiso   1.00
O343   O     0.63102   0.91296   0.25357   0.00000  Uiso   1.00
O344   O     0.39075   0.90371   0.24423   0.00000  Uiso   1.00
O345   O     0.64823   0.84024   0.33380   0.00000  Uiso   1.00
O346   O     0.40796   0.83099   0.32446   0.00000  Uiso   1.00
O347   O     0.60925   0.76296   0.25576   0.00000  Uiso   1.00
O348   O     0.36898   0.75371   0.24642   0.00000  Uiso   1.00
O349   O     0.59204   0.83567   0.17554   0.00000  Uiso   1.00
O350   O     0.35177   0.82642   0.16620   0.00000  Uiso   1.00
Zn351  Zn    0.60453   0.83951   0.25623   0.00000  Uiso   1.00
Zn352  Zn    0.39547   0.82716   0.24376   0.00000  Uiso   1.00
C353   C     0.68080   0.93133   0.24773   0.00000  Uiso   1.00
C354   C     0.72326   0.84206   0.41523   0.00000  Uiso   1.00
C355   C     0.68943   0.98543   0.25490   0.00000  Uiso   1.00
C356   C     0.70233   0.83513   0.35509   0.00000  Uiso   1.00
C357   C     0.97638   0.68101   0.24262   0.00000  Uiso   1.00
C358   C     0.98545   0.73520   0.25111   0.00000  Uiso   1.00
C359   C     0.96442   0.82937   0.14495   0.00000  Uiso   1.00
C360   C     0.95012   0.78600   0.49399   0.00000  Uiso   1.00
C361   C     0.94625   0.82471   0.08470   0.00000  Uiso   1.00
C362   C     0.69724   0.87801   0.44540   0.00000  Uiso   1.00
C363   C     0.72934   0.90393   0.49337   0.00000  Uiso   1.00
C364   C     0.81117   0.85114   0.48698   0.00000  Uiso   1.00
C365   C     0.78730   0.89398   0.01191   0.00000  Uiso   1.00
C366   C     0.77815   0.82501   0.43819   0.00000  Uiso   1.00
C367   C     0.86671   0.83363   0.00761   0.00000  Uiso   1.00
C368   C     0.89325   0.79950   0.47432   0.00000  Uiso   1.00
C369   C     0.86032   0.77531   0.42523   0.00000  Uiso   1.00
C370   C     0.80201   0.78451   0.41081   0.00000  Uiso   1.00
C371   C     0.89269   0.84313   0.06325   0.00000  Uiso   1.00
C372   C     0.97716   0.79838   0.04904   0.00000  Uiso   1.00
Cl373  Cl    0.90640   0.99135   0.20444   0.00000  Uiso   1.00
Cl374  Cl    0.84041   0.89551   0.31060   0.00000  Uiso   1.00
Cl375  Cl    0.82912   0.94354   0.05715   0.00000  Uiso   1.00
Cl376  Cl    0.75930   0.67480   0.29249   0.00000  Uiso   1.00
H377   H     0.82360   0.79143   0.20871   0.00000  Uiso   1.00
H378   H     0.97279   0.76283   0.46830   0.00000  Uiso   1.00
H379   H     0.86822   0.85991   0.09187   0.00000  Uiso   1.00
H380   H     0.98806   0.89077   0.42839   0.00000  Uiso   1.00
H381   H     0.71074   0.93560   0.01291   0.00000  Uiso   1.00
H382   H     0.77585   0.76078   0.37648   0.00000  Uiso   1.00
I383   I     0.72621   0.76735   0.07424   0.00000  Uiso   1.00
I384   I     0.89367   0.71978   0.37461   0.00000  Uiso   1.00
N385   N     0.81160   0.81890   0.23542   0.00000  Uiso   1.00
N386   N     0.85507   0.84777   0.26457   0.00000  Uiso   1.00
O387   O     0.96435   0.91296   0.25357   0.00000  Uiso   1.00
O388   O     0.72408   0.90371   0.24423   0.00000  Uiso   1.00
O389   O     0.98157   0.84024   0.33380   0.00000  Uiso   1.00
O390   O     0.74130   0.83099   0.32446   0.00000  Uiso   1.00
O391   O     0.94258   0.76296   0.25576   0.00000  Uiso   1.00
O392   O     0.70231   0.75371   0.24642   0.00000  Uiso   1.00
O393   O     0.92537   0.83567   0.17554   0.00000  Uiso   1.00
O394   O     0.68510   0.82642   0.16620   0.00000  Uiso   1.00
Zn395  Zn    0.93786   0.83951   0.25623   0.00000  Uiso   1.00
Zn396  Zn    0.72881   0.82716   0.24376   0.00000  Uiso   1.00
C397   C     0.01413   0.26466   0.74773   0.00000  Uiso   1.00
C398   C     0.05659   0.17539   0.91523   0.00000  Uiso   1.00
C399   C     0.02276   0.31876   0.75490   0.00000  Uiso   1.00
C400   C     0.03567   0.16846   0.85509   0.00000  Uiso   1.00
C401   C     0.30971   0.01434   0.74262   0.00000  Uiso   1.00
C402   C     0.31878   0.06854   0.75111   0.00000  Uiso   1.00
C403   C     0.29776   0.16271   0.64495   0.00000  Uiso   1.00
C404   C     0.28346   0.11933   0.99399   0.00000  Uiso   1.00
C405   C     0.27958   0.15804   0.58470   0.00000  Uiso   1.00
C406   C     0.03057   0.21134   0.94540   0.00000  Uiso   1.00
C407   C     0.06267   0.23726   0.99337   0.00000  Uiso   1.00
C408   C     0.14450   0.18448   0.98698   0.00000  Uiso   1.00
C409   C     0.12064   0.22731   0.51191   0.00000  Uiso   1.00
C410   C     0.11149   0.15834   0.93819   0.00000  Uiso   1.00
C411   C     0.20004   0.16697   0.50761   0.00000  Uiso   1.00
C412   C     0.22659   0.13283   0.97432   0.00000  Uiso   1.00
C413   C     0.19365   0.10864   0.92523   0.00000  Uiso   1.00
C414   C     0.13535   0.11784   0.91081   0.00000  Uiso   1.00
C415   C     0.22602   0.17646   0.56325   0.00000  Uiso   1.00
C416   C     0.31049   0.13171   0.54904   0.00000  Uiso   1.00
Cl417  Cl    0.23974   0.32468   0.70444   0.00000  Uiso   1.00
Cl418  Cl    0.17374   0.22884   0.81060   0.00000  Uiso   1.00
Cl419  Cl    0.16246   0.27687   0.55715   0.00000  Uiso   1.00
Cl420  Cl    0.09263   0.00813   0.79249   0.00000  Uiso   1.00
H421   H     0.15694   0.12476   0.70871   0.00000  Uiso   1.00
H422   H     0.30612   0.09616   0.96830   0.00000  Uiso   1.00
H423   H     0.20156   0.19325   0.59187   0.00000  Uiso   1.00
H424   H     0.32139   0.22410   0.92839   0.00000  Uiso   1.00
H425   H     0.04407   0.26893   0.51291   0.00000  Uiso   1.00
H426   H     0.10918   0.09412   0.87648   0.00000  Uiso   1.00
I427   I     0.05954   0.10068   0.57424   0.00000  Uiso   1.00
I428   I     0.22700   0.05311   0.87461   0.00000  Uiso   1.00
N429   N     0.14493   0.15223   0.73542   0.00000  Uiso   1.00
N430   N     0.18840   0.18110   0.76457   0.00000  Uiso   1.00
O431   O     0.29769   0.24629   0.75357   0.00000  Uiso   1.00
O432   O     0.05742   0.23704   0.74423   0.00000  Uiso   1.00
O433   O     0.31490   0.17358   0.83380   0.00000  Uiso   1.00
O434   O     0.07463   0.16433   0.82446   0.00000  Uiso   1.00
O435   O     0.27592   0.09629   0.75576   0.00000  Uiso   1.00
O436   O     0.03565   0.08704   0.74642   0.00000  Uiso   1.00
O437   O     0.25870   0.16901   0.67554   0.00000  Uiso   1.00
O438   O     0.01843   0.15976   0.66620   0.00000  Uiso   1.00
Zn439  Zn    0.27119   0.17284   0.75623   0.00000  Uiso   1.00
Zn440  Zn    0.06214   0.16049   0.74376   0.00000  Uiso   1.00
C441   C     0.34747   0.26466   0.74773   0.00000  Uiso   1.00
C442   C     0.38992   0.17539   0.91523   0.00000  Uiso   1.00
C443   C     0.35610   0.31876   0.75490   0.00000  Uiso   1.00
C444   C     0.36900   0.16846   0.85509   0.00000  Uiso   1.00
C445   C     0.64304   0.01434   0.74262   0.00000  Uiso   1.00
C446   C     0.65212   0.06854   0.75111   0.00000  Uiso   1.00
C447   C     0.63109   0.16271   0.64495   0.00000  Uiso   1.00
C448   C     0.61679   0.11933   0.99399   0.00000  Uiso   1.00
C449   C     0.61291   0.15804   0.58470   0.00000  Uiso   1.00
C450   C     0.36391   0.21134   0.94540   0.00000  Uiso   1.00
C451   C     0.39601   0.23726   0.99337   0.00000  Uiso   1.00
C452   C     0.47783   0.18448   0.98698   0.00000  Uiso   1.00
C453   C     0.45397   0.22731   0.51191   0.00000  Uiso   1.00
C454   C     0.44482   0.15834   0.93819   0.00000  Uiso   1.00
C455   C     0.53337   0.16697   0.50761   0.00000  Uiso   1.00
C456   C     0.55992   0.13283   0.97432   0.00000  Uiso   1.00
C457   C     0.52698   0.10864   0.92523   0.00000  Uiso   1.00
C458   C     0.46868   0.11784   0.91081   0.00000  Uiso   1.00
C459   C     0.55935   0.17646   0.56325   0.00000  Uiso   1.00
C460   C     0.64382   0.13171   0.54904   0.00000  Uiso   1.00
Cl461  Cl    0.57307   0.32468   0.70444   0.00000  Uiso   1.00
Cl462  Cl    0.50708   0.22884   0.81060   0.00000  Uiso   1.00
Cl463  Cl    0.49579   0.27687   0.55715   0.00000  Uiso   1.00
Cl464  Cl    0.42597   0.00813   0.79249   0.00000  Uiso   1.00
H465   H     0.49027   0.12476   0.70871   0.00000  Uiso   1.00
H466   H     0.63946   0.09616   0.96830   0.00000  Uiso   1.00
H467   H     0.53489   0.19325   0.59187   0.00000  Uiso   1.00
H468   H     0.65472   0.22410   0.92839   0.00000  Uiso   1.00
H469   H     0.37740   0.26893   0.51291   0.00000  Uiso   1.00
H470   H     0.44252   0.09412   0.87648   0.00000  Uiso   1.00
I471   I     0.39288   0.10068   0.57424   0.00000  Uiso   1.00
I472   I     0.56033   0.05311   0.87461   0.00000  Uiso   1.00
N473   N     0.47827   0.15223   0.73542   0.00000  Uiso   1.00
N474   N     0.52173   0.18110   0.76457   0.00000  Uiso   1.00
O475   O     0.63102   0.24629   0.75357   0.00000  Uiso   1.00
O476   O     0.39075   0.23704   0.74423   0.00000  Uiso   1.00
O477   O     0.64823   0.17358   0.83380   0.00000  Uiso   1.00
O478   O     0.40796   0.16433   0.82446   0.00000  Uiso   1.00
O479   O     0.60925   0.09629   0.75576   0.00000  Uiso   1.00
O480   O     0.36898   0.08704   0.74642   0.00000  Uiso   1.00
O481   O     0.59204   0.16901   0.67554   0.00000  Uiso   1.00
O482   O     0.35177   0.15976   0.66620   0.00000  Uiso   1.00
Zn483  Zn    0.60453   0.17284   0.75623   0.00000  Uiso   1.00
Zn484  Zn    0.39547   0.16049   0.74376   0.00000  Uiso   1.00
C485   C     0.68080   0.26466   0.74773   0.00000  Uiso   1.00
C486   C     0.72326   0.17539   0.91523   0.00000  Uiso   1.00
C487   C     0.68943   0.31876   0.75490   0.00000  Uiso   1.00
C488   C     0.70233   0.16846   0.85509   0.00000  Uiso   1.00
C489   C     0.97638   0.01434   0.74262   0.00000  Uiso   1.00
C490   C     0.98545   0.06854   0.75111   0.00000  Uiso   1.00
C491   C     0.96442   0.16271   0.64495   0.00000  Uiso   1.00
C492   C     0.95012   0.11933   0.99399   0.00000  Uiso   1.00
C493   C     0.94625   0.15804   0.58470   0.00000  Uiso   1.00
C494   C     0.69724   0.21134   0.94540   0.00000  Uiso   1.00
C495   C     0.72934   0.23726   0.99337   0.00000  Uiso   1.00
C496   C     0.81117   0.18448   0.98698   0.00000  Uiso   1.00
C497   C     0.78730   0.22731   0.51191   0.00000  Uiso   1.00
C498   C     0.77815   0.15834   0.93819   0.00000  Uiso   1.00
C499   C     0.86671   0.16697   0.50761   0.00000  Uiso   1.00
C500   C     0.89325   0.13283   0.97432   0.00000  Uiso   1.00
C501   C     0.86032   0.10864   0.92523   0.00000  Uiso   1.00
C502   C     0.80201   0.11784   0.91081   0.00000  Uiso   1.00
C503   C     0.89269   0.17646   0.56325   0.00000  Uiso   1.00
C504   C     0.97716   0.13171   0.54904   0.00000  Uiso   1.00
Cl505  Cl    0.90640   0.32468   0.70444   0.00000  Uiso   1.00
Cl506  Cl    0.84041   0.22884   0.81060   0.00000  Uiso   1.00
Cl507  Cl    0.82912   0.27687   0.55715   0.00000  Uiso   1.00
Cl508  Cl    0.75930   0.00813   0.79249   0.00000  Uiso   1.00
H509   H     0.82360   0.12476   0.70871   0.00000  Uiso   1.00
H510   H     0.97279   0.09616   0.96830   0.00000  Uiso   1.00
H511   H     0.86822   0.19325   0.59187   0.00000  Uiso   1.00
H512   H     0.98806   0.22410   0.92839   0.00000  Uiso   1.00
H513   H     0.71074   0.26893   0.51291   0.00000  Uiso   1.00
H514   H     0.77585   0.09412   0.87648   0.00000  Uiso   1.00
I515   I     0.72621   0.10068   0.57424   0.00000  Uiso   1.00
I516   I     0.89367   0.05311   0.87461   0.00000  Uiso   1.00
N517   N     0.81160   0.15223   0.73542   0.00000  Uiso   1.00
N518   N     0.85507   0.18110   0.76457   0.00000  Uiso   1.00
O519   O     0.96435   0.24629   0.75357   0.00000  Uiso   1.00
O520   O     0.72408   0.23704   0.74423   0.00000  Uiso   1.00
O521   O     0.98157   0.17358   0.83380   0.00000  Uiso   1.00
O522   O     0.74130   0.16433   0.82446   0.00000  Uiso   1.00
O523   O     0.94258   0.09629   0.75576   0.00000  Uiso   1.00
O524   O     0.70231   0.08704   0.74642   0.00000  Uiso   1.00
O525   O     0.92537   0.16901   0.67554   0.00000  Uiso   1.00
O526   O     0.68510   0.15976   0.66620   0.00000  Uiso   1.00
Zn527  Zn    0.93786   0.17284   0.75623   0.00000  Uiso   1.00
Zn528  Zn    0.72881   0.16049   0.74376   0.00000  Uiso   1.00
C529   C     0.01413   0.59800   0.74773   0.00000  Uiso   1.00
C530   C     0.05659   0.50873   0.91523   0.00000  Uiso   1.00
C531   C     0.02276   0.65210   0.75490   0.00000  Uiso   1.00
C532   C     0.03567   0.50179   0.85509   0.00000  Uiso   1.00
C533   C     0.30971   0.34767   0.74262   0.00000  Uiso   1.00
C534   C     0.31878   0.40187   0.75111   0.00000  Uiso   1.00
C535   C     0.29776   0.49604   0.64495   0.00000  Uiso   1.00
C536   C     0.28346   0.45267   0.99399   0.00000  Uiso   1.00
C537   C     0.27958   0.49137   0.58470   0.00000  Uiso   1.00
C538   C     0.03057   0.54467   0.94540   0.00000  Uiso   1.00
C539   C     0.06267   0.57060   0.99337   0.00000  Uiso   1.00
C540   C     0.14450   0.51781   0.98698   0.00000  Uiso   1.00
C541   C     0.12064   0.56065   0.51191   0.00000  Uiso   1.00
C542   C     0.11149   0.49167   0.93819   0.00000  Uiso   1.00
C543   C     0.20004   0.50030   0.50761   0.00000  Uiso   1.00
C544   C     0.22659   0.46617   0.97432   0.00000  Uiso   1.00
C545   C     0.19365   0.44198   0.92523   0.00000  Uiso   1.00
C546   C     0.13535   0.45118   0.91081   0.00000  Uiso   1.00
C547   C     0.22602   0.50980   0.56325   0.00000  Uiso   1.00
C548   C     0.31049   0.46505   0.54904   0.00000  Uiso   1.00
Cl549  Cl    0.23974   0.65802   0.70444   0.00000  Uiso   1.00
Cl550  Cl    0.17374   0.56217   0.81060   0.00000  Uiso   1.00
Cl551  Cl    0.16246   0.61021   0.55715   0.00000  Uiso   1.00
Cl552  Cl    0.09263   0.34146   0.79249   0.00000  Uiso   1.00
H553   H     0.15694   0.45809   0.70871   0.00000  Uiso   1.00
H554   H     0.30612   0.42950   0.96830   0.00000  Uiso   1.00
H555   H     0.20156   0.52658   0.59187   0.00000  Uiso   1.00
H556   H     0.32139   0.55743   0.92839   0.00000  Uiso   1.00
H557   H     0.04407   0.60226   0.51291   0.00000  Uiso   1.00
H558   H     0.10918   0.42745   0.87648   0.00000  Uiso   1.00
I559   I     0.05954   0.43402   0.57424   0.00000  Uiso   1.00
I560   I     0.22700   0.38644   0.87461   0.00000  Uiso   1.00
N561   N     0.14493   0.48556   0.73542   0.00000  Uiso   1.00
N562   N     0.18840   0.51444   0.76457   0.00000  Uiso   1.00
O563   O     0.29769   0.57963   0.75357   0.00000  Uiso   1.00
O564   O     0.05742   0.57038   0.74423   0.00000  Uiso   1.00
O565   O     0.31490   0.50691   0.83380   0.00000  Uiso   1.00
O566   O     0.07463   0.49766   0.82446   0.00000  Uiso   1.00
O567   O     0.27592   0.42962   0.75576   0.00000  Uiso   1.00
O568   O     0.03565   0.42037   0.74642   0.00000  Uiso   1.00
O569   O     0.25870   0.50234   0.67554   0.00000  Uiso   1.00
O570   O     0.01843   0.49309   0.66620   0.00000  Uiso   1.00
Zn571  Zn    0.27119   0.50618   0.75623   0.00000  Uiso   1.00
Zn572  Zn    0.06214   0.49382   0.74376   0.00000  Uiso   1.00
C573   C     0.34747   0.59800   0.74773   0.00000  Uiso   1.00
C574   C     0.38992   0.50873   0.91523   0.00000  Uiso   1.00
C575   C     0.35610   0.65210   0.75490   0.00000  Uiso   1.00
C576   C     0.36900   0.50179   0.85509   0.00000  Uiso   1.00
C577   C     0.64304   0.34767   0.74262   0.00000  Uiso   1.00
C578   C     0.65212   0.40187   0.75111   0.00000  Uiso   1.00
C579   C     0.63109   0.49604   0.64495   0.00000  Uiso   1.00
C580   C     0.61679   0.45267   0.99399   0.00000  Uiso   1.00
C581   C     0.61291   0.49137   0.58470   0.00000  Uiso   1.00
C582   C     0.36391   0.54467   0.94540   0.00000  Uiso   1.00
C583   C     0.39601   0.57060   0.99337   0.00000  Uiso   1.00
C584   C     0.47783   0.51781   0.98698   0.00000  Uiso   1.00
C585   C     0.45397   0.56065   0.51191   0.00000  Uiso   1.00
C586   C     0.44482   0.49167   0.93819   0.00000  Uiso   1.00
C587   C     0.53337   0.50030   0.50761   0.00000  Uiso   1.00
C588   C     0.55992   0.46617   0.97432   0.00000  Uiso   1.00
C589   C     0.52698   0.44198   0.92523   0.00000  Uiso   1.00
C590   C     0.46868   0.45118   0.91081   0.00000  Uiso   1.00
C591   C     0.55935   0.50980   0.56325   0.00000  Uiso   1.00
C592   C     0.64382   0.46505   0.54904   0.00000  Uiso   1.00
Cl593  Cl    0.57307   0.65802   0.70444   0.00000  Uiso   1.00
Cl594  Cl    0.50708   0.56217   0.81060   0.00000  Uiso   1.00
Cl595  Cl    0.49579   0.61021   0.55715   0.00000  Uiso   1.00
Cl596  Cl    0.42597   0.34146   0.79249   0.00000  Uiso   1.00
H597   H     0.49027   0.45809   0.70871   0.00000  Uiso   1.00
H598   H     0.63946   0.42950   0.96830   0.00000  Uiso   1.00
H599   H     0.53489   0.52658   0.59187   0.00000  Uiso   1.00
H600   H     0.65472   0.55743   0.92839   0.00000  Uiso   1.00
H601   H     0.37740   0.60226   0.51291   0.00000  Uiso   1.00
H602   H     0.44252   0.42745   0.87648   0.00000  Uiso   1.00
I603   I     0.39288   0.43402   0.57424   0.00000  Uiso   1.00
I604   I     0.56033   0.38644   0.87461   0.00000  Uiso   1.00
N605   N     0.47827   0.48556   0.73542   0.00000  Uiso   1.00
N606   N     0.52173   0.51444   0.76457   0.00000  Uiso   1.00
O607   O     0.63102   0.57963   0.75357   0.00000  Uiso   1.00
O608   O     0.39075   0.57038   0.74423   0.00000  Uiso   1.00
O609   O     0.64823   0.50691   0.83380   0.00000  Uiso   1.00
O610   O     0.40796   0.49766   0.82446   0.00000  Uiso   1.00
O611   O     0.60925   0.42962   0.75576   0.00000  Uiso   1.00
O612   O     0.36898   0.42037   0.74642   0.00000  Uiso   1.00
O613   O     0.59204   0.50234   0.67554   0.00000  Uiso   1.00
O614   O     0.35177   0.49309   0.66620   0.00000  Uiso   1.00
Zn615  Zn    0.60453   0.50618   0.75623   0.00000  Uiso   1.00
Zn616  Zn    0.39547   0.49382   0.74376   0.00000  Uiso   1.00
C617   C     0.68080   0.59800   0.74773   0.00000  Uiso   1.00
C618   C     0.72326   0.50873   0.91523   0.00000  Uiso   1.00
C619   C     0.68943   0.65210   0.75490   0.00000  Uiso   1.00
C620   C     0.70233   0.50179   0.85509   0.00000  Uiso   1.00
C621   C     0.97638   0.34767   0.74262   0.00000  Uiso   1.00
C622   C     0.98545   0.40187   0.75111   0.00000  Uiso   1.00
C623   C     0.96442   0.49604   0.64495   0.00000  Uiso   1.00
C624   C     0.95012   0.45267   0.99399   0.00000  Uiso   1.00
C625   C     0.94625   0.49137   0.58470   0.00000  Uiso   1.00
C626   C     0.69724   0.54467   0.94540   0.00000  Uiso   1.00
C627   C     0.72934   0.57060   0.99337   0.00000  Uiso   1.00
C628   C     0.81117   0.51781   0.98698   0.00000  Uiso   1.00
C629   C     0.78730   0.56065   0.51191   0.00000  Uiso   1.00
C630   C     0.77815   0.49167   0.93819   0.00000  Uiso   1.00
C631   C     0.86671   0.50030   0.50761   0.00000  Uiso   1.00
C632   C     0.89325   0.46617   0.97432   0.00000  Uiso   1.00
C633   C     0.86032   0.44198   0.92523   0.00000  Uiso   1.00
C634   C     0.80201   0.45118   0.91081   0.00000  Uiso   1.00
C635   C     0.89269   0.50980   0.56325   0.00000  Uiso   1.00
C636   C     0.97716   0.46505   0.54904   0.00000  Uiso   1.00
Cl637  Cl    0.90640   0.65802   0.70444   0.00000  Uiso   1.00
Cl638  Cl    0.84041   0.56217   0.81060   0.00000  Uiso   1.00
Cl639  Cl    0.82912   0.61021   0.55715   0.00000  Uiso   1.00
Cl640  Cl    0.75930   0.34146   0.79249   0.00000  Uiso   1.00
H641   H     0.82360   0.45809   0.70871   0.00000  Uiso   1.00
H642   H     0.97279   0.42950   0.96830   0.00000  Uiso   1.00
H643   H     0.86822   0.52658   0.59187   0.00000  Uiso   1.00
H644   H     0.98806   0.55743   0.92839   0.00000  Uiso   1.00
H645   H     0.71074   0.60226   0.51291   0.00000  Uiso   1.00
H646   H     0.77585   0.42745   0.87648   0.00000  Uiso   1.00
I647   I     0.72621   0.43402   0.57424   0.00000  Uiso   1.00
I648   I     0.89367   0.38644   0.87461   0.00000  Uiso   1.00
N649   N     0.81160   0.48556   0.73542   0.00000  Uiso   1.00
N650   N     0.85507   0.51444   0.76457   0.00000  Uiso   1.00
O651   O     0.96435   0.57963   0.75357   0.00000  Uiso   1.00
O652   O     0.72408   0.57038   0.74423   0.00000  Uiso   1.00
O653   O     0.98157   0.50691   0.83380   0.00000  Uiso   1.00
O654   O     0.74130   0.49766   0.82446   0.00000  Uiso   1.00
O655   O     0.94258   0.42962   0.75576   0.00000  Uiso   1.00
O656   O     0.70231   0.42037   0.74642   0.00000  Uiso   1.00
O657   O     0.92537   0.50234   0.67554   0.00000  Uiso   1.00
O658   O     0.68510   0.49309   0.66620   0.00000  Uiso   1.00
Zn659  Zn    0.93786   0.50618   0.75623   0.00000  Uiso   1.00
Zn660  Zn    0.72881   0.49382   0.74376   0.00000  Uiso   1.00
C661   C     0.01413   0.93133   0.74773   0.00000  Uiso   1.00
C662   C     0.05659   0.84206   0.91523   0.00000  Uiso   1.00
C663   C     0.02276   0.98543   0.75490   0.00000  Uiso   1.00
C664   C     0.03567   0.83513   0.85509   0.00000  Uiso   1.00
C665   C     0.30971   0.68101   0.74262   0.00000  Uiso   1.00
C666   C     0.31878   0.73520   0.75111   0.00000  Uiso   1.00
C667   C     0.29776   0.82937   0.64495   0.00000  Uiso   1.00
C668   C     0.28346   0.78600   0.99399   0.00000  Uiso   1.00
C669   C     0.27958   0.82471   0.58470   0.00000  Uiso   1.00
C670   C     0.03057   0.87801   0.94540   0.00000  Uiso   1.00
C671   C     0.06267   0.90393   0.99337   0.00000  Uiso   1.00
C672   C     0.14450   0.85114   0.98698   0.00000  Uiso   1.00
C673   C     0.12064   0.89398   0.51191   0.00000  Uiso   1.00
C674   C     0.11149   0.82501   0.93819   0.00000  Uiso   1.00
C675   C     0.20004   0.83363   0.50761   0.00000  Uiso   1.00
C676   C     0.22659   0.79950   0.97432   0.00000  Uiso   1.00
C677   C     0.19365   0.77531   0.92523   0.00000  Uiso   1.00
C678   C     0.13535   0.78451   0.91081   0.00000  Uiso   1.00
C679   C     0.22602   0.84313   0.56325   0.00000  Uiso   1.00
C680   C     0.31049   0.79838   0.54904   0.00000  Uiso   1.00
Cl681  Cl    0.23974   0.99135   0.70444   0.00000  Uiso   1.00
Cl682  Cl    0.17374   0.89551   0.81060   0.00000  Uiso   1.00
Cl683  Cl    0.16246   0.94354   0.55715   0.00000  Uiso   1.00
Cl684  Cl    0.09263   0.67480   0.79249   0.00000  Uiso   1.00
H685   H     0.15694   0.79143   0.70871   0.00000  Uiso   1.00
H686   H     0.30612   0.76283   0.96830   0.00000  Uiso   1.00
H687   H     0.20156   0.85991   0.59187   0.00000  Uiso   1.00
H688   H     0.32139   0.89077   0.92839   0.00000  Uiso   1.00
H689   H     0.04407   0.93560   0.51291   0.00000  Uiso   1.00
H690   H     0.10918   0.76078   0.87648   0.00000  Uiso   1.00
I691   I     0.05954   0.76735   0.57424   0.00000  Uiso   1.00
I692   I     0.22700   0.71978   0.87461   0.00000  Uiso   1.00
N693   N     0.14493   0.81890   0.73542   0.00000  Uiso   1.00
N694   N     0.18840   0.84777   0.76457   0.00000  Uiso   1.00
O695   O     0.29769   0.91296   0.75357   0.00000  Uiso   1.00
O696   O     0.05742   0.90371   0.74423   0.00000  Uiso   1.00
O697   O     0.31490   0.84024   0.83380   0.00000  Uiso   1.00
O698   O     0.07463   0.83099   0.82446   0.00000  Uiso   1.00
O699   O     0.27592   0.76296   0.75576   0.00000  Uiso   1.00
O700   O     0.03565   0.75371   0.74642   0.00000  Uiso   1.00
O701   O     0.25870   0.83567   0.67554   0.00000  Uiso   1.00
O702   O     0.01843   0.82642   0.66620   0.00000  Uiso   1.00
Zn703  Zn    0.27119   0.83951   0.75623   0.00000  Uiso   1.00
Zn704  Zn    0.06214   0.82716   0.74376   0.00000  Uiso   1.00
C705   C     0.34747   0.93133   0.74773   0.00000  Uiso   1.00
C706   C     0.38992   0.84206   0.91523   0.00000  Uiso   1.00
C707   C     0.35610   0.98543   0.75490   0.00000  Uiso   1.00
C708   C     0.36900   0.83513   0.85509   0.00000  Uiso   1.00
C709   C     0.64304   0.68101   0.74262   0.00000  Uiso   1.00
C710   C     0.65212   0.73520   0.75111   0.00000  Uiso   1.00
C711   C     0.63109   0.82937   0.64495   0.00000  Uiso   1.00
C712   C     0.61679   0.78600   0.99399   0.00000  Uiso   1.00
C713   C     0.61291   0.82471   0.58470   0.00000  Uiso   1.00
C714   C     0.36391   0.87801   0.94540   0.00000  Uiso   1.00
C715   C     0.39601   0.90393   0.99337   0.00000  Uiso   1.00
C716   C     0.47783   0.85114   0.98698   0.00000  Uiso   1.00
C717   C     0.45397   0.89398   0.51191   0.00000  Uiso   1.00
C718   C     0.44482   0.82501   0.93819   0.00000  Uiso   1.00
C719   C     0.53337   0.83363   0.50761   0.00000  Uiso   1.00
C720   C     0.55992   0.79950   0.97432   0.00000  Uiso   1.00
C721   C     0.52698   0.77531   0.92523   0.00000  Uiso   1.00
C722   C     0.46868   0.78451   0.91081   0.00000  Uiso   1.00
C723   C     0.55935   0.84313   0.56325   0.00000  Uiso   1.00
C724   C     0.64382   0.79838   0.54904   0.00000  Uiso   1.00
Cl725  Cl    0.57307   0.99135   0.70444   0.00000  Uiso   1.00
Cl726  Cl    0.50708   0.89551   0.81060   0.00000  Uiso   1.00
Cl727  Cl    0.49579   0.94354   0.55715   0.00000  Uiso   1.00
Cl728  Cl    0.42597   0.67480   0.79249   0.00000  Uiso   1.00
H729   H     0.49027   0.79143   0.70871   0.00000  Uiso   1.00
H730   H     0.63946   0.76283   0.96830   0.00000  Uiso   1.00
H731   H     0.53489   0.85991   0.59187   0.00000  Uiso   1.00
H732   H     0.65472   0.89077   0.92839   0.00000  Uiso   1.00
H733   H     0.37740   0.93560   0.51291   0.00000  Uiso   1.00
H734   H     0.44252   0.76078   0.87648   0.00000  Uiso   1.00
I735   I     0.39288   0.76735   0.57424   0.00000  Uiso   1.00
I736   I     0.56033   0.71978   0.87461   0.00000  Uiso   1.00
N737   N     0.47827   0.81890   0.73542   0.00000  Uiso   1.00
N738   N     0.52173   0.84777   0.76457   0.00000  Uiso   1.00
O739   O     0.63102   0.91296   0.75357   0.00000  Uiso   1.00
O740   O     0.39075   0.90371   0.74423   0.00000  Uiso   1.00
O741   O     0.64823   0.84024   0.83380   0.00000  Uiso   1.00
O742   O     0.40796   0.83099   0.82446   0.00000  Uiso   1.00
O743   O     0.60925   0.76296   0.75576   0.00000  Uiso   1.00
O744   O     0.36898   0.75371   0.74642   0.00000  Uiso   1.00
O745   O     0.59204   0.83567   0.67554   0.00000  Uiso   1.00
O746   O     0.35177   0.82642   0.66620   0.00000  Uiso   1.00
Zn747  Zn    0.60453   0.83951   0.75623   0.00000  Uiso   1.00
Zn748  Zn    0.39547   0.82716   0.74376   0.00000  Uiso   1.00
C749   C     0.68080   0.93133   0.74773   0.00000  Uiso   1.00
C750   C     0.72326   0.84206   0.91523   0.00000  Uiso   1.00
C751   C     0.68943   0.98543   0.75490   0.00000  Uiso   1.00
C752   C     0.70233   0.83513   0.85509   0.00000  Uiso   1.00
C753   C     0.97638   0.68101   0.74262   0.00000  Uiso   1.00
C754   C     0.98545   0.73520   0.75111   0.00000  Uiso   1.00
C755   C     0.96442   0.82937   0.64495   0.00000  Uiso   1.00
C756   C     0.95012   0.78600   0.99399   0.00000  Uiso   1.00
C757   C     0.94625   0.82471   0.58470   0.00000  Uiso   1.00
C758   C     0.69724   0.87801   0.94540   0.00000  Uiso   1.00
C759   C     0.72934   0.90393   0.99337   0.00000  Uiso   1.00
C760   C     0.81117   0.85114   0.98698   0.00000  Uiso   1.00
C761   C     0.78730   0.89398   0.51191   0.00000  Uiso   1.00
C762   C     0.77815   0.82501   0.93819   0.00000  Uiso   1.00
C763   C     0.86671   0.83363   0.50761   0.00000  Uiso   1.00
C764   C     0.89325   0.79950   0.97432   0.00000  Uiso   1.00
C765   C     0.86032   0.77531   0.92523   0.00000  Uiso   1.00
C766   C     0.80201   0.78451   0.91081   0.00000  Uiso   1.00
C767   C     0.89269   0.84313   0.56325   0.00000  Uiso   1.00
C768   C     0.97716   0.79838   0.54904   0.00000  Uiso   1.00
Cl769  Cl    0.90640   0.99135   0.70444   0.00000  Uiso   1.00
Cl770  Cl    0.84041   0.89551   0.81060   0.00000  Uiso   1.00
Cl771  Cl    0.82912   0.94354   0.55715   0.00000  Uiso   1.00
Cl772  Cl    0.75930   0.67480   0.79249   0.00000  Uiso   1.00
H773   H     0.82360   0.79143   0.70871   0.00000  Uiso   1.00
H774   H     0.97279   0.76283   0.96830   0.00000  Uiso   1.00
H775   H     0.86822   0.85991   0.59187   0.00000  Uiso   1.00
H776   H     0.98806   0.89077   0.92839   0.00000  Uiso   1.00
H777   H     0.71074   0.93560   0.51291   0.00000  Uiso   1.00
H778   H     0.77585   0.76078   0.87648   0.00000  Uiso   1.00
I779   I     0.72621   0.76735   0.57424   0.00000  Uiso   1.00
I780   I     0.89367   0.71978   0.87461   0.00000  Uiso   1.00
N781   N     0.81160   0.81890   0.73542   0.00000  Uiso   1.00
N782   N     0.85507   0.84777   0.76457   0.00000  Uiso   1.00
O783   O     0.96435   0.91296   0.75357   0.00000  Uiso   1.00
O784   O     0.72408   0.90371   0.74423   0.00000  Uiso   1.00
O785   O     0.98157   0.84024   0.83380   0.00000  Uiso   1.00
O786   O     0.74130   0.83099   0.82446   0.00000  Uiso   1.00
O787   O     0.94258   0.76296   0.75576   0.00000  Uiso   1.00
O788   O     0.70231   0.75371   0.74642   0.00000  Uiso   1.00
O789   O     0.92537   0.83567   0.67554   0.00000  Uiso   1.00
O790   O     0.68510   0.82642   0.66620   0.00000  Uiso   1.00
Zn791  Zn    0.93786   0.83951   0.75623   0.00000  Uiso   1.00
Zn792  Zn    0.72881   0.82716   0.74376   0.00000  Uiso   1.00
loop_
_geom_bond_atom_site_label_1
_geom_bond_atom_site_label_2
_geom_bond_distance
_geom_bond_site_symmetry_2
_ccdc_geom_bond_type
C1     O36     1.290   .     A
C1     C3      1.396   .     S
C1     O123    1.271   1_455 S
C2     C4      1.456   .     S
C2     C14     1.410   .     A
C2     C10     1.398   .     A
C3     C225    1.353   1_455 S
C3     Cl156   1.773   .     S
C4     O38     1.294   .     A
C4     O125    1.296   1_455 S
C5     C6      1.401   .     S
C5     C311    1.353   1_545 S
C5     Cl285   1.782   1_545 S
C6     O39     1.290   .     A
C6     O84     1.273   .     S
C7     O41     1.301   .     A
C7     C9      1.449   .     S
C7     O86     1.285   .     S
C8     C16     1.402   .     A
C8     H26     1.080   .     S
C8     C416    1.387   .     S
C9     C20     1.412   .     A
C9     C19     1.389   .     A
C10    C11     1.386   .     A
C10    H116    1.084   1_455 S
C11    C409    1.395   .     S
C11    H425    1.083   .     S
C12    C14     1.410   .     A
C12    C409    1.432   .     S
C12    C411    1.416   .     S
C13    Cl23    1.768   .     S
C13    C407    1.395   1_554 S
C13    C408    1.432   1_554 S
C14    C18     1.415   .     A
C15    C19     1.384   .     A
C15    C408    1.416   1_554 S
C15    C412    1.421   1_554 S
C16    C17     1.395   .     A
C16    C411    1.421   .     S
C17    C18     1.386   .     A
C17    I32     2.130   .     S
C18    H30     1.081   .     S
C19    H27     1.078   .     S
C20    C404    1.387   1_554 S
C20    I75     2.133   .     S
Cl21   C137    1.782   .     S
Cl22   N34     1.724   .     S
Cl24   C267    1.773   1_545 S
H25    N33     1.029   .     S
H28    C54     1.084   .     S
H29    C407    1.083   1_554 S
I31    C108    2.133   1_455 S
N33    N34     1.299   .     D
N33    Zn44    2.017   .     S
N34    Zn43    2.017   .     S
O35    Zn43    1.966   .     S
O35    C45     1.271   .     S
O36    Zn44    1.984   .     S
O37    Zn43    1.974   .     S
O37    C48     1.296   .     S
O38    Zn44    1.933   .     S
O39    Zn43    1.984   .     S
O40    Zn44    1.966   .     S
O40    C94     1.273   1_455 S
O41    Zn43    1.933   .     S
O42    Zn44    1.974   .     S
O42    C95     1.285   1_455 S
C45    O80     1.290   .     A
C45    C47     1.396   .     S
C46    C48     1.456   .     S
C46    C58     1.410   .     A
C46    C54     1.398   .     A
C47    C137    1.353   .     S
C47    Cl200   1.773   .     S
C48    O82     1.294   .     A
C49    C50     1.401   .     S
C49    C355    1.353   1_545 S
C49    Cl329   1.782   1_545 S
C50    O83     1.290   .     A
C50    O128    1.273   .     S
C51    O85     1.301   .     A
C51    C53     1.449   .     S
C51    O130    1.285   .     S
C52    C60     1.402   .     A
C52    H70     1.080   .     S
C52    C460    1.387   .     S
C53    C64     1.412   .     A
C53    C63     1.389   .     A
C54    C55     1.386   .     A
C55    C453    1.395   .     S
C55    H469    1.083   .     S
C56    C58     1.410   .     A
C56    C453    1.432   .     S
C56    C455    1.416   .     S
C57    Cl67    1.768   .     S
C57    C451    1.395   1_554 S
C57    C452    1.432   1_554 S
C58    C62     1.415   .     A
C59    C63     1.384   .     A
C59    C452    1.416   1_554 S
C59    C456    1.421   1_554 S
C60    C61     1.395   .     A
C60    C455    1.421   .     S
C61    C62     1.386   .     A
C61    I76     2.130   .     S
C62    H74     1.081   .     S
C63    H71     1.078   .     S
C64    C448    1.387   1_554 S
C64    I119    2.133   .     S
Cl65   C181    1.782   .     S
Cl66   N78     1.724   .     S
Cl68   C311    1.773   1_545 S
H69    N77     1.029   .     S
H72    C98     1.084   .     S
H73    C451    1.083   1_554 S
N77    N78     1.299   .     D
N77    Zn88    2.017   .     S
N78    Zn87    2.017   .     S
O79    Zn87    1.966   .     S
O79    C89     1.271   .     S
O80    Zn88    1.984   .     S
O81    Zn87    1.974   .     S
O81    C92     1.296   .     S
O82    Zn88    1.933   .     S
O83    Zn87    1.984   .     S
O84    Zn88    1.966   .     S
O85    Zn87    1.933   .     S
O86    Zn88    1.974   .     S
C89    O124    1.290   .     A
C89    C91     1.396   .     S
C90    C92     1.456   .     S
C90    C102    1.410   .     A
C90    C98     1.398   .     A
C91    C181    1.353   .     S
C91    Cl244   1.773   .     S
C92    O126    1.294   .     A
C93    C94     1.401   .     S
C93    C267    1.353   1_645 S
C93    Cl373   1.782   1_545 S
C94    O127    1.290   .     A
C94    O40     1.273   1_655 S
C95    O129    1.301   .     A
C95    C97     1.449   .     S
C95    O42     1.285   1_655 S
C96    C104    1.402   .     A
C96    H114    1.080   .     S
C96    C504    1.387   .     S
C97    C108    1.412   .     A
C97    C107    1.389   .     A
C98    C99     1.386   .     A
C99    C497    1.395   .     S
C99    H513    1.083   .     S
C100   C102    1.410   .     A
C100   C497    1.432   .     S
C100   C499    1.416   .     S
C101   Cl111   1.768   .     S
C101   C495    1.395   1_554 S
C101   C496    1.432   1_554 S
C102   C106    1.415   .     A
C103   C107    1.384   .     A
C103   C496    1.416   1_554 S
C103   C500    1.421   1_554 S
C104   C105    1.395   .     A
C104   C499    1.421   .     S
C105   C106    1.386   .     A
C105   I120    2.130   .     S
C106   H118    1.081   .     S
C107   H115    1.078   .     S
C108   C492    1.387   1_554 S
C108   I31     2.133   1_655 S
Cl109  C225    1.782   .     S
Cl110  N122    1.724   .     S
Cl112  C355    1.773   1_545 S
H113   N121    1.029   .     S
H116   C10     1.084   1_655 S
H117   C495    1.083   1_554 S
N121   N122    1.299   .     D
N121   Zn132   2.017   .     S
N122   Zn131   2.017   .     S
O123   Zn131   1.966   .     S
O123   C1      1.271   1_655 S
O124   Zn132   1.984   .     S
O125   Zn131   1.974   .     S
O125   C4      1.296   1_655 S
O126   Zn132   1.933   .     S
O127   Zn131   1.984   .     S
O128   Zn132   1.966   .     S
O129   Zn131   1.933   .     S
O130   Zn132   1.974   .     S
C133   O168    1.290   .     A
C133   C135    1.396   .     S
C133   O255    1.271   1_455 S
C134   C136    1.456   .     S
C134   C146    1.410   .     A
C134   C142    1.398   .     A
C135   C357    1.353   1_455 S
C135   Cl288   1.773   .     S
C136   O170    1.294   .     A
C136   O257    1.296   1_455 S
C137   C138    1.401   .     S
C138   O171    1.290   .     A
C138   O216    1.273   .     S
C139   O173    1.301   .     A
C139   C141    1.449   .     S
C139   O218    1.285   .     S
C140   C148    1.402   .     A
C140   H158    1.080   .     S
C140   C548    1.387   .     S
C141   C152    1.412   .     A
C141   C151    1.389   .     A
C142   C143    1.386   .     A
C142   H248    1.084   1_455 S
C143   C541    1.395   .     S
C143   H557    1.083   .     S
C144   C146    1.410   .     A
C144   C541    1.432   .     S
C144   C543    1.416   .     S
C145   Cl155   1.768   .     S
C145   C539    1.395   1_554 S
C145   C540    1.432   1_554 S
C146   C150    1.415   .     A
C147   C151    1.384   .     A
C147   C540    1.416   1_554 S
C147   C544    1.421   1_554 S
C148   C149    1.395   .     A
C148   C543    1.421   .     S
C149   C150    1.386   .     A
C149   I164    2.130   .     S
C150   H162    1.081   .     S
C151   H159    1.078   .     S
C152   C536    1.387   1_554 S
C152   I207    2.133   .     S
Cl153  C269    1.782   .     S
Cl154  N166    1.724   .     S
H157   N165    1.029   .     S
H160   C186    1.084   .     S
H161   C539    1.083   1_554 S
I163   C240    2.133   1_455 S
N165   N166    1.299   .     D
N165   Zn176   2.017   .     S
N166   Zn175   2.017   .     S
O167   Zn175   1.966   .     S
O167   C177    1.271   .     S
O168   Zn176   1.984   .     S
O169   Zn175   1.974   .     S
O169   C180    1.296   .     S
O170   Zn176   1.933   .     S
O171   Zn175   1.984   .     S
O172   Zn176   1.966   .     S
O172   C226    1.273   1_455 S
O173   Zn175   1.933   .     S
O174   Zn176   1.974   .     S
O174   C227    1.285   1_455 S
C177   O212    1.290   .     A
C177   C179    1.396   .     S
C178   C180    1.456   .     S
C178   C190    1.410   .     A
C178   C186    1.398   .     A
C179   C269    1.353   .     S
C179   Cl332   1.773   .     S
C180   O214    1.294   .     A
C181   C182    1.401   .     S
C182   O215    1.290   .     A
C182   O260    1.273   .     S
C183   O217    1.301   .     A
C183   C185    1.449   .     S
C183   O262    1.285   .     S
C184   C192    1.402   .     A
C184   H202    1.080   .     S
C184   C592    1.387   .     S
C185   C196    1.412   .     A
C185   C195    1.389   .     A
C186   C187    1.386   .     A
C187   C585    1.395   .     S
C187   H601    1.083   .     S
C188   C190    1.410   .     A
C188   C585    1.432   .     S
C188   C587    1.416   .     S
C189   Cl199   1.768   .     S
C189   C583    1.395   1_554 S
C189   C584    1.432   1_554 S
C190   C194    1.415   .     A
C191   C195    1.384   .     A
C191   C584    1.416   1_554 S
C191   C588    1.421   1_554 S
C192   C193    1.395   .     A
C192   C587    1.421   .     S
C193   C194    1.386   .     A
C193   I208    2.130   .     S
C194   H206    1.081   .     S
C195   H203    1.078   .     S
C196   C580    1.387   1_554 S
C196   I251    2.133   .     S
Cl197  C313    1.782   .     S
Cl198  N210    1.724   .     S
H201   N209    1.029   .     S
H204   C230    1.084   .     S
H205   C583    1.083   1_554 S
N209   N210    1.299   .     D
N209   Zn220   2.017   .     S
N210   Zn219   2.017   .     S
O211   Zn219   1.966   .     S
O211   C221    1.271   .     S
O212   Zn220   1.984   .     S
O213   Zn219   1.974   .     S
O213   C224    1.296   .     S
O214   Zn220   1.933   .     S
O215   Zn219   1.984   .     S
O216   Zn220   1.966   .     S
O217   Zn219   1.933   .     S
O218   Zn220   1.974   .     S
C221   O256    1.290   .     A
C221   C223    1.396   .     S
C222   C224    1.456   .     S
C222   C234    1.410   .     A
C222   C230    1.398   .     A
C223   C313    1.353   .     S
C223   Cl376   1.773   .     S
C224   O258    1.294   .     A
C225   C226    1.401   .     S
C225   C3      1.353   1_655 S
C226   O259    1.290   .     A
C226   O172    1.273   1_655 S
C227   O261    1.301   .     A
C227   C229    1.449   .     S
C227   O174    1.285   1_655 S
C228   C236    1.402   .     A
C228   H246    1.080   .     S
C228   C636    1.387   .     S
C229   C240    1.412   .     A
C229   C239    1.389   .     A
C230   C231    1.386   .     A
C231   C629    1.395   .     S
C231   H645    1.083   .     S
C232   C234    1.410   .     A
C232   C629    1.432   .     S
C232   C631    1.416   .     S
C233   Cl243   1.768   .     S
C233   C627    1.395   1_554 S
C233   C628    1.432   1_554 S
C234   C238    1.415   .     A
C235   C239    1.384   .     A
C235   C628    1.416   1_554 S
C235   C632    1.421   1_554 S
C236   C237    1.395   .     A
C236   C631    1.421   .     S
C237   C238    1.386   .     A
C237   I252    2.130   .     S
C238   H250    1.081   .     S
C239   H247    1.078   .     S
C240   C624    1.387   1_554 S
C240   I163    2.133   1_655 S
Cl241  C357    1.782   .     S
Cl242  N254    1.724   .     S
H245   N253    1.029   .     S
H248   C142    1.084   1_655 S
H249   C627    1.083   1_554 S
N253   N254    1.299   .     D
N253   Zn264   2.017   .     S
N254   Zn263   2.017   .     S
O255   Zn263   1.966   .     S
O255   C133    1.271   1_655 S
O256   Zn264   1.984   .     S
O257   Zn263   1.974   .     S
O257   C136    1.296   1_655 S
O258   Zn264   1.933   .     S
O259   Zn263   1.984   .     S
O260   Zn264   1.966   .     S
O261   Zn263   1.933   .     S
O262   Zn264   1.974   .     S
C265   O300    1.290   .     A
C265   C267    1.396   .     S
C265   O387    1.271   1_455 S
C266   C268    1.456   .     S
C266   C278    1.410   .     A
C266   C274    1.398   .     A
C267   C93     1.353   1_465 S
C267   Cl24    1.773   1_565 S
C268   O302    1.294   .     A
C268   O389    1.296   1_455 S
C269   C270    1.401   .     S
C270   O303    1.290   .     A
C270   O348    1.273   .     S
C271   O305    1.301   .     A
C271   C273    1.449   .     S
C271   O350    1.285   .     S
C272   C280    1.402   .     A
C272   H290    1.080   .     S
C272   C680    1.387   .     S
C273   C284    1.412   .     A
C273   C283    1.389   .     A
C274   C275    1.386   .     A
C274   H380    1.084   1_455 S
C275   C673    1.395   .     S
C275   H689    1.083   .     S
C276   C278    1.410   .     A
C276   C673    1.432   .     S
C276   C675    1.416   .     S
C277   Cl287   1.768   .     S
C277   C671    1.395   1_554 S
C277   C672    1.432   1_554 S
C278   C282    1.415   .     A
C279   C283    1.384   .     A
C279   C672    1.416   1_554 S
C279   C676    1.421   1_554 S
C280   C281    1.395   .     A
C280   C675    1.421   .     S
C281   C282    1.386   .     A
C281   I296    2.130   .     S
C282   H294    1.081   .     S
C283   H291    1.078   .     S
C284   C668    1.387   1_554 S
C284   I339    2.133   .     S
Cl285  C5      1.782   1_565 S
Cl286  N298    1.724   .     S
H289   N297    1.029   .     S
H292   C318    1.084   .     S
H293   C671    1.083   1_554 S
I295   C372    2.133   1_455 S
N297   N298    1.299   .     D
N297   Zn308   2.017   .     S
N298   Zn307   2.017   .     S
O299   Zn307   1.966   .     S
O299   C309    1.271   .     S
O300   Zn308   1.984   .     S
O301   Zn307   1.974   .     S
O301   C312    1.296   .     S
O302   Zn308   1.933   .     S
O303   Zn307   1.984   .     S
O304   Zn308   1.966   .     S
O304   C358    1.273   1_455 S
O305   Zn307   1.933   .     S
O306   Zn308   1.974   .     S
O306   C359    1.285   1_455 S
C309   O344    1.290   .     A
C309   C311    1.396   .     S
C310   C312    1.456   .     S
C310   C322    1.410   .     A
C310   C318    1.398   .     A
C311   C5      1.353   1_565 S
C311   Cl68    1.773   1_565 S
C312   O346    1.294   .     A
C313   C314    1.401   .     S
C314   O347    1.290   .     A
C314   O392    1.273   .     S
C315   O349    1.301   .     A
C315   C317    1.449   .     S
C315   O394    1.285   .     S
C316   C324    1.402   .     A
C316   H334    1.080   .     S
C316   C724    1.387   .     S
C317   C328    1.412   .     A
C317   C327    1.389   .     A
C318   C319    1.386   .     A
C319   C717    1.395   .     S
C319   H733    1.083   .     S
C320   C322    1.410   .     A
C320   C717    1.432   .     S
C320   C719    1.416   .     S
C321   Cl331   1.768   .     S
C321   C715    1.395   1_554 S
C321   C716    1.432   1_554 S
C322   C326    1.415   .     A
C323   C327    1.384   .     A
C323   C716    1.416   1_554 S
C323   C720    1.421   1_554 S
C324   C325    1.395   .     A
C324   C719    1.421   .     S
C325   C326    1.386   .     A
C325   I340    2.130   .     S
C326   H338    1.081   .     S
C327   H335    1.078   .     S
C328   C712    1.387   1_554 S
C328   I383    2.133   .     S
Cl329  C49     1.782   1_565 S
Cl330  N342    1.724   .     S
H333   N341    1.029   .     S
H336   C362    1.084   .     S
H337   C715    1.083   1_554 S
N341   N342    1.299   .     D
N341   Zn352   2.017   .     S
N342   Zn351   2.017   .     S
O343   Zn351   1.966   .     S
O343   C353    1.271   .     S
O344   Zn352   1.984   .     S
O345   Zn351   1.974   .     S
O345   C356    1.296   .     S
O346   Zn352   1.933   .     S
O347   Zn351   1.984   .     S
O348   Zn352   1.966   .     S
O349   Zn351   1.933   .     S
O350   Zn352   1.974   .     S
C353   O388    1.290   .     A
C353   C355    1.396   .     S
C354   C356    1.456   .     S
C354   C366    1.410   .     A
C354   C362    1.398   .     A
C355   C49     1.353   1_565 S
C355   Cl112   1.773   1_565 S
C356   O390    1.294   .     A
C357   C358    1.401   .     S
C357   C135    1.353   1_655 S
C358   O391    1.290   .     A
C358   O304    1.273   1_655 S
C359   O393    1.301   .     A
C359   C361    1.449   .     S
C359   O306    1.285   1_655 S
C360   C368    1.402   .     A
C360   H378    1.080   .     S
C360   C768    1.387   .     S
C361   C372    1.412   .     A
C361   C371    1.389   .     A
C362   C363    1.386   .     A
C363   C761    1.395   .     S
C363   H777    1.083   .     S
C364   C366    1.410   .     A
C364   C761    1.432   .     S
C364   C763    1.416   .     S
C365   Cl375   1.768   .     S
C365   C759    1.395   1_554 S
C365   C760    1.432   1_554 S
C366   C370    1.415   .     A
C367   C371    1.384   .     A
C367   C760    1.416   1_554 S
C367   C764    1.421   1_554 S
C368   C369    1.395   .     A
C368   C763    1.421   .     S
C369   C370    1.386   .     A
C369   I384    2.130   .     S
C370   H382    1.081   .     S
C371   H379    1.078   .     S
C372   C756    1.387   1_554 S
C372   I295    2.133   1_655 S
Cl373  C93     1.782   1_565 S
Cl374  N386    1.724   .     S
H377   N385    1.029   .     S
H380   C274    1.084   1_655 S
H381   C759    1.083   1_554 S
N385   N386    1.299   .     D
N385   Zn396   2.017   .     S
N386   Zn395   2.017   .     S
O387   Zn395   1.966   .     S
O387   C265    1.271   1_655 S
O388   Zn396   1.984   .     S
O389   Zn395   1.974   .     S
O389   C268    1.296   1_655 S
O390   Zn396   1.933   .     S
O391   Zn395   1.984   .     S
O392   Zn396   1.966   .     S
O393   Zn395   1.933   .     S
O394   Zn396   1.974   .     S
C397   O432    1.290   .     A
C397   C399    1.396   .     S
C397   O519    1.271   1_455 S
C398   C400    1.456   .     S
C398   C410    1.410   .     A
C398   C406    1.398   .     A
C399   C621    1.353   1_455 S
C399   Cl552   1.773   .     S
C400   O434    1.294   .     A
C400   O521    1.296   1_455 S
C401   C402    1.401   .     S
C401   C707    1.353   1_545 S
C401   Cl681   1.782   1_545 S
C402   O435    1.290   .     A
C402   O480    1.273   .     S
C403   O437    1.301   .     A
C403   C405    1.449   .     S
C403   O482    1.285   .     S
C404   C412    1.402   .     A
C404   H422    1.080   .     S
C404   C20     1.387   1_556 S
C405   C416    1.412   .     A
C405   C415    1.389   .     A
C406   C407    1.386   .     A
C406   H512    1.084   1_455 S
C407   C13     1.395   1_556 S
C407   H29     1.083   1_556 S
C408   C410    1.410   .     A
C408   C13     1.432   1_556 S
C408   C15     1.416   1_556 S
C409   Cl419   1.768   .     S
C410   C414    1.415   .     A
C411   C415    1.384   .     A
C412   C413    1.395   .     A
C412   C15     1.421   1_556 S
C413   C414    1.386   .     A
C413   I428    2.130   .     S
C414   H426    1.081   .     S
C415   H423    1.078   .     S
C416   I471    2.133   .     S
Cl417  C533    1.782   .     S
Cl418  N430    1.724   .     S
Cl420  C663    1.773   1_545 S
H421   N429    1.029   .     S
H424   C450    1.084   .     S
I427   C504    2.133   1_455 S
N429   N430    1.299   .     D
N429   Zn440   2.017   .     S
N430   Zn439   2.017   .     S
O431   Zn439   1.966   .     S
O431   C441    1.271   .     S
O432   Zn440   1.984   .     S
O433   Zn439   1.974   .     S
O433   C444    1.296   .     S
O434   Zn440   1.933   .     S
O435   Zn439   1.984   .     S
O436   Zn440   1.966   .     S
O436   C490    1.273   1_455 S
O437   Zn439   1.933   .     S
O438   Zn440   1.974   .     S
O438   C491    1.285   1_455 S
C441   O476    1.290   .     A
C441   C443    1.396   .     S
C442   C444    1.456   .     S
C442   C454    1.410   .     A
C442   C450    1.398   .     A
C443   C533    1.353   .     S
C443   Cl596   1.773   .     S
C444   O478    1.294   .     A
C445   C446    1.401   .     S
C445   C751    1.353   1_545 S
C445   Cl725   1.782   1_545 S
C446   O479    1.290   .     A
C446   O524    1.273   .     S
C447   O481    1.301   .     A
C447   C449    1.449   .     S
C447   O526    1.285   .     S
C448   C456    1.402   .     A
C448   H466    1.080   .     S
C448   C64     1.387   1_556 S
C449   C460    1.412   .     A
C449   C459    1.389   .     A
C450   C451    1.386   .     A
C451   C57     1.395   1_556 S
C451   H73     1.083   1_556 S
C452   C454    1.410   .     A
C452   C57     1.432   1_556 S
C452   C59     1.416   1_556 S
C453   Cl463   1.768   .     S
C454   C458    1.415   .     A
C455   C459    1.384   .     A
C456   C457    1.395   .     A
C456   C59     1.421   1_556 S
C457   C458    1.386   .     A
C457   I472    2.130   .     S
C458   H470    1.081   .     S
C459   H467    1.078   .     S
C460   I515    2.133   .     S
Cl461  C577    1.782   .     S
Cl462  N474    1.724   .     S
Cl464  C707    1.773   1_545 S
H465   N473    1.029   .     S
H468   C494    1.084   .     S
N473   N474    1.299   .     D
N473   Zn484   2.017   .     S
N474   Zn483   2.017   .     S
O475   Zn483   1.966   .     S
O475   C485    1.271   .     S
O476   Zn484   1.984   .     S
O477   Zn483   1.974   .     S
O477   C488    1.296   .     S
O478   Zn484   1.933   .     S
O479   Zn483   1.984   .     S
O480   Zn484   1.966   .     S
O481   Zn483   1.933   .     S
O482   Zn484   1.974   .     S
C485   O520    1.290   .     A
C485   C487    1.396   .     S
C486   C488    1.456   .     S
C486   C498    1.410   .     A
C486   C494    1.398   .     A
C487   C577    1.353   .     S
C487   Cl640   1.773   .     S
C488   O522    1.294   .     A
C489   C490    1.401   .     S
C489   C663    1.353   1_645 S
C489   Cl769   1.782   1_545 S
C490   O523    1.290   .     A
C490   O436    1.273   1_655 S
C491   O525    1.301   .     A
C491   C493    1.449   .     S
C491   O438    1.285   1_655 S
C492   C500    1.402   .     A
C492   H510    1.080   .     S
C492   C108    1.387   1_556 S
C493   C504    1.412   .     A
C493   C503    1.389   .     A
C494   C495    1.386   .     A
C495   C101    1.395   1_556 S
C495   H117    1.083   1_556 S
C496   C498    1.410   .     A
C496   C101    1.432   1_556 S
C496   C103    1.416   1_556 S
C497   Cl507   1.768   .     S
C498   C502    1.415   .     A
C499   C503    1.384   .     A
C500   C501    1.395   .     A
C500   C103    1.421   1_556 S
C501   C502    1.386   .     A
C501   I516    2.130   .     S
C502   H514    1.081   .     S
C503   H511    1.078   .     S
C504   I427    2.133   1_655 S
Cl505  C621    1.782   .     S
Cl506  N518    1.724   .     S
Cl508  C751    1.773   1_545 S
H509   N517    1.029   .     S
H512   C406    1.084   1_655 S
N517   N518    1.299   .     D
N517   Zn528   2.017   .     S
N518   Zn527   2.017   .     S
O519   Zn527   1.966   .     S
O519   C397    1.271   1_655 S
O520   Zn528   1.984   .     S
O521   Zn527   1.974   .     S
O521   C400    1.296   1_655 S
O522   Zn528   1.933   .     S
O523   Zn527   1.984   .     S
O524   Zn528   1.966   .     S
O525   Zn527   1.933   .     S
O526   Zn528   1.974   .     S
C529   O564    1.290   .     A
C529   C531    1.396   .     S
C529   O651    1.271   1_455 S
C530   C532    1.456   .     S
C530   C542    1.410   .     A
C530   C538    1.398   .     A
C531   C753    1.353   1_455 S
C531   Cl684   1.773   .     S
C532   O566    1.294   .     A
C532   O653    1.296   1_455 S
C533   C534    1.401   .     S
C534   O567    1.290   .     A
C534   O612    1.273   .     S
C535   O569    1.301   .     A
C535   C537    1.449   .     S
C535   O614    1.285   .     S
C536   C544    1.402   .     A
C536   H554    1.080   .     S
C536   C152    1.387   1_556 S
C537   C548    1.412   .     A
C537   C547    1.389   .     A
C538   C539    1.386   .     A
C538   H644    1.084   1_455 S
C539   C145    1.395   1_556 S
C539   H161    1.083   1_556 S
C540   C542    1.410   .     A
C540   C145    1.432   1_556 S
C540   C147    1.416   1_556 S
C541   Cl551   1.768   .     S
C542   C546    1.415   .     A
C543   C547    1.384   .     A
C544   C545    1.395   .     A
C544   C147    1.421   1_556 S
C545   C546    1.386   .     A
C545   I560    2.130   .     S
C546   H558    1.081   .     S
C547   H555    1.078   .     S
C548   I603    2.133   .     S
Cl549  C665    1.782   .     S
Cl550  N562    1.724   .     S
H553   N561    1.029   .     S
H556   C582    1.084   .     S
I559   C636    2.133   1_455 S
N561   N562    1.299   .     D
N561   Zn572   2.017   .     S
N562   Zn571   2.017   .     S
O563   Zn571   1.966   .     S
O563   C573    1.271   .     S
O564   Zn572   1.984   .     S
O565   Zn571   1.974   .     S
O565   C576    1.296   .     S
O566   Zn572   1.933   .     S
O567   Zn571   1.984   .     S
O568   Zn572   1.966   .     S
O568   C622    1.273   1_455 S
O569   Zn571   1.933   .     S
O570   Zn572   1.974   .     S
O570   C623    1.285   1_455 S
C573   O608    1.290   .     A
C573   C575    1.396   .     S
C574   C576    1.456   .     S
C574   C586    1.410   .     A
C574   C582    1.398   .     A
C575   C665    1.353   .     S
C575   Cl728   1.773   .     S
C576   O610    1.294   .     A
C577   C578    1.401   .     S
C578   O611    1.290   .     A
C578   O656    1.273   .     S
C579   O613    1.301   .     A
C579   C581    1.449   .     S
C579   O658    1.285   .     S
C580   C588    1.402   .     A
C580   H598    1.080   .     S
C580   C196    1.387   1_556 S
C581   C592    1.412   .     A
C581   C591    1.389   .     A
C582   C583    1.386   .     A
C583   C189    1.395   1_556 S
C583   H205    1.083   1_556 S
C584   C586    1.410   .     A
C584   C189    1.432   1_556 S
C584   C191    1.416   1_556 S
C585   Cl595   1.768   .     S
C586   C590    1.415   .     A
C587   C591    1.384   .     A
C588   C589    1.395   .     A
C588   C191    1.421   1_556 S
C589   C590    1.386   .     A
C589   I604    2.130   .     S
C590   H602    1.081   .     S
C591   H599    1.078   .     S
C592   I647    2.133   .     S
Cl593  C709    1.782   .     S
Cl594  N606    1.724   .     S
H597   N605    1.029   .     S
H600   C626    1.084   .     S
N605   N606    1.299   .     D
N605   Zn616   2.017   .     S
N606   Zn615   2.017   .     S
O607   Zn615   1.966   .     S
O607   C617    1.271   .     S
O608   Zn616   1.984   .     S
O609   Zn615   1.974   .     S
O609   C620    1.296   .     S
O610   Zn616   1.933   .     S
O611   Zn615   1.984   .     S
O612   Zn616   1.966   .     S
O613   Zn615   1.933   .     S
O614   Zn616   1.974   .     S
C617   O652    1.290   .     A
C617   C619    1.396   .     S
C618   C620    1.456   .     S
C618   C630    1.410   .     A
C618   C626    1.398   .     A
C619   C709    1.353   .     S
C619   Cl772   1.773   .     S
C620   O654    1.294   .     A
C621   C622    1.401   .     S
C621   C399    1.353   1_655 S
C622   O655    1.290   .     A
C622   O568    1.273   1_655 S
C623   O657    1.301   .     A
C623   C625    1.449   .     S
C623   O570    1.285   1_655 S
C624   C632    1.402   .     A
C624   H642    1.080   .     S
C624   C240    1.387   1_556 S
C625   C636    1.412   .     A
C625   C635    1.389   .     A
C626   C627    1.386   .     A
C627   C233    1.395   1_556 S
C627   H249    1.083   1_556 S
C628   C630    1.410   .     A
C628   C233    1.432   1_556 S
C628   C235    1.416   1_556 S
C629   Cl639   1.768   .     S
C630   C634    1.415   .     A
C631   C635    1.384   .     A
C632   C633    1.395   .     A
C632   C235    1.421   1_556 S
C633   C634    1.386   .     A
C633   I648    2.130   .     S
C634   H646    1.081   .     S
C635   H643    1.078   .     S
C636   I559    2.133   1_655 S
Cl637  C753    1.782   .     S
Cl638  N650    1.724   .     S
H641   N649    1.029   .     S
H644   C538    1.084   1_655 S
N649   N650    1.299   .     D
N649   Zn660   2.017   .     S
N650   Zn659   2.017   .     S
O651   Zn659   1.966   .     S
O651   C529    1.271   1_655 S
O652   Zn660   1.984   .     S
O653   Zn659   1.974   .     S
O653   C532    1.296   1_655 S
O654   Zn660   1.933   .     S
O655   Zn659   1.984   .     S
O656   Zn660   1.966   .     S
O657   Zn659   1.933   .     S
O658   Zn660   1.974   .     S
C661   O696    1.290   .     A
C661   C663    1.396   .     S
C661   O783    1.271   1_455 S
C662   C664    1.456   .     S
C662   C674    1.410   .     A
C662   C670    1.398   .     A
C663   C489    1.353   1_465 S
C663   Cl420   1.773   1_565 S
C664   O698    1.294   .     A
C664   O785    1.296   1_455 S
C665   C666    1.401   .     S
C666   O699    1.290   .     A
C666   O744    1.273   .     S
C667   O701    1.301   .     A
C667   C669    1.449   .     S
C667   O746    1.285   .     S
C668   C676    1.402   .     A
C668   H686    1.080   .     S
C668   C284    1.387   1_556 S
C669   C680    1.412   .     A
C669   C679    1.389   .     A
C670   C671    1.386   .     A
C670   H776    1.084   1_455 S
C671   C277    1.395   1_556 S
C671   H293    1.083   1_556 S
C672   C674    1.410   .     A
C672   C277    1.432   1_556 S
C672   C279    1.416   1_556 S
C673   Cl683   1.768   .     S
C674   C678    1.415   .     A
C675   C679    1.384   .     A
C676   C677    1.395   .     A
C676   C279    1.421   1_556 S
C677   C678    1.386   .     A
C677   I692    2.130   .     S
C678   H690    1.081   .     S
C679   H687    1.078   .     S
C680   I735    2.133   .     S
Cl681  C401    1.782   1_565 S
Cl682  N694    1.724   .     S
H685   N693    1.029   .     S
H688   C714    1.084   .     S
I691   C768    2.133   1_455 S
N693   N694    1.299   .     D
N693   Zn704   2.017   .     S
N694   Zn703   2.017   .     S
O695   Zn703   1.966   .     S
O695   C705    1.271   .     S
O696   Zn704   1.984   .     S
O697   Zn703   1.974   .     S
O697   C708    1.296   .     S
O698   Zn704   1.933   .     S
O699   Zn703   1.984   .     S
O700   Zn704   1.966   .     S
O700   C754    1.273   1_455 S
O701   Zn703   1.933   .     S
O702   Zn704   1.974   .     S
O702   C755    1.285   1_455 S
C705   O740    1.290   .     A
C705   C707    1.396   .     S
C706   C708    1.456   .     S
C706   C718    1.410   .     A
C706   C714    1.398   .     A
C707   C401    1.353   1_565 S
C707   Cl464   1.773   1_565 S
C708   O742    1.294   .     A
C709   C710    1.401   .     S
C710   O743    1.290   .     A
C710   O788    1.273   .     S
C711   O745    1.301   .     A
C711   C713    1.449   .     S
C711   O790    1.285   .     S
C712   C720    1.402   .     A
C712   H730    1.080   .     S
C712   C328    1.387   1_556 S
C713   C724    1.412   .     A
C713   C723    1.389   .     A
C714   C715    1.386   .     A
C715   C321    1.395   1_556 S
C715   H337    1.083   1_556 S
C716   C718    1.410   .     A
C716   C321    1.432   1_556 S
C716   C323    1.416   1_556 S
C717   Cl727   1.768   .     S
C718   C722    1.415   .     A
C719   C723    1.384   .     A
C720   C721    1.395   .     A
C720   C323    1.421   1_556 S
C721   C722    1.386   .     A
C721   I736    2.130   .     S
C722   H734    1.081   .     S
C723   H731    1.078   .     S
C724   I779    2.133   .     S
Cl725  C445    1.782   1_565 S
Cl726  N738    1.724   .     S
H729   N737    1.029   .     S
H732   C758    1.084   .     S
N737   N738    1.299   .     D
N737   Zn748   2.017   .     S
N738   Zn747   2.017   .     S
O739   Zn747   1.966   .     S
O739   C749    1.271   .     S
O740   Zn748   1.984   .     S
O741   Zn747   1.974   .     S
O741   C752    1.296   .     S
O742   Zn748   1.933   .     S
O743   Zn747   1.984   .     S
O744   Zn748   1.966   .     S
O745   Zn747   1.933   .     S
O746   Zn748   1.974   .     S
C749   O784    1.290   .     A
C749   C751    1.396   .     S
C750   C752    1.456   .     S
C750   C762    1.410   .     A
C750   C758    1.398   .     A
C751   C445    1.353   1_565 S
C751   Cl508   1.773   1_565 S
C752   O786    1.294   .     A
C753   C754    1.401   .     S
C753   C531    1.353   1_655 S
C754   O787    1.290   .     A
C754   O700    1.273   1_655 S
C755   O789    1.301   .     A
C755   C757    1.449   .     S
C755   O702    1.285   1_655 S
C756   C764    1.402   .     A
C756   H774    1.080   .     S
C756   C372    1.387   1_556 S
C757   C768    1.412   .     A
C757   C767    1.389   .     A
C758   C759    1.386   .     A
C759   C365    1.395   1_556 S
C759   H381    1.083   1_556 S
C760   C762    1.410   .     A
C760   C365    1.432   1_556 S
C760   C367    1.416   1_556 S
C761   Cl771   1.768   .     S
C762   C766    1.415   .     A
C763   C767    1.384   .     A
C764   C765    1.395   .     A
C764   C367    1.421   1_556 S
C765   C766    1.386   .     A
C765   I780    2.130   .     S
C766   H778    1.081   .     S
C767   H775    1.078   .     S
C768   I691    2.133   1_655 S
Cl769  C489    1.782   1_565 S
Cl770  N782    1.724   .     S
H773   N781    1.029   .     S
H776   C670    1.084   1_655 S
N781   N782    1.299   .     D
N781   Zn792   2.017   .     S
N782   Zn791   2.017   .     S
O783   Zn791   1.966   .     S
O783   C661    1.271   1_655 S
O784   Zn792   1.984   .     S
O785   Zn791   1.974   .     S
O785   C664    1.296   1_655 S
O786   Zn792   1.933   .     S
O787   Zn791   1.984   .     S
O788   Zn792   1.966   .     S
O789   Zn791   1.933   .     S
O790   Zn792   1.974   .     S
