data_str_m3_o1_o18_pcu_sym.232
_audit_creation_date              2020-01-03
_audit_creation_method            'Materials Studio'
_symmetry_space_group_name_H-M    'P1'
_symmetry_Int_Tables_number       1
_symmetry_cell_setting            triclinic
loop_
_symmetry_equiv_pos_as_xyz
  x,y,z
_cell_length_a                    29.5780
_cell_length_b                    32.1292
_cell_length_c                    30.8355
_cell_angle_alpha                 90.0171
_cell_angle_beta                  66.9928
_cell_angle_gamma                 90.0729
loop_
_atom_site_label
_atom_site_type_symbol
_atom_site_fract_x
_atom_site_fract_y
_atom_site_fract_z
_atom_site_U_iso_or_equiv
_atom_site_adp_type
_atom_site_occupancy
C1     C     0.16670   0.24669   0.24999   0.00000  Uiso   1.00
C2     C     0.16665   0.08665   0.24997   0.00000  Uiso   1.00
C3     C     0.10323   0.16581   0.05751   0.00000  Uiso   1.00
C4     C     0.20240   0.11058   0.45998   0.00000  Uiso   1.00
C5     C     0.06987   0.17329   0.03653   0.00000  Uiso   1.00
C6     C     0.23663   0.10387   0.48006   0.00000  Uiso   1.00
C7     C     0.20193   0.31208   0.26122   0.00000  Uiso   1.00
C8     C     0.13151   0.02127   0.23863   0.00000  Uiso   1.00
C9     C     0.20190   0.02139   0.26123   0.00000  Uiso   1.00
C10    C     0.13153   0.31196   0.23865   0.00000  Uiso   1.00
C11    C     0.16668   0.04250   0.24994   0.00000  Uiso   1.00
C12    C     0.16674   0.29085   0.24995   0.00000  Uiso   1.00
C13    C     0.31374   0.13139   0.23929   0.00000  Uiso   1.00
C14    C     0.01895   0.20156   0.26237   0.00000  Uiso   1.00
C15    C     0.02833   0.13145   0.23908   0.00000  Uiso   1.00
C16    C     0.30446   0.20158   0.26221   0.00000  Uiso   1.00
C17    C     0.13550   0.16660   0.33852   0.00000  Uiso   1.00
C18    C     0.19777   0.16522   0.16153   0.00000  Uiso   1.00
C19    C     0.11442   0.16510   0.39037   0.00000  Uiso   1.00
C20    C     0.21774   0.15650   0.11053   0.00000  Uiso   1.00
C21    C     0.05042   0.17756   0.46763   0.00000  Uiso   1.00
C22    C     0.26437   0.11324   0.04327   0.00000  Uiso   1.00
C23    C     0.06473   0.17472   0.41879   0.00000  Uiso   1.00
C24    C     0.25653   0.12792   0.08841   0.00000  Uiso   1.00
C25    C     0.14640   0.15457   0.41207   0.00000  Uiso   1.00
C26    C     0.18889   0.16938   0.08644   0.00000  Uiso   1.00
C27    C     0.13036   0.15197   0.46096   0.00000  Uiso   1.00
C28    C     0.18989   0.14783   0.04656   0.00000  Uiso   1.00
C29    C     0.08342   0.16765   0.48850   0.00000  Uiso   1.00
C30    C     0.23092   0.12230   0.02270   0.00000  Uiso   1.00
C31    C     0.16176   0.13782   0.48277   0.00000  Uiso   1.00
C32    C     0.15170   0.15122   0.02957   0.00000  Uiso   1.00
H33    H     0.29932   0.10311   0.23056   0.00000  Uiso   1.00
H34    H     0.03297   0.22955   0.27217   0.00000  Uiso   1.00
H35    H     0.04998   0.10329   0.22989   0.00000  Uiso   1.00
H36    H     0.28259   0.22959   0.27189   0.00000  Uiso   1.00
N37    N     0.04759   0.16668   0.25001   0.00000  Uiso   1.00
N38    N     0.28574   0.16666   0.24999   0.00000  Uiso   1.00
O39    O     0.12846   0.22775   0.25001   0.00000  Uiso   1.00
O40    O     0.20488   0.10558   0.25000   0.00000  Uiso   1.00
O41    O     0.20490   0.22774   0.25000   0.00000  Uiso   1.00
O42    O     0.12843   0.10559   0.25000   0.00000  Uiso   1.00
O43    O     0.10661   0.16667   0.31613   0.00000  Uiso   1.00
O44    O     0.22672   0.16666   0.18388   0.00000  Uiso   1.00
O45    O     0.18305   0.16666   0.31612   0.00000  Uiso   1.00
O46    O     0.15028   0.16667   0.18388   0.00000  Uiso   1.00
Zn47   Zn    0.11562   0.16667   0.25000   0.00000  Uiso   1.00
Zn48   Zn    0.21771   0.16666   0.25000   0.00000  Uiso   1.00
H49    H     0.03303   0.18398   0.05781   0.00000  Uiso   1.00
H50    H     0.26706   0.08271   0.46323   0.00000  Uiso   1.00
H51    H     0.16315   0.19442   0.10141   0.00000  Uiso   1.00
H52    H     0.18477   0.14949   0.39050   0.00000  Uiso   1.00
C53    C     0.28694   0.10976   0.11188   0.00000  Uiso   1.00
O54    O     0.29236   0.07201   0.11169   0.00000  Uiso   1.00
O55    O     0.31133   0.13542   0.13212   0.00000  Uiso   1.00
H56    H     0.33177   0.11879   0.14568   0.00000  Uiso   1.00
C57    C     0.02696   0.18282   0.39957   0.00000  Uiso   1.00
O58    O     0.00507   0.21602   0.40761   0.00000  Uiso   1.00
O59    O     0.01439   0.15165   0.37463   0.00000  Uiso   1.00
H60    H     0.32065   0.16057   0.36422   0.00000  Uiso   1.00
H61    H     0.01330   0.18724   0.48947   0.00000  Uiso   1.00
H62    H     0.29484   0.09234   0.02553   0.00000  Uiso   1.00
C63    C     0.08265   0.16822   0.10942   0.00000  Uiso   1.00
O64    O     0.08984   0.14004   0.13258   0.00000  Uiso   1.00
O65    O     0.05351   0.20227   0.13178   0.00000  Uiso   1.00
H66    H     0.04128   0.20058   0.16724   0.00000  Uiso   1.00
C67    C     0.20652   0.08312   0.41979   0.00000  Uiso   1.00
O68    O     0.16966   0.06795   0.41730   0.00000  Uiso   1.00
O69    O     0.25283   0.07357   0.38554   0.00000  Uiso   1.00
H70    H     0.25091   0.05458   0.36004   0.00000  Uiso   1.00
H71    H     0.22908   0.29587   0.27037   0.00000  Uiso   1.00
H72    H     0.10437   0.03749   0.22947   0.00000  Uiso   1.00
H73    H     0.22902   0.03771   0.27041   0.00000  Uiso   1.00
H74    H     0.10438   0.29565   0.22952   0.00000  Uiso   1.00
C75    C     0.50004   0.24669   0.24999   0.00000  Uiso   1.00
C76    C     0.49999   0.08665   0.24997   0.00000  Uiso   1.00
C77    C     0.43656   0.16581   0.05751   0.00000  Uiso   1.00
C78    C     0.53574   0.11058   0.45998   0.00000  Uiso   1.00
C79    C     0.40321   0.17329   0.03653   0.00000  Uiso   1.00
C80    C     0.56996   0.10387   0.48006   0.00000  Uiso   1.00
C81    C     0.53527   0.31208   0.26122   0.00000  Uiso   1.00
C82    C     0.46484   0.02127   0.23863   0.00000  Uiso   1.00
C83    C     0.53523   0.02139   0.26123   0.00000  Uiso   1.00
C84    C     0.46486   0.31196   0.23865   0.00000  Uiso   1.00
C85    C     0.50001   0.04250   0.24994   0.00000  Uiso   1.00
C86    C     0.50007   0.29085   0.24995   0.00000  Uiso   1.00
C87    C     0.64707   0.13139   0.23929   0.00000  Uiso   1.00
C88    C     0.35228   0.20156   0.26237   0.00000  Uiso   1.00
C89    C     0.36167   0.13145   0.23908   0.00000  Uiso   1.00
C90    C     0.63780   0.20158   0.26221   0.00000  Uiso   1.00
C91    C     0.46883   0.16660   0.33852   0.00000  Uiso   1.00
C92    C     0.53110   0.16522   0.16153   0.00000  Uiso   1.00
C93    C     0.44775   0.16510   0.39037   0.00000  Uiso   1.00
C94    C     0.55107   0.15650   0.11053   0.00000  Uiso   1.00
C95    C     0.38375   0.17756   0.46763   0.00000  Uiso   1.00
C96    C     0.59770   0.11324   0.04327   0.00000  Uiso   1.00
C97    C     0.39806   0.17472   0.41879   0.00000  Uiso   1.00
C98    C     0.58986   0.12792   0.08841   0.00000  Uiso   1.00
C99    C     0.47973   0.15457   0.41207   0.00000  Uiso   1.00
C100   C     0.52222   0.16938   0.08644   0.00000  Uiso   1.00
C101   C     0.46369   0.15197   0.46096   0.00000  Uiso   1.00
C102   C     0.52323   0.14783   0.04656   0.00000  Uiso   1.00
C103   C     0.41675   0.16765   0.48850   0.00000  Uiso   1.00
C104   C     0.56425   0.12230   0.02270   0.00000  Uiso   1.00
C105   C     0.49510   0.13782   0.48277   0.00000  Uiso   1.00
C106   C     0.48503   0.15122   0.02957   0.00000  Uiso   1.00
H107   H     0.63266   0.10311   0.23056   0.00000  Uiso   1.00
H108   H     0.36630   0.22955   0.27217   0.00000  Uiso   1.00
H109   H     0.38332   0.10329   0.22989   0.00000  Uiso   1.00
H110   H     0.61592   0.22959   0.27189   0.00000  Uiso   1.00
N111   N     0.38093   0.16668   0.25001   0.00000  Uiso   1.00
N112   N     0.61907   0.16666   0.24999   0.00000  Uiso   1.00
O113   O     0.46179   0.22775   0.25001   0.00000  Uiso   1.00
O114   O     0.53821   0.10558   0.25000   0.00000  Uiso   1.00
O115   O     0.53823   0.22774   0.25000   0.00000  Uiso   1.00
O116   O     0.46177   0.10559   0.25000   0.00000  Uiso   1.00
O117   O     0.43994   0.16667   0.31613   0.00000  Uiso   1.00
O118   O     0.56006   0.16666   0.18388   0.00000  Uiso   1.00
O119   O     0.51639   0.16666   0.31612   0.00000  Uiso   1.00
O120   O     0.48361   0.16667   0.18388   0.00000  Uiso   1.00
Zn121  Zn    0.44896   0.16667   0.25000   0.00000  Uiso   1.00
Zn122  Zn    0.55104   0.16666   0.25000   0.00000  Uiso   1.00
H123   H     0.36637   0.18398   0.05781   0.00000  Uiso   1.00
H124   H     0.60039   0.08271   0.46323   0.00000  Uiso   1.00
H125   H     0.49649   0.19442   0.10141   0.00000  Uiso   1.00
H126   H     0.51811   0.14949   0.39050   0.00000  Uiso   1.00
C127   C     0.62027   0.10976   0.11188   0.00000  Uiso   1.00
O128   O     0.62570   0.07201   0.11169   0.00000  Uiso   1.00
O129   O     0.64467   0.13542   0.13212   0.00000  Uiso   1.00
H130   H     0.66510   0.11879   0.14568   0.00000  Uiso   1.00
C131   C     0.36029   0.18282   0.39957   0.00000  Uiso   1.00
O132   O     0.33840   0.21602   0.40761   0.00000  Uiso   1.00
O133   O     0.34772   0.15165   0.37463   0.00000  Uiso   1.00
H134   H     0.65399   0.16057   0.36422   0.00000  Uiso   1.00
H135   H     0.34663   0.18724   0.48947   0.00000  Uiso   1.00
H136   H     0.62817   0.09234   0.02553   0.00000  Uiso   1.00
C137   C     0.41599   0.16822   0.10942   0.00000  Uiso   1.00
O138   O     0.42317   0.14004   0.13258   0.00000  Uiso   1.00
O139   O     0.38684   0.20227   0.13178   0.00000  Uiso   1.00
H140   H     0.37462   0.20058   0.16724   0.00000  Uiso   1.00
C141   C     0.53986   0.08312   0.41979   0.00000  Uiso   1.00
O142   O     0.50300   0.06795   0.41730   0.00000  Uiso   1.00
O143   O     0.58616   0.07357   0.38554   0.00000  Uiso   1.00
H144   H     0.58425   0.05458   0.36004   0.00000  Uiso   1.00
H145   H     0.56241   0.29587   0.27037   0.00000  Uiso   1.00
H146   H     0.43771   0.03749   0.22947   0.00000  Uiso   1.00
H147   H     0.56235   0.03771   0.27041   0.00000  Uiso   1.00
H148   H     0.43771   0.29565   0.22952   0.00000  Uiso   1.00
C149   C     0.83337   0.24669   0.24999   0.00000  Uiso   1.00
C150   C     0.83332   0.08665   0.24997   0.00000  Uiso   1.00
C151   C     0.76990   0.16581   0.05751   0.00000  Uiso   1.00
C152   C     0.86907   0.11058   0.45998   0.00000  Uiso   1.00
C153   C     0.73654   0.17329   0.03653   0.00000  Uiso   1.00
C154   C     0.90330   0.10387   0.48006   0.00000  Uiso   1.00
C155   C     0.86860   0.31208   0.26122   0.00000  Uiso   1.00
C156   C     0.79818   0.02127   0.23863   0.00000  Uiso   1.00
C157   C     0.86856   0.02139   0.26123   0.00000  Uiso   1.00
C158   C     0.79819   0.31196   0.23865   0.00000  Uiso   1.00
C159   C     0.83334   0.04250   0.24994   0.00000  Uiso   1.00
C160   C     0.83340   0.29085   0.24995   0.00000  Uiso   1.00
C161   C     0.98041   0.13139   0.23929   0.00000  Uiso   1.00
C162   C     0.68562   0.20156   0.26237   0.00000  Uiso   1.00
C163   C     0.69500   0.13145   0.23908   0.00000  Uiso   1.00
C164   C     0.97113   0.20158   0.26221   0.00000  Uiso   1.00
C165   C     0.80217   0.16660   0.33852   0.00000  Uiso   1.00
C166   C     0.86443   0.16522   0.16153   0.00000  Uiso   1.00
C167   C     0.78109   0.16510   0.39037   0.00000  Uiso   1.00
C168   C     0.88440   0.15650   0.11053   0.00000  Uiso   1.00
C169   C     0.71709   0.17756   0.46763   0.00000  Uiso   1.00
C170   C     0.93104   0.11324   0.04327   0.00000  Uiso   1.00
C171   C     0.73140   0.17472   0.41879   0.00000  Uiso   1.00
C172   C     0.92319   0.12792   0.08841   0.00000  Uiso   1.00
C173   C     0.81307   0.15457   0.41207   0.00000  Uiso   1.00
C174   C     0.85555   0.16938   0.08644   0.00000  Uiso   1.00
C175   C     0.79702   0.15197   0.46096   0.00000  Uiso   1.00
C176   C     0.85656   0.14783   0.04656   0.00000  Uiso   1.00
C177   C     0.75008   0.16765   0.48850   0.00000  Uiso   1.00
C178   C     0.89758   0.12230   0.02270   0.00000  Uiso   1.00
C179   C     0.82843   0.13782   0.48277   0.00000  Uiso   1.00
C180   C     0.81836   0.15122   0.02957   0.00000  Uiso   1.00
H181   H     0.96599   0.10311   0.23056   0.00000  Uiso   1.00
H182   H     0.69963   0.22955   0.27217   0.00000  Uiso   1.00
H183   H     0.71665   0.10329   0.22989   0.00000  Uiso   1.00
H184   H     0.94925   0.22959   0.27189   0.00000  Uiso   1.00
N185   N     0.71426   0.16668   0.25001   0.00000  Uiso   1.00
N186   N     0.95241   0.16666   0.24999   0.00000  Uiso   1.00
O187   O     0.79512   0.22775   0.25001   0.00000  Uiso   1.00
O188   O     0.87154   0.10558   0.25000   0.00000  Uiso   1.00
O189   O     0.87157   0.22774   0.25000   0.00000  Uiso   1.00
O190   O     0.79510   0.10559   0.25000   0.00000  Uiso   1.00
O191   O     0.77328   0.16667   0.31613   0.00000  Uiso   1.00
O192   O     0.89339   0.16666   0.18388   0.00000  Uiso   1.00
O193   O     0.84972   0.16666   0.31612   0.00000  Uiso   1.00
O194   O     0.81695   0.16667   0.18388   0.00000  Uiso   1.00
Zn195  Zn    0.78229   0.16667   0.25000   0.00000  Uiso   1.00
Zn196  Zn    0.88438   0.16666   0.25000   0.00000  Uiso   1.00
H197   H     0.69970   0.18398   0.05781   0.00000  Uiso   1.00
H198   H     0.93373   0.08271   0.46323   0.00000  Uiso   1.00
H199   H     0.82982   0.19442   0.10141   0.00000  Uiso   1.00
H200   H     0.85144   0.14949   0.39050   0.00000  Uiso   1.00
C201   C     0.95361   0.10976   0.11188   0.00000  Uiso   1.00
O202   O     0.95903   0.07201   0.11169   0.00000  Uiso   1.00
O203   O     0.97800   0.13542   0.13212   0.00000  Uiso   1.00
H204   H     0.99843   0.11879   0.14568   0.00000  Uiso   1.00
C205   C     0.69362   0.18282   0.39957   0.00000  Uiso   1.00
O206   O     0.67173   0.21602   0.40761   0.00000  Uiso   1.00
O207   O     0.68106   0.15165   0.37463   0.00000  Uiso   1.00
H208   H     0.98732   0.16057   0.36422   0.00000  Uiso   1.00
H209   H     0.67997   0.18724   0.48947   0.00000  Uiso   1.00
H210   H     0.96150   0.09234   0.02553   0.00000  Uiso   1.00
C211   C     0.74932   0.16822   0.10942   0.00000  Uiso   1.00
O212   O     0.75651   0.14004   0.13258   0.00000  Uiso   1.00
O213   O     0.72017   0.20227   0.13178   0.00000  Uiso   1.00
H214   H     0.70795   0.20058   0.16724   0.00000  Uiso   1.00
C215   C     0.87319   0.08312   0.41979   0.00000  Uiso   1.00
O216   O     0.83633   0.06795   0.41730   0.00000  Uiso   1.00
O217   O     0.91949   0.07357   0.38554   0.00000  Uiso   1.00
H218   H     0.91758   0.05458   0.36004   0.00000  Uiso   1.00
H219   H     0.89574   0.29587   0.27037   0.00000  Uiso   1.00
H220   H     0.77104   0.03749   0.22947   0.00000  Uiso   1.00
H221   H     0.89569   0.03771   0.27041   0.00000  Uiso   1.00
H222   H     0.77104   0.29565   0.22952   0.00000  Uiso   1.00
C223   C     0.16670   0.58002   0.24999   0.00000  Uiso   1.00
C224   C     0.16665   0.41998   0.24997   0.00000  Uiso   1.00
C225   C     0.10323   0.49914   0.05751   0.00000  Uiso   1.00
C226   C     0.20240   0.44391   0.45998   0.00000  Uiso   1.00
C227   C     0.06987   0.50663   0.03653   0.00000  Uiso   1.00
C228   C     0.23663   0.43720   0.48006   0.00000  Uiso   1.00
C229   C     0.20193   0.64542   0.26122   0.00000  Uiso   1.00
C230   C     0.13151   0.35461   0.23863   0.00000  Uiso   1.00
C231   C     0.20190   0.35473   0.26123   0.00000  Uiso   1.00
C232   C     0.13153   0.64530   0.23865   0.00000  Uiso   1.00
C233   C     0.16668   0.37583   0.24994   0.00000  Uiso   1.00
C234   C     0.16674   0.62418   0.24995   0.00000  Uiso   1.00
C235   C     0.31374   0.46473   0.23929   0.00000  Uiso   1.00
C236   C     0.01895   0.53489   0.26237   0.00000  Uiso   1.00
C237   C     0.02833   0.46478   0.23908   0.00000  Uiso   1.00
C238   C     0.30446   0.53492   0.26221   0.00000  Uiso   1.00
C239   C     0.13550   0.49993   0.33852   0.00000  Uiso   1.00
C240   C     0.19777   0.49856   0.16153   0.00000  Uiso   1.00
C241   C     0.11442   0.49843   0.39037   0.00000  Uiso   1.00
C242   C     0.21774   0.48983   0.11053   0.00000  Uiso   1.00
C243   C     0.05042   0.51089   0.46763   0.00000  Uiso   1.00
C244   C     0.26437   0.44657   0.04327   0.00000  Uiso   1.00
C245   C     0.06473   0.50805   0.41879   0.00000  Uiso   1.00
C246   C     0.25653   0.46125   0.08841   0.00000  Uiso   1.00
C247   C     0.14640   0.48790   0.41207   0.00000  Uiso   1.00
C248   C     0.18889   0.50271   0.08644   0.00000  Uiso   1.00
C249   C     0.13036   0.48531   0.46096   0.00000  Uiso   1.00
C250   C     0.18989   0.48117   0.04656   0.00000  Uiso   1.00
C251   C     0.08342   0.50099   0.48850   0.00000  Uiso   1.00
C252   C     0.23092   0.45563   0.02270   0.00000  Uiso   1.00
C253   C     0.16176   0.47116   0.48277   0.00000  Uiso   1.00
C254   C     0.15170   0.48455   0.02957   0.00000  Uiso   1.00
H255   H     0.29932   0.43644   0.23056   0.00000  Uiso   1.00
H256   H     0.03297   0.56288   0.27217   0.00000  Uiso   1.00
H257   H     0.04998   0.43663   0.22989   0.00000  Uiso   1.00
H258   H     0.28259   0.56293   0.27189   0.00000  Uiso   1.00
N259   N     0.04759   0.50001   0.25001   0.00000  Uiso   1.00
N260   N     0.28574   0.49999   0.24999   0.00000  Uiso   1.00
O261   O     0.12846   0.56108   0.25001   0.00000  Uiso   1.00
O262   O     0.20488   0.43892   0.25000   0.00000  Uiso   1.00
O263   O     0.20490   0.56107   0.25000   0.00000  Uiso   1.00
O264   O     0.12843   0.43893   0.25000   0.00000  Uiso   1.00
O265   O     0.10661   0.50001   0.31613   0.00000  Uiso   1.00
O266   O     0.22672   0.49999   0.18388   0.00000  Uiso   1.00
O267   O     0.18305   0.50000   0.31612   0.00000  Uiso   1.00
O268   O     0.15028   0.50000   0.18388   0.00000  Uiso   1.00
Zn269  Zn    0.11562   0.50001   0.25000   0.00000  Uiso   1.00
Zn270  Zn    0.21771   0.49999   0.25000   0.00000  Uiso   1.00
H271   H     0.03303   0.51731   0.05781   0.00000  Uiso   1.00
H272   H     0.26706   0.41604   0.46323   0.00000  Uiso   1.00
H273   H     0.16315   0.52776   0.10141   0.00000  Uiso   1.00
H274   H     0.18477   0.48282   0.39050   0.00000  Uiso   1.00
C275   C     0.28694   0.44309   0.11188   0.00000  Uiso   1.00
O276   O     0.29236   0.40534   0.11169   0.00000  Uiso   1.00
O277   O     0.31133   0.46876   0.13212   0.00000  Uiso   1.00
H278   H     0.33177   0.45212   0.14568   0.00000  Uiso   1.00
C279   C     0.02696   0.51616   0.39957   0.00000  Uiso   1.00
O280   O     0.00507   0.54936   0.40761   0.00000  Uiso   1.00
O281   O     0.01439   0.48498   0.37463   0.00000  Uiso   1.00
H282   H     0.32065   0.49390   0.36422   0.00000  Uiso   1.00
H283   H     0.01330   0.52057   0.48947   0.00000  Uiso   1.00
H284   H     0.29484   0.42568   0.02553   0.00000  Uiso   1.00
C285   C     0.08265   0.50156   0.10942   0.00000  Uiso   1.00
O286   O     0.08984   0.47337   0.13258   0.00000  Uiso   1.00
O287   O     0.05351   0.53560   0.13178   0.00000  Uiso   1.00
H288   H     0.04128   0.53392   0.16724   0.00000  Uiso   1.00
C289   C     0.20652   0.41645   0.41979   0.00000  Uiso   1.00
O290   O     0.16966   0.40129   0.41730   0.00000  Uiso   1.00
O291   O     0.25283   0.40691   0.38554   0.00000  Uiso   1.00
H292   H     0.25091   0.38791   0.36004   0.00000  Uiso   1.00
H293   H     0.22908   0.62920   0.27037   0.00000  Uiso   1.00
H294   H     0.10437   0.37082   0.22947   0.00000  Uiso   1.00
H295   H     0.22902   0.37104   0.27041   0.00000  Uiso   1.00
H296   H     0.10438   0.62898   0.22952   0.00000  Uiso   1.00
C297   C     0.50004   0.58002   0.24999   0.00000  Uiso   1.00
C298   C     0.49999   0.41998   0.24997   0.00000  Uiso   1.00
C299   C     0.43656   0.49914   0.05751   0.00000  Uiso   1.00
C300   C     0.53574   0.44391   0.45998   0.00000  Uiso   1.00
C301   C     0.40321   0.50663   0.03653   0.00000  Uiso   1.00
C302   C     0.56996   0.43720   0.48006   0.00000  Uiso   1.00
C303   C     0.53527   0.64542   0.26122   0.00000  Uiso   1.00
C304   C     0.46484   0.35461   0.23863   0.00000  Uiso   1.00
C305   C     0.53523   0.35473   0.26123   0.00000  Uiso   1.00
C306   C     0.46486   0.64530   0.23865   0.00000  Uiso   1.00
C307   C     0.50001   0.37583   0.24994   0.00000  Uiso   1.00
C308   C     0.50007   0.62418   0.24995   0.00000  Uiso   1.00
C309   C     0.64707   0.46473   0.23929   0.00000  Uiso   1.00
C310   C     0.35228   0.53489   0.26237   0.00000  Uiso   1.00
C311   C     0.36167   0.46478   0.23908   0.00000  Uiso   1.00
C312   C     0.63780   0.53492   0.26221   0.00000  Uiso   1.00
C313   C     0.46883   0.49993   0.33852   0.00000  Uiso   1.00
C314   C     0.53110   0.49856   0.16153   0.00000  Uiso   1.00
C315   C     0.44775   0.49843   0.39037   0.00000  Uiso   1.00
C316   C     0.55107   0.48983   0.11053   0.00000  Uiso   1.00
C317   C     0.38375   0.51089   0.46763   0.00000  Uiso   1.00
C318   C     0.59770   0.44657   0.04327   0.00000  Uiso   1.00
C319   C     0.39806   0.50805   0.41879   0.00000  Uiso   1.00
C320   C     0.58986   0.46125   0.08841   0.00000  Uiso   1.00
C321   C     0.47973   0.48790   0.41207   0.00000  Uiso   1.00
C322   C     0.52222   0.50271   0.08644   0.00000  Uiso   1.00
C323   C     0.46369   0.48531   0.46096   0.00000  Uiso   1.00
C324   C     0.52323   0.48117   0.04656   0.00000  Uiso   1.00
C325   C     0.41675   0.50099   0.48850   0.00000  Uiso   1.00
C326   C     0.56425   0.45563   0.02270   0.00000  Uiso   1.00
C327   C     0.49510   0.47116   0.48277   0.00000  Uiso   1.00
C328   C     0.48503   0.48455   0.02957   0.00000  Uiso   1.00
H329   H     0.63266   0.43644   0.23056   0.00000  Uiso   1.00
H330   H     0.36630   0.56288   0.27217   0.00000  Uiso   1.00
H331   H     0.38332   0.43663   0.22989   0.00000  Uiso   1.00
H332   H     0.61592   0.56293   0.27189   0.00000  Uiso   1.00
N333   N     0.38093   0.50001   0.25001   0.00000  Uiso   1.00
N334   N     0.61907   0.49999   0.24999   0.00000  Uiso   1.00
O335   O     0.46179   0.56108   0.25001   0.00000  Uiso   1.00
O336   O     0.53821   0.43892   0.25000   0.00000  Uiso   1.00
O337   O     0.53823   0.56107   0.25000   0.00000  Uiso   1.00
O338   O     0.46177   0.43893   0.25000   0.00000  Uiso   1.00
O339   O     0.43994   0.50001   0.31613   0.00000  Uiso   1.00
O340   O     0.56006   0.49999   0.18388   0.00000  Uiso   1.00
O341   O     0.51639   0.50000   0.31612   0.00000  Uiso   1.00
O342   O     0.48361   0.50000   0.18388   0.00000  Uiso   1.00
Zn343  Zn    0.44896   0.50001   0.25000   0.00000  Uiso   1.00
Zn344  Zn    0.55104   0.49999   0.25000   0.00000  Uiso   1.00
H345   H     0.36637   0.51731   0.05781   0.00000  Uiso   1.00
H346   H     0.60039   0.41604   0.46323   0.00000  Uiso   1.00
H347   H     0.49649   0.52776   0.10141   0.00000  Uiso   1.00
H348   H     0.51811   0.48282   0.39050   0.00000  Uiso   1.00
C349   C     0.62027   0.44309   0.11188   0.00000  Uiso   1.00
O350   O     0.62570   0.40534   0.11169   0.00000  Uiso   1.00
O351   O     0.64467   0.46876   0.13212   0.00000  Uiso   1.00
H352   H     0.66510   0.45212   0.14568   0.00000  Uiso   1.00
C353   C     0.36029   0.51616   0.39957   0.00000  Uiso   1.00
O354   O     0.33840   0.54936   0.40761   0.00000  Uiso   1.00
O355   O     0.34772   0.48498   0.37463   0.00000  Uiso   1.00
H356   H     0.65399   0.49390   0.36422   0.00000  Uiso   1.00
H357   H     0.34663   0.52057   0.48947   0.00000  Uiso   1.00
H358   H     0.62817   0.42568   0.02553   0.00000  Uiso   1.00
C359   C     0.41599   0.50156   0.10942   0.00000  Uiso   1.00
O360   O     0.42317   0.47337   0.13258   0.00000  Uiso   1.00
O361   O     0.38684   0.53560   0.13178   0.00000  Uiso   1.00
H362   H     0.37462   0.53392   0.16724   0.00000  Uiso   1.00
C363   C     0.53986   0.41645   0.41979   0.00000  Uiso   1.00
O364   O     0.50300   0.40129   0.41730   0.00000  Uiso   1.00
O365   O     0.58616   0.40691   0.38554   0.00000  Uiso   1.00
H366   H     0.58425   0.38791   0.36004   0.00000  Uiso   1.00
H367   H     0.56241   0.62920   0.27037   0.00000  Uiso   1.00
H368   H     0.43771   0.37082   0.22947   0.00000  Uiso   1.00
H369   H     0.56235   0.37104   0.27041   0.00000  Uiso   1.00
H370   H     0.43771   0.62898   0.22952   0.00000  Uiso   1.00
C371   C     0.83337   0.58002   0.24999   0.00000  Uiso   1.00
C372   C     0.83332   0.41998   0.24997   0.00000  Uiso   1.00
C373   C     0.76990   0.49914   0.05751   0.00000  Uiso   1.00
C374   C     0.86907   0.44391   0.45998   0.00000  Uiso   1.00
C375   C     0.73654   0.50663   0.03653   0.00000  Uiso   1.00
C376   C     0.90330   0.43720   0.48006   0.00000  Uiso   1.00
C377   C     0.86860   0.64542   0.26122   0.00000  Uiso   1.00
C378   C     0.79818   0.35461   0.23863   0.00000  Uiso   1.00
C379   C     0.86856   0.35473   0.26123   0.00000  Uiso   1.00
C380   C     0.79819   0.64530   0.23865   0.00000  Uiso   1.00
C381   C     0.83334   0.37583   0.24994   0.00000  Uiso   1.00
C382   C     0.83340   0.62418   0.24995   0.00000  Uiso   1.00
C383   C     0.98041   0.46473   0.23929   0.00000  Uiso   1.00
C384   C     0.68562   0.53489   0.26237   0.00000  Uiso   1.00
C385   C     0.69500   0.46478   0.23908   0.00000  Uiso   1.00
C386   C     0.97113   0.53492   0.26221   0.00000  Uiso   1.00
C387   C     0.80217   0.49993   0.33852   0.00000  Uiso   1.00
C388   C     0.86443   0.49856   0.16153   0.00000  Uiso   1.00
C389   C     0.78109   0.49843   0.39037   0.00000  Uiso   1.00
C390   C     0.88440   0.48983   0.11053   0.00000  Uiso   1.00
C391   C     0.71709   0.51089   0.46763   0.00000  Uiso   1.00
C392   C     0.93104   0.44657   0.04327   0.00000  Uiso   1.00
C393   C     0.73140   0.50805   0.41879   0.00000  Uiso   1.00
C394   C     0.92319   0.46125   0.08841   0.00000  Uiso   1.00
C395   C     0.81307   0.48790   0.41207   0.00000  Uiso   1.00
C396   C     0.85555   0.50271   0.08644   0.00000  Uiso   1.00
C397   C     0.79702   0.48531   0.46096   0.00000  Uiso   1.00
C398   C     0.85656   0.48117   0.04656   0.00000  Uiso   1.00
C399   C     0.75008   0.50099   0.48850   0.00000  Uiso   1.00
C400   C     0.89758   0.45563   0.02270   0.00000  Uiso   1.00
C401   C     0.82843   0.47116   0.48277   0.00000  Uiso   1.00
C402   C     0.81836   0.48455   0.02957   0.00000  Uiso   1.00
H403   H     0.96599   0.43644   0.23056   0.00000  Uiso   1.00
H404   H     0.69963   0.56288   0.27217   0.00000  Uiso   1.00
H405   H     0.71665   0.43663   0.22989   0.00000  Uiso   1.00
H406   H     0.94925   0.56293   0.27189   0.00000  Uiso   1.00
N407   N     0.71426   0.50001   0.25001   0.00000  Uiso   1.00
N408   N     0.95241   0.49999   0.24999   0.00000  Uiso   1.00
O409   O     0.79512   0.56108   0.25001   0.00000  Uiso   1.00
O410   O     0.87154   0.43892   0.25000   0.00000  Uiso   1.00
O411   O     0.87157   0.56107   0.25000   0.00000  Uiso   1.00
O412   O     0.79510   0.43893   0.25000   0.00000  Uiso   1.00
O413   O     0.77328   0.50001   0.31613   0.00000  Uiso   1.00
O414   O     0.89339   0.49999   0.18388   0.00000  Uiso   1.00
O415   O     0.84972   0.50000   0.31612   0.00000  Uiso   1.00
O416   O     0.81695   0.50000   0.18388   0.00000  Uiso   1.00
Zn417  Zn    0.78229   0.50001   0.25000   0.00000  Uiso   1.00
Zn418  Zn    0.88438   0.49999   0.25000   0.00000  Uiso   1.00
H419   H     0.69970   0.51731   0.05781   0.00000  Uiso   1.00
H420   H     0.93373   0.41604   0.46323   0.00000  Uiso   1.00
H421   H     0.82982   0.52776   0.10141   0.00000  Uiso   1.00
H422   H     0.85144   0.48282   0.39050   0.00000  Uiso   1.00
C423   C     0.95361   0.44309   0.11188   0.00000  Uiso   1.00
O424   O     0.95903   0.40534   0.11169   0.00000  Uiso   1.00
O425   O     0.97800   0.46876   0.13212   0.00000  Uiso   1.00
H426   H     0.99843   0.45212   0.14568   0.00000  Uiso   1.00
C427   C     0.69362   0.51616   0.39957   0.00000  Uiso   1.00
O428   O     0.67173   0.54936   0.40761   0.00000  Uiso   1.00
O429   O     0.68106   0.48498   0.37463   0.00000  Uiso   1.00
H430   H     0.98732   0.49390   0.36422   0.00000  Uiso   1.00
H431   H     0.67997   0.52057   0.48947   0.00000  Uiso   1.00
H432   H     0.96150   0.42568   0.02553   0.00000  Uiso   1.00
C433   C     0.74932   0.50156   0.10942   0.00000  Uiso   1.00
O434   O     0.75651   0.47337   0.13258   0.00000  Uiso   1.00
O435   O     0.72017   0.53560   0.13178   0.00000  Uiso   1.00
H436   H     0.70795   0.53392   0.16724   0.00000  Uiso   1.00
C437   C     0.87319   0.41645   0.41979   0.00000  Uiso   1.00
O438   O     0.83633   0.40129   0.41730   0.00000  Uiso   1.00
O439   O     0.91949   0.40691   0.38554   0.00000  Uiso   1.00
H440   H     0.91758   0.38791   0.36004   0.00000  Uiso   1.00
H441   H     0.89574   0.62920   0.27037   0.00000  Uiso   1.00
H442   H     0.77104   0.37082   0.22947   0.00000  Uiso   1.00
H443   H     0.89569   0.37104   0.27041   0.00000  Uiso   1.00
H444   H     0.77104   0.62898   0.22952   0.00000  Uiso   1.00
C445   C     0.16670   0.91336   0.24999   0.00000  Uiso   1.00
C446   C     0.16665   0.75331   0.24997   0.00000  Uiso   1.00
C447   C     0.10323   0.83248   0.05751   0.00000  Uiso   1.00
C448   C     0.20240   0.77725   0.45998   0.00000  Uiso   1.00
C449   C     0.06987   0.83996   0.03653   0.00000  Uiso   1.00
C450   C     0.23663   0.77053   0.48006   0.00000  Uiso   1.00
C451   C     0.20193   0.97875   0.26122   0.00000  Uiso   1.00
C452   C     0.13151   0.68794   0.23863   0.00000  Uiso   1.00
C453   C     0.20190   0.68806   0.26123   0.00000  Uiso   1.00
C454   C     0.13153   0.97863   0.23865   0.00000  Uiso   1.00
C455   C     0.16668   0.70917   0.24994   0.00000  Uiso   1.00
C456   C     0.16674   0.95752   0.24995   0.00000  Uiso   1.00
C457   C     0.31374   0.79806   0.23929   0.00000  Uiso   1.00
C458   C     0.01895   0.86822   0.26237   0.00000  Uiso   1.00
C459   C     0.02833   0.79811   0.23908   0.00000  Uiso   1.00
C460   C     0.30446   0.86825   0.26221   0.00000  Uiso   1.00
C461   C     0.13550   0.83326   0.33852   0.00000  Uiso   1.00
C462   C     0.19777   0.83189   0.16153   0.00000  Uiso   1.00
C463   C     0.11442   0.83177   0.39037   0.00000  Uiso   1.00
C464   C     0.21774   0.82317   0.11053   0.00000  Uiso   1.00
C465   C     0.05042   0.84423   0.46763   0.00000  Uiso   1.00
C466   C     0.26437   0.77991   0.04327   0.00000  Uiso   1.00
C467   C     0.06473   0.84138   0.41879   0.00000  Uiso   1.00
C468   C     0.25653   0.79458   0.08841   0.00000  Uiso   1.00
C469   C     0.14640   0.82124   0.41207   0.00000  Uiso   1.00
C470   C     0.18889   0.83605   0.08644   0.00000  Uiso   1.00
C471   C     0.13036   0.81864   0.46096   0.00000  Uiso   1.00
C472   C     0.18989   0.81450   0.04656   0.00000  Uiso   1.00
C473   C     0.08342   0.83432   0.48850   0.00000  Uiso   1.00
C474   C     0.23092   0.78897   0.02270   0.00000  Uiso   1.00
C475   C     0.16176   0.80449   0.48277   0.00000  Uiso   1.00
C476   C     0.15170   0.81788   0.02957   0.00000  Uiso   1.00
H477   H     0.29932   0.76978   0.23056   0.00000  Uiso   1.00
H478   H     0.03297   0.89621   0.27217   0.00000  Uiso   1.00
H479   H     0.04998   0.76996   0.22989   0.00000  Uiso   1.00
H480   H     0.28259   0.89626   0.27189   0.00000  Uiso   1.00
N481   N     0.04759   0.83334   0.25001   0.00000  Uiso   1.00
N482   N     0.28574   0.83332   0.24999   0.00000  Uiso   1.00
O483   O     0.12846   0.89442   0.25001   0.00000  Uiso   1.00
O484   O     0.20488   0.77225   0.25000   0.00000  Uiso   1.00
O485   O     0.20490   0.89441   0.25000   0.00000  Uiso   1.00
O486   O     0.12843   0.77226   0.25000   0.00000  Uiso   1.00
O487   O     0.10661   0.83334   0.31613   0.00000  Uiso   1.00
O488   O     0.22672   0.83333   0.18388   0.00000  Uiso   1.00
O489   O     0.18305   0.83333   0.31612   0.00000  Uiso   1.00
O490   O     0.15028   0.83334   0.18388   0.00000  Uiso   1.00
Zn491  Zn    0.11562   0.83334   0.25000   0.00000  Uiso   1.00
Zn492  Zn    0.21771   0.83333   0.25000   0.00000  Uiso   1.00
H493   H     0.03303   0.85065   0.05781   0.00000  Uiso   1.00
H494   H     0.26706   0.74938   0.46323   0.00000  Uiso   1.00
H495   H     0.16315   0.86109   0.10141   0.00000  Uiso   1.00
H496   H     0.18477   0.81616   0.39050   0.00000  Uiso   1.00
C497   C     0.28694   0.77642   0.11188   0.00000  Uiso   1.00
O498   O     0.29236   0.73868   0.11169   0.00000  Uiso   1.00
O499   O     0.31133   0.80209   0.13212   0.00000  Uiso   1.00
H500   H     0.33177   0.78545   0.14568   0.00000  Uiso   1.00
C501   C     0.02696   0.84949   0.39957   0.00000  Uiso   1.00
O502   O     0.00507   0.88269   0.40761   0.00000  Uiso   1.00
O503   O     0.01439   0.81832   0.37463   0.00000  Uiso   1.00
H504   H     0.32065   0.82724   0.36422   0.00000  Uiso   1.00
H505   H     0.01330   0.85390   0.48947   0.00000  Uiso   1.00
H506   H     0.29484   0.75901   0.02553   0.00000  Uiso   1.00
C507   C     0.08265   0.83489   0.10942   0.00000  Uiso   1.00
O508   O     0.08984   0.80671   0.13258   0.00000  Uiso   1.00
O509   O     0.05351   0.86893   0.13178   0.00000  Uiso   1.00
H510   H     0.04128   0.86725   0.16724   0.00000  Uiso   1.00
C511   C     0.20652   0.74979   0.41979   0.00000  Uiso   1.00
O512   O     0.16966   0.73462   0.41730   0.00000  Uiso   1.00
O513   O     0.25283   0.74024   0.38554   0.00000  Uiso   1.00
H514   H     0.25091   0.72125   0.36004   0.00000  Uiso   1.00
H515   H     0.22908   0.96254   0.27037   0.00000  Uiso   1.00
H516   H     0.10437   0.70415   0.22947   0.00000  Uiso   1.00
H517   H     0.22902   0.70437   0.27041   0.00000  Uiso   1.00
H518   H     0.10438   0.96232   0.22952   0.00000  Uiso   1.00
C519   C     0.50004   0.91336   0.24999   0.00000  Uiso   1.00
C520   C     0.49999   0.75331   0.24997   0.00000  Uiso   1.00
C521   C     0.43656   0.83248   0.05751   0.00000  Uiso   1.00
C522   C     0.53574   0.77725   0.45998   0.00000  Uiso   1.00
C523   C     0.40321   0.83996   0.03653   0.00000  Uiso   1.00
C524   C     0.56996   0.77053   0.48006   0.00000  Uiso   1.00
C525   C     0.53527   0.97875   0.26122   0.00000  Uiso   1.00
C526   C     0.46484   0.68794   0.23863   0.00000  Uiso   1.00
C527   C     0.53523   0.68806   0.26123   0.00000  Uiso   1.00
C528   C     0.46486   0.97863   0.23865   0.00000  Uiso   1.00
C529   C     0.50001   0.70917   0.24994   0.00000  Uiso   1.00
C530   C     0.50007   0.95752   0.24995   0.00000  Uiso   1.00
C531   C     0.64707   0.79806   0.23929   0.00000  Uiso   1.00
C532   C     0.35228   0.86822   0.26237   0.00000  Uiso   1.00
C533   C     0.36167   0.79811   0.23908   0.00000  Uiso   1.00
C534   C     0.63780   0.86825   0.26221   0.00000  Uiso   1.00
C535   C     0.46883   0.83326   0.33852   0.00000  Uiso   1.00
C536   C     0.53110   0.83189   0.16153   0.00000  Uiso   1.00
C537   C     0.44775   0.83177   0.39037   0.00000  Uiso   1.00
C538   C     0.55107   0.82317   0.11053   0.00000  Uiso   1.00
C539   C     0.38375   0.84423   0.46763   0.00000  Uiso   1.00
C540   C     0.59770   0.77991   0.04327   0.00000  Uiso   1.00
C541   C     0.39806   0.84138   0.41879   0.00000  Uiso   1.00
C542   C     0.58986   0.79458   0.08841   0.00000  Uiso   1.00
C543   C     0.47973   0.82124   0.41207   0.00000  Uiso   1.00
C544   C     0.52222   0.83605   0.08644   0.00000  Uiso   1.00
C545   C     0.46369   0.81864   0.46096   0.00000  Uiso   1.00
C546   C     0.52323   0.81450   0.04656   0.00000  Uiso   1.00
C547   C     0.41675   0.83432   0.48850   0.00000  Uiso   1.00
C548   C     0.56425   0.78897   0.02270   0.00000  Uiso   1.00
C549   C     0.49510   0.80449   0.48277   0.00000  Uiso   1.00
C550   C     0.48503   0.81788   0.02957   0.00000  Uiso   1.00
H551   H     0.63266   0.76978   0.23056   0.00000  Uiso   1.00
H552   H     0.36630   0.89621   0.27217   0.00000  Uiso   1.00
H553   H     0.38332   0.76996   0.22989   0.00000  Uiso   1.00
H554   H     0.61592   0.89626   0.27189   0.00000  Uiso   1.00
N555   N     0.38093   0.83334   0.25001   0.00000  Uiso   1.00
N556   N     0.61907   0.83332   0.24999   0.00000  Uiso   1.00
O557   O     0.46179   0.89442   0.25001   0.00000  Uiso   1.00
O558   O     0.53821   0.77225   0.25000   0.00000  Uiso   1.00
O559   O     0.53823   0.89441   0.25000   0.00000  Uiso   1.00
O560   O     0.46177   0.77226   0.25000   0.00000  Uiso   1.00
O561   O     0.43994   0.83334   0.31613   0.00000  Uiso   1.00
O562   O     0.56006   0.83333   0.18388   0.00000  Uiso   1.00
O563   O     0.51639   0.83333   0.31612   0.00000  Uiso   1.00
O564   O     0.48361   0.83334   0.18388   0.00000  Uiso   1.00
Zn565  Zn    0.44896   0.83334   0.25000   0.00000  Uiso   1.00
Zn566  Zn    0.55104   0.83333   0.25000   0.00000  Uiso   1.00
H567   H     0.36637   0.85065   0.05781   0.00000  Uiso   1.00
H568   H     0.60039   0.74938   0.46323   0.00000  Uiso   1.00
H569   H     0.49649   0.86109   0.10141   0.00000  Uiso   1.00
H570   H     0.51811   0.81616   0.39050   0.00000  Uiso   1.00
C571   C     0.62027   0.77642   0.11188   0.00000  Uiso   1.00
O572   O     0.62570   0.73868   0.11169   0.00000  Uiso   1.00
O573   O     0.64467   0.80209   0.13212   0.00000  Uiso   1.00
H574   H     0.66510   0.78545   0.14568   0.00000  Uiso   1.00
C575   C     0.36029   0.84949   0.39957   0.00000  Uiso   1.00
O576   O     0.33840   0.88269   0.40761   0.00000  Uiso   1.00
O577   O     0.34772   0.81832   0.37463   0.00000  Uiso   1.00
H578   H     0.65399   0.82724   0.36422   0.00000  Uiso   1.00
H579   H     0.34663   0.85390   0.48947   0.00000  Uiso   1.00
H580   H     0.62817   0.75901   0.02553   0.00000  Uiso   1.00
C581   C     0.41599   0.83489   0.10942   0.00000  Uiso   1.00
O582   O     0.42317   0.80671   0.13258   0.00000  Uiso   1.00
O583   O     0.38684   0.86893   0.13178   0.00000  Uiso   1.00
H584   H     0.37462   0.86725   0.16724   0.00000  Uiso   1.00
C585   C     0.53986   0.74979   0.41979   0.00000  Uiso   1.00
O586   O     0.50300   0.73462   0.41730   0.00000  Uiso   1.00
O587   O     0.58616   0.74024   0.38554   0.00000  Uiso   1.00
H588   H     0.58425   0.72125   0.36004   0.00000  Uiso   1.00
H589   H     0.56241   0.96254   0.27037   0.00000  Uiso   1.00
H590   H     0.43771   0.70415   0.22947   0.00000  Uiso   1.00
H591   H     0.56235   0.70437   0.27041   0.00000  Uiso   1.00
H592   H     0.43771   0.96232   0.22952   0.00000  Uiso   1.00
C593   C     0.83337   0.91336   0.24999   0.00000  Uiso   1.00
C594   C     0.83332   0.75331   0.24997   0.00000  Uiso   1.00
C595   C     0.76990   0.83248   0.05751   0.00000  Uiso   1.00
C596   C     0.86907   0.77725   0.45998   0.00000  Uiso   1.00
C597   C     0.73654   0.83996   0.03653   0.00000  Uiso   1.00
C598   C     0.90330   0.77053   0.48006   0.00000  Uiso   1.00
C599   C     0.86860   0.97875   0.26122   0.00000  Uiso   1.00
C600   C     0.79818   0.68794   0.23863   0.00000  Uiso   1.00
C601   C     0.86856   0.68806   0.26123   0.00000  Uiso   1.00
C602   C     0.79819   0.97863   0.23865   0.00000  Uiso   1.00
C603   C     0.83334   0.70917   0.24994   0.00000  Uiso   1.00
C604   C     0.83340   0.95752   0.24995   0.00000  Uiso   1.00
C605   C     0.98041   0.79806   0.23929   0.00000  Uiso   1.00
C606   C     0.68562   0.86822   0.26237   0.00000  Uiso   1.00
C607   C     0.69500   0.79811   0.23908   0.00000  Uiso   1.00
C608   C     0.97113   0.86825   0.26221   0.00000  Uiso   1.00
C609   C     0.80217   0.83326   0.33852   0.00000  Uiso   1.00
C610   C     0.86443   0.83189   0.16153   0.00000  Uiso   1.00
C611   C     0.78109   0.83177   0.39037   0.00000  Uiso   1.00
C612   C     0.88440   0.82317   0.11053   0.00000  Uiso   1.00
C613   C     0.71709   0.84423   0.46763   0.00000  Uiso   1.00
C614   C     0.93104   0.77991   0.04327   0.00000  Uiso   1.00
C615   C     0.73140   0.84138   0.41879   0.00000  Uiso   1.00
C616   C     0.92319   0.79458   0.08841   0.00000  Uiso   1.00
C617   C     0.81307   0.82124   0.41207   0.00000  Uiso   1.00
C618   C     0.85555   0.83605   0.08644   0.00000  Uiso   1.00
C619   C     0.79702   0.81864   0.46096   0.00000  Uiso   1.00
C620   C     0.85656   0.81450   0.04656   0.00000  Uiso   1.00
C621   C     0.75008   0.83432   0.48850   0.00000  Uiso   1.00
C622   C     0.89758   0.78897   0.02270   0.00000  Uiso   1.00
C623   C     0.82843   0.80449   0.48277   0.00000  Uiso   1.00
C624   C     0.81836   0.81788   0.02957   0.00000  Uiso   1.00
H625   H     0.96599   0.76978   0.23056   0.00000  Uiso   1.00
H626   H     0.69963   0.89621   0.27217   0.00000  Uiso   1.00
H627   H     0.71665   0.76996   0.22989   0.00000  Uiso   1.00
H628   H     0.94925   0.89626   0.27189   0.00000  Uiso   1.00
N629   N     0.71426   0.83334   0.25001   0.00000  Uiso   1.00
N630   N     0.95241   0.83332   0.24999   0.00000  Uiso   1.00
O631   O     0.79512   0.89442   0.25001   0.00000  Uiso   1.00
O632   O     0.87154   0.77225   0.25000   0.00000  Uiso   1.00
O633   O     0.87157   0.89441   0.25000   0.00000  Uiso   1.00
O634   O     0.79510   0.77226   0.25000   0.00000  Uiso   1.00
O635   O     0.77328   0.83334   0.31613   0.00000  Uiso   1.00
O636   O     0.89339   0.83333   0.18388   0.00000  Uiso   1.00
O637   O     0.84972   0.83333   0.31612   0.00000  Uiso   1.00
O638   O     0.81695   0.83334   0.18388   0.00000  Uiso   1.00
Zn639  Zn    0.78229   0.83334   0.25000   0.00000  Uiso   1.00
Zn640  Zn    0.88438   0.83333   0.25000   0.00000  Uiso   1.00
H641   H     0.69970   0.85065   0.05781   0.00000  Uiso   1.00
H642   H     0.93373   0.74938   0.46323   0.00000  Uiso   1.00
H643   H     0.82982   0.86109   0.10141   0.00000  Uiso   1.00
H644   H     0.85144   0.81616   0.39050   0.00000  Uiso   1.00
C645   C     0.95361   0.77642   0.11188   0.00000  Uiso   1.00
O646   O     0.95903   0.73868   0.11169   0.00000  Uiso   1.00
O647   O     0.97800   0.80209   0.13212   0.00000  Uiso   1.00
H648   H     0.99843   0.78545   0.14568   0.00000  Uiso   1.00
C649   C     0.69362   0.84949   0.39957   0.00000  Uiso   1.00
O650   O     0.67173   0.88269   0.40761   0.00000  Uiso   1.00
O651   O     0.68106   0.81832   0.37463   0.00000  Uiso   1.00
H652   H     0.98732   0.82724   0.36422   0.00000  Uiso   1.00
H653   H     0.67997   0.85390   0.48947   0.00000  Uiso   1.00
H654   H     0.96150   0.75901   0.02553   0.00000  Uiso   1.00
C655   C     0.74932   0.83489   0.10942   0.00000  Uiso   1.00
O656   O     0.75651   0.80671   0.13258   0.00000  Uiso   1.00
O657   O     0.72017   0.86893   0.13178   0.00000  Uiso   1.00
H658   H     0.70795   0.86725   0.16724   0.00000  Uiso   1.00
C659   C     0.87319   0.74979   0.41979   0.00000  Uiso   1.00
O660   O     0.83633   0.73462   0.41730   0.00000  Uiso   1.00
O661   O     0.91949   0.74024   0.38554   0.00000  Uiso   1.00
H662   H     0.91758   0.72125   0.36004   0.00000  Uiso   1.00
H663   H     0.89574   0.96254   0.27037   0.00000  Uiso   1.00
H664   H     0.77104   0.70415   0.22947   0.00000  Uiso   1.00
H665   H     0.89569   0.70437   0.27041   0.00000  Uiso   1.00
H666   H     0.77104   0.96232   0.22952   0.00000  Uiso   1.00
C667   C     0.16670   0.24669   0.74999   0.00000  Uiso   1.00
C668   C     0.16665   0.08665   0.74997   0.00000  Uiso   1.00
C669   C     0.10323   0.16581   0.55751   0.00000  Uiso   1.00
C670   C     0.20240   0.11058   0.95998   0.00000  Uiso   1.00
C671   C     0.06987   0.17329   0.53653   0.00000  Uiso   1.00
C672   C     0.23663   0.10387   0.98006   0.00000  Uiso   1.00
C673   C     0.20193   0.31208   0.76122   0.00000  Uiso   1.00
C674   C     0.13151   0.02127   0.73863   0.00000  Uiso   1.00
C675   C     0.20190   0.02139   0.76123   0.00000  Uiso   1.00
C676   C     0.13153   0.31196   0.73865   0.00000  Uiso   1.00
C677   C     0.16668   0.04250   0.74994   0.00000  Uiso   1.00
C678   C     0.16674   0.29085   0.74995   0.00000  Uiso   1.00
C679   C     0.31374   0.13139   0.73929   0.00000  Uiso   1.00
C680   C     0.01895   0.20156   0.76237   0.00000  Uiso   1.00
C681   C     0.02833   0.13145   0.73908   0.00000  Uiso   1.00
C682   C     0.30446   0.20158   0.76221   0.00000  Uiso   1.00
C683   C     0.13550   0.16660   0.83852   0.00000  Uiso   1.00
C684   C     0.19777   0.16522   0.66153   0.00000  Uiso   1.00
C685   C     0.11442   0.16510   0.89037   0.00000  Uiso   1.00
C686   C     0.21774   0.15650   0.61053   0.00000  Uiso   1.00
C687   C     0.05042   0.17756   0.96763   0.00000  Uiso   1.00
C688   C     0.26437   0.11324   0.54327   0.00000  Uiso   1.00
C689   C     0.06473   0.17472   0.91879   0.00000  Uiso   1.00
C690   C     0.25653   0.12792   0.58841   0.00000  Uiso   1.00
C691   C     0.14640   0.15457   0.91207   0.00000  Uiso   1.00
C692   C     0.18889   0.16938   0.58644   0.00000  Uiso   1.00
C693   C     0.13036   0.15197   0.96096   0.00000  Uiso   1.00
C694   C     0.18989   0.14783   0.54656   0.00000  Uiso   1.00
C695   C     0.08342   0.16765   0.98850   0.00000  Uiso   1.00
C696   C     0.23092   0.12230   0.52270   0.00000  Uiso   1.00
C697   C     0.16176   0.13782   0.98277   0.00000  Uiso   1.00
C698   C     0.15170   0.15122   0.52957   0.00000  Uiso   1.00
H699   H     0.29932   0.10311   0.73056   0.00000  Uiso   1.00
H700   H     0.03297   0.22955   0.77217   0.00000  Uiso   1.00
H701   H     0.04998   0.10329   0.72989   0.00000  Uiso   1.00
H702   H     0.28259   0.22959   0.77189   0.00000  Uiso   1.00
N703   N     0.04759   0.16668   0.75001   0.00000  Uiso   1.00
N704   N     0.28574   0.16666   0.74999   0.00000  Uiso   1.00
O705   O     0.12846   0.22775   0.75001   0.00000  Uiso   1.00
O706   O     0.20488   0.10558   0.75000   0.00000  Uiso   1.00
O707   O     0.20490   0.22774   0.75000   0.00000  Uiso   1.00
O708   O     0.12843   0.10559   0.75000   0.00000  Uiso   1.00
O709   O     0.10661   0.16667   0.81613   0.00000  Uiso   1.00
O710   O     0.22672   0.16666   0.68388   0.00000  Uiso   1.00
O711   O     0.18305   0.16666   0.81612   0.00000  Uiso   1.00
O712   O     0.15028   0.16667   0.68388   0.00000  Uiso   1.00
Zn713  Zn    0.11562   0.16667   0.75000   0.00000  Uiso   1.00
Zn714  Zn    0.21771   0.16666   0.75000   0.00000  Uiso   1.00
H715   H     0.03303   0.18398   0.55781   0.00000  Uiso   1.00
H716   H     0.26706   0.08271   0.96323   0.00000  Uiso   1.00
H717   H     0.16315   0.19442   0.60141   0.00000  Uiso   1.00
H718   H     0.18477   0.14949   0.89050   0.00000  Uiso   1.00
C719   C     0.28694   0.10976   0.61188   0.00000  Uiso   1.00
O720   O     0.29236   0.07201   0.61169   0.00000  Uiso   1.00
O721   O     0.31133   0.13542   0.63212   0.00000  Uiso   1.00
H722   H     0.33177   0.11879   0.64568   0.00000  Uiso   1.00
C723   C     0.02696   0.18282   0.89957   0.00000  Uiso   1.00
O724   O     0.00507   0.21602   0.90761   0.00000  Uiso   1.00
O725   O     0.01439   0.15165   0.87463   0.00000  Uiso   1.00
H726   H     0.32065   0.16057   0.86422   0.00000  Uiso   1.00
H727   H     0.01330   0.18724   0.98947   0.00000  Uiso   1.00
H728   H     0.29484   0.09234   0.52553   0.00000  Uiso   1.00
C729   C     0.08265   0.16822   0.60942   0.00000  Uiso   1.00
O730   O     0.08984   0.14004   0.63258   0.00000  Uiso   1.00
O731   O     0.05351   0.20227   0.63178   0.00000  Uiso   1.00
H732   H     0.04128   0.20058   0.66724   0.00000  Uiso   1.00
C733   C     0.20652   0.08312   0.91979   0.00000  Uiso   1.00
O734   O     0.16966   0.06795   0.91730   0.00000  Uiso   1.00
O735   O     0.25283   0.07357   0.88554   0.00000  Uiso   1.00
H736   H     0.25091   0.05458   0.86004   0.00000  Uiso   1.00
H737   H     0.22908   0.29587   0.77037   0.00000  Uiso   1.00
H738   H     0.10437   0.03749   0.72947   0.00000  Uiso   1.00
H739   H     0.22902   0.03771   0.77041   0.00000  Uiso   1.00
H740   H     0.10438   0.29565   0.72952   0.00000  Uiso   1.00
C741   C     0.50004   0.24669   0.74999   0.00000  Uiso   1.00
C742   C     0.49999   0.08665   0.74997   0.00000  Uiso   1.00
C743   C     0.43656   0.16581   0.55751   0.00000  Uiso   1.00
C744   C     0.53574   0.11058   0.95998   0.00000  Uiso   1.00
C745   C     0.40321   0.17329   0.53653   0.00000  Uiso   1.00
C746   C     0.56996   0.10387   0.98006   0.00000  Uiso   1.00
C747   C     0.53527   0.31208   0.76122   0.00000  Uiso   1.00
C748   C     0.46484   0.02127   0.73863   0.00000  Uiso   1.00
C749   C     0.53523   0.02139   0.76123   0.00000  Uiso   1.00
C750   C     0.46486   0.31196   0.73865   0.00000  Uiso   1.00
C751   C     0.50001   0.04250   0.74994   0.00000  Uiso   1.00
C752   C     0.50007   0.29085   0.74995   0.00000  Uiso   1.00
C753   C     0.64707   0.13139   0.73929   0.00000  Uiso   1.00
C754   C     0.35228   0.20156   0.76237   0.00000  Uiso   1.00
C755   C     0.36167   0.13145   0.73908   0.00000  Uiso   1.00
C756   C     0.63780   0.20158   0.76221   0.00000  Uiso   1.00
C757   C     0.46883   0.16660   0.83852   0.00000  Uiso   1.00
C758   C     0.53110   0.16522   0.66153   0.00000  Uiso   1.00
C759   C     0.44775   0.16510   0.89037   0.00000  Uiso   1.00
C760   C     0.55107   0.15650   0.61053   0.00000  Uiso   1.00
C761   C     0.38375   0.17756   0.96763   0.00000  Uiso   1.00
C762   C     0.59770   0.11324   0.54327   0.00000  Uiso   1.00
C763   C     0.39806   0.17472   0.91879   0.00000  Uiso   1.00
C764   C     0.58986   0.12792   0.58841   0.00000  Uiso   1.00
C765   C     0.47973   0.15457   0.91207   0.00000  Uiso   1.00
C766   C     0.52222   0.16938   0.58644   0.00000  Uiso   1.00
C767   C     0.46369   0.15197   0.96096   0.00000  Uiso   1.00
C768   C     0.52323   0.14783   0.54656   0.00000  Uiso   1.00
C769   C     0.41675   0.16765   0.98850   0.00000  Uiso   1.00
C770   C     0.56425   0.12230   0.52270   0.00000  Uiso   1.00
C771   C     0.49510   0.13782   0.98277   0.00000  Uiso   1.00
C772   C     0.48503   0.15122   0.52957   0.00000  Uiso   1.00
H773   H     0.63266   0.10311   0.73056   0.00000  Uiso   1.00
H774   H     0.36630   0.22955   0.77217   0.00000  Uiso   1.00
H775   H     0.38332   0.10329   0.72989   0.00000  Uiso   1.00
H776   H     0.61592   0.22959   0.77189   0.00000  Uiso   1.00
N777   N     0.38093   0.16668   0.75001   0.00000  Uiso   1.00
N778   N     0.61907   0.16666   0.74999   0.00000  Uiso   1.00
O779   O     0.46179   0.22775   0.75001   0.00000  Uiso   1.00
O780   O     0.53821   0.10558   0.75000   0.00000  Uiso   1.00
O781   O     0.53823   0.22774   0.75000   0.00000  Uiso   1.00
O782   O     0.46177   0.10559   0.75000   0.00000  Uiso   1.00
O783   O     0.43994   0.16667   0.81613   0.00000  Uiso   1.00
O784   O     0.56006   0.16666   0.68388   0.00000  Uiso   1.00
O785   O     0.51639   0.16666   0.81612   0.00000  Uiso   1.00
O786   O     0.48361   0.16667   0.68388   0.00000  Uiso   1.00
Zn787  Zn    0.44896   0.16667   0.75000   0.00000  Uiso   1.00
Zn788  Zn    0.55104   0.16666   0.75000   0.00000  Uiso   1.00
H789   H     0.36637   0.18398   0.55781   0.00000  Uiso   1.00
H790   H     0.60039   0.08271   0.96323   0.00000  Uiso   1.00
H791   H     0.49649   0.19442   0.60141   0.00000  Uiso   1.00
H792   H     0.51811   0.14949   0.89050   0.00000  Uiso   1.00
C793   C     0.62027   0.10976   0.61188   0.00000  Uiso   1.00
O794   O     0.62570   0.07201   0.61169   0.00000  Uiso   1.00
O795   O     0.64467   0.13542   0.63212   0.00000  Uiso   1.00
H796   H     0.66510   0.11879   0.64568   0.00000  Uiso   1.00
C797   C     0.36029   0.18282   0.89957   0.00000  Uiso   1.00
O798   O     0.33840   0.21602   0.90761   0.00000  Uiso   1.00
O799   O     0.34772   0.15165   0.87463   0.00000  Uiso   1.00
H800   H     0.65399   0.16057   0.86422   0.00000  Uiso   1.00
H801   H     0.34663   0.18724   0.98947   0.00000  Uiso   1.00
H802   H     0.62817   0.09234   0.52553   0.00000  Uiso   1.00
C803   C     0.41599   0.16822   0.60942   0.00000  Uiso   1.00
O804   O     0.42317   0.14004   0.63258   0.00000  Uiso   1.00
O805   O     0.38684   0.20227   0.63178   0.00000  Uiso   1.00
H806   H     0.37462   0.20058   0.66724   0.00000  Uiso   1.00
C807   C     0.53986   0.08312   0.91979   0.00000  Uiso   1.00
O808   O     0.50300   0.06795   0.91730   0.00000  Uiso   1.00
O809   O     0.58616   0.07357   0.88554   0.00000  Uiso   1.00
H810   H     0.58425   0.05458   0.86004   0.00000  Uiso   1.00
H811   H     0.56241   0.29587   0.77037   0.00000  Uiso   1.00
H812   H     0.43771   0.03749   0.72947   0.00000  Uiso   1.00
H813   H     0.56235   0.03771   0.77041   0.00000  Uiso   1.00
H814   H     0.43771   0.29565   0.72952   0.00000  Uiso   1.00
C815   C     0.83337   0.24669   0.74999   0.00000  Uiso   1.00
C816   C     0.83332   0.08665   0.74997   0.00000  Uiso   1.00
C817   C     0.76990   0.16581   0.55751   0.00000  Uiso   1.00
C818   C     0.86907   0.11058   0.95998   0.00000  Uiso   1.00
C819   C     0.73654   0.17329   0.53653   0.00000  Uiso   1.00
C820   C     0.90330   0.10387   0.98006   0.00000  Uiso   1.00
C821   C     0.86860   0.31208   0.76122   0.00000  Uiso   1.00
C822   C     0.79818   0.02127   0.73863   0.00000  Uiso   1.00
C823   C     0.86856   0.02139   0.76123   0.00000  Uiso   1.00
C824   C     0.79819   0.31196   0.73865   0.00000  Uiso   1.00
C825   C     0.83334   0.04250   0.74994   0.00000  Uiso   1.00
C826   C     0.83340   0.29085   0.74995   0.00000  Uiso   1.00
C827   C     0.98041   0.13139   0.73929   0.00000  Uiso   1.00
C828   C     0.68562   0.20156   0.76237   0.00000  Uiso   1.00
C829   C     0.69500   0.13145   0.73908   0.00000  Uiso   1.00
C830   C     0.97113   0.20158   0.76221   0.00000  Uiso   1.00
C831   C     0.80217   0.16660   0.83852   0.00000  Uiso   1.00
C832   C     0.86443   0.16522   0.66153   0.00000  Uiso   1.00
C833   C     0.78109   0.16510   0.89037   0.00000  Uiso   1.00
C834   C     0.88440   0.15650   0.61053   0.00000  Uiso   1.00
C835   C     0.71709   0.17756   0.96763   0.00000  Uiso   1.00
C836   C     0.93104   0.11324   0.54327   0.00000  Uiso   1.00
C837   C     0.73140   0.17472   0.91879   0.00000  Uiso   1.00
C838   C     0.92319   0.12792   0.58841   0.00000  Uiso   1.00
C839   C     0.81307   0.15457   0.91207   0.00000  Uiso   1.00
C840   C     0.85555   0.16938   0.58644   0.00000  Uiso   1.00
C841   C     0.79702   0.15197   0.96096   0.00000  Uiso   1.00
C842   C     0.85656   0.14783   0.54656   0.00000  Uiso   1.00
C843   C     0.75008   0.16765   0.98850   0.00000  Uiso   1.00
C844   C     0.89758   0.12230   0.52270   0.00000  Uiso   1.00
C845   C     0.82843   0.13782   0.98277   0.00000  Uiso   1.00
C846   C     0.81836   0.15122   0.52957   0.00000  Uiso   1.00
H847   H     0.96599   0.10311   0.73056   0.00000  Uiso   1.00
H848   H     0.69963   0.22955   0.77217   0.00000  Uiso   1.00
H849   H     0.71665   0.10329   0.72989   0.00000  Uiso   1.00
H850   H     0.94925   0.22959   0.77189   0.00000  Uiso   1.00
N851   N     0.71426   0.16668   0.75001   0.00000  Uiso   1.00
N852   N     0.95241   0.16666   0.74999   0.00000  Uiso   1.00
O853   O     0.79512   0.22775   0.75001   0.00000  Uiso   1.00
O854   O     0.87154   0.10558   0.75000   0.00000  Uiso   1.00
O855   O     0.87157   0.22774   0.75000   0.00000  Uiso   1.00
O856   O     0.79510   0.10559   0.75000   0.00000  Uiso   1.00
O857   O     0.77328   0.16667   0.81613   0.00000  Uiso   1.00
O858   O     0.89339   0.16666   0.68388   0.00000  Uiso   1.00
O859   O     0.84972   0.16666   0.81612   0.00000  Uiso   1.00
O860   O     0.81695   0.16667   0.68388   0.00000  Uiso   1.00
Zn861  Zn    0.78229   0.16667   0.75000   0.00000  Uiso   1.00
Zn862  Zn    0.88438   0.16666   0.75000   0.00000  Uiso   1.00
H863   H     0.69970   0.18398   0.55781   0.00000  Uiso   1.00
H864   H     0.93373   0.08271   0.96323   0.00000  Uiso   1.00
H865   H     0.82982   0.19442   0.60141   0.00000  Uiso   1.00
H866   H     0.85144   0.14949   0.89050   0.00000  Uiso   1.00
C867   C     0.95361   0.10976   0.61188   0.00000  Uiso   1.00
O868   O     0.95903   0.07201   0.61169   0.00000  Uiso   1.00
O869   O     0.97800   0.13542   0.63212   0.00000  Uiso   1.00
H870   H     0.99843   0.11879   0.64568   0.00000  Uiso   1.00
C871   C     0.69362   0.18282   0.89957   0.00000  Uiso   1.00
O872   O     0.67173   0.21602   0.90761   0.00000  Uiso   1.00
O873   O     0.68106   0.15165   0.87463   0.00000  Uiso   1.00
H874   H     0.98732   0.16057   0.86422   0.00000  Uiso   1.00
H875   H     0.67997   0.18724   0.98947   0.00000  Uiso   1.00
H876   H     0.96150   0.09234   0.52553   0.00000  Uiso   1.00
C877   C     0.74932   0.16822   0.60942   0.00000  Uiso   1.00
O878   O     0.75651   0.14004   0.63258   0.00000  Uiso   1.00
O879   O     0.72017   0.20227   0.63178   0.00000  Uiso   1.00
H880   H     0.70795   0.20058   0.66724   0.00000  Uiso   1.00
C881   C     0.87319   0.08312   0.91979   0.00000  Uiso   1.00
O882   O     0.83633   0.06795   0.91730   0.00000  Uiso   1.00
O883   O     0.91949   0.07357   0.88554   0.00000  Uiso   1.00
H884   H     0.91758   0.05458   0.86004   0.00000  Uiso   1.00
H885   H     0.89574   0.29587   0.77037   0.00000  Uiso   1.00
H886   H     0.77104   0.03749   0.72947   0.00000  Uiso   1.00
H887   H     0.89569   0.03771   0.77041   0.00000  Uiso   1.00
H888   H     0.77104   0.29565   0.72952   0.00000  Uiso   1.00
C889   C     0.16670   0.58002   0.74999   0.00000  Uiso   1.00
C890   C     0.16665   0.41998   0.74997   0.00000  Uiso   1.00
C891   C     0.10323   0.49914   0.55751   0.00000  Uiso   1.00
C892   C     0.20240   0.44391   0.95998   0.00000  Uiso   1.00
C893   C     0.06987   0.50663   0.53653   0.00000  Uiso   1.00
C894   C     0.23663   0.43720   0.98006   0.00000  Uiso   1.00
C895   C     0.20193   0.64542   0.76122   0.00000  Uiso   1.00
C896   C     0.13151   0.35461   0.73863   0.00000  Uiso   1.00
C897   C     0.20190   0.35473   0.76123   0.00000  Uiso   1.00
C898   C     0.13153   0.64530   0.73865   0.00000  Uiso   1.00
C899   C     0.16668   0.37583   0.74994   0.00000  Uiso   1.00
C900   C     0.16674   0.62418   0.74995   0.00000  Uiso   1.00
C901   C     0.31374   0.46473   0.73929   0.00000  Uiso   1.00
C902   C     0.01895   0.53489   0.76237   0.00000  Uiso   1.00
C903   C     0.02833   0.46478   0.73908   0.00000  Uiso   1.00
C904   C     0.30446   0.53492   0.76221   0.00000  Uiso   1.00
C905   C     0.13550   0.49993   0.83852   0.00000  Uiso   1.00
C906   C     0.19777   0.49856   0.66153   0.00000  Uiso   1.00
C907   C     0.11442   0.49843   0.89037   0.00000  Uiso   1.00
C908   C     0.21774   0.48983   0.61053   0.00000  Uiso   1.00
C909   C     0.05042   0.51089   0.96763   0.00000  Uiso   1.00
C910   C     0.26437   0.44657   0.54327   0.00000  Uiso   1.00
C911   C     0.06473   0.50805   0.91879   0.00000  Uiso   1.00
C912   C     0.25653   0.46125   0.58841   0.00000  Uiso   1.00
C913   C     0.14640   0.48790   0.91207   0.00000  Uiso   1.00
C914   C     0.18889   0.50271   0.58644   0.00000  Uiso   1.00
C915   C     0.13036   0.48531   0.96096   0.00000  Uiso   1.00
C916   C     0.18989   0.48117   0.54656   0.00000  Uiso   1.00
C917   C     0.08342   0.50099   0.98850   0.00000  Uiso   1.00
C918   C     0.23092   0.45563   0.52270   0.00000  Uiso   1.00
C919   C     0.16176   0.47116   0.98277   0.00000  Uiso   1.00
C920   C     0.15170   0.48455   0.52957   0.00000  Uiso   1.00
H921   H     0.29932   0.43644   0.73056   0.00000  Uiso   1.00
H922   H     0.03297   0.56288   0.77217   0.00000  Uiso   1.00
H923   H     0.04998   0.43663   0.72989   0.00000  Uiso   1.00
H924   H     0.28259   0.56293   0.77189   0.00000  Uiso   1.00
N925   N     0.04759   0.50001   0.75001   0.00000  Uiso   1.00
N926   N     0.28574   0.49999   0.74999   0.00000  Uiso   1.00
O927   O     0.12846   0.56108   0.75001   0.00000  Uiso   1.00
O928   O     0.20488   0.43892   0.75000   0.00000  Uiso   1.00
O929   O     0.20490   0.56107   0.75000   0.00000  Uiso   1.00
O930   O     0.12843   0.43893   0.75000   0.00000  Uiso   1.00
O931   O     0.10661   0.50001   0.81613   0.00000  Uiso   1.00
O932   O     0.22672   0.49999   0.68388   0.00000  Uiso   1.00
O933   O     0.18305   0.50000   0.81612   0.00000  Uiso   1.00
O934   O     0.15028   0.50000   0.68388   0.00000  Uiso   1.00
Zn935  Zn    0.11562   0.50001   0.75000   0.00000  Uiso   1.00
Zn936  Zn    0.21771   0.49999   0.75000   0.00000  Uiso   1.00
H937   H     0.03303   0.51731   0.55781   0.00000  Uiso   1.00
H938   H     0.26706   0.41604   0.96323   0.00000  Uiso   1.00
H939   H     0.16315   0.52776   0.60141   0.00000  Uiso   1.00
H940   H     0.18477   0.48282   0.89050   0.00000  Uiso   1.00
C941   C     0.28694   0.44309   0.61188   0.00000  Uiso   1.00
O942   O     0.29236   0.40534   0.61169   0.00000  Uiso   1.00
O943   O     0.31133   0.46876   0.63212   0.00000  Uiso   1.00
H944   H     0.33177   0.45212   0.64568   0.00000  Uiso   1.00
C945   C     0.02696   0.51616   0.89957   0.00000  Uiso   1.00
O946   O     0.00507   0.54936   0.90761   0.00000  Uiso   1.00
O947   O     0.01439   0.48498   0.87463   0.00000  Uiso   1.00
H948   H     0.32065   0.49390   0.86422   0.00000  Uiso   1.00
H949   H     0.01330   0.52057   0.98947   0.00000  Uiso   1.00
H950   H     0.29484   0.42568   0.52553   0.00000  Uiso   1.00
C951   C     0.08265   0.50156   0.60942   0.00000  Uiso   1.00
O952   O     0.08984   0.47337   0.63258   0.00000  Uiso   1.00
O953   O     0.05351   0.53560   0.63178   0.00000  Uiso   1.00
H954   H     0.04128   0.53392   0.66724   0.00000  Uiso   1.00
C955   C     0.20652   0.41645   0.91979   0.00000  Uiso   1.00
O956   O     0.16966   0.40129   0.91730   0.00000  Uiso   1.00
O957   O     0.25283   0.40691   0.88554   0.00000  Uiso   1.00
H958   H     0.25091   0.38791   0.86004   0.00000  Uiso   1.00
H959   H     0.22908   0.62920   0.77037   0.00000  Uiso   1.00
H960   H     0.10437   0.37082   0.72947   0.00000  Uiso   1.00
H961   H     0.22902   0.37104   0.77041   0.00000  Uiso   1.00
H962   H     0.10438   0.62898   0.72952   0.00000  Uiso   1.00
C963   C     0.50004   0.58002   0.74999   0.00000  Uiso   1.00
C964   C     0.49999   0.41998   0.74997   0.00000  Uiso   1.00
C965   C     0.43656   0.49914   0.55751   0.00000  Uiso   1.00
C966   C     0.53574   0.44391   0.95998   0.00000  Uiso   1.00
C967   C     0.40321   0.50663   0.53653   0.00000  Uiso   1.00
C968   C     0.56996   0.43720   0.98006   0.00000  Uiso   1.00
C969   C     0.53527   0.64542   0.76122   0.00000  Uiso   1.00
C970   C     0.46484   0.35461   0.73863   0.00000  Uiso   1.00
C971   C     0.53523   0.35473   0.76123   0.00000  Uiso   1.00
C972   C     0.46486   0.64530   0.73865   0.00000  Uiso   1.00
C973   C     0.50001   0.37583   0.74994   0.00000  Uiso   1.00
C974   C     0.50007   0.62418   0.74995   0.00000  Uiso   1.00
C975   C     0.64707   0.46473   0.73929   0.00000  Uiso   1.00
C976   C     0.35228   0.53489   0.76237   0.00000  Uiso   1.00
C977   C     0.36167   0.46478   0.73908   0.00000  Uiso   1.00
C978   C     0.63780   0.53492   0.76221   0.00000  Uiso   1.00
C979   C     0.46883   0.49993   0.83852   0.00000  Uiso   1.00
C980   C     0.53110   0.49856   0.66153   0.00000  Uiso   1.00
C981   C     0.44775   0.49843   0.89037   0.00000  Uiso   1.00
C982   C     0.55107   0.48983   0.61053   0.00000  Uiso   1.00
C983   C     0.38375   0.51089   0.96763   0.00000  Uiso   1.00
C984   C     0.59770   0.44657   0.54327   0.00000  Uiso   1.00
C985   C     0.39806   0.50805   0.91879   0.00000  Uiso   1.00
C986   C     0.58986   0.46125   0.58841   0.00000  Uiso   1.00
C987   C     0.47973   0.48790   0.91207   0.00000  Uiso   1.00
C988   C     0.52222   0.50271   0.58644   0.00000  Uiso   1.00
C989   C     0.46369   0.48531   0.96096   0.00000  Uiso   1.00
C990   C     0.52323   0.48117   0.54656   0.00000  Uiso   1.00
C991   C     0.41675   0.50099   0.98850   0.00000  Uiso   1.00
C992   C     0.56425   0.45563   0.52270   0.00000  Uiso   1.00
C993   C     0.49510   0.47116   0.98277   0.00000  Uiso   1.00
C994   C     0.48503   0.48455   0.52957   0.00000  Uiso   1.00
H995   H     0.63266   0.43644   0.73056   0.00000  Uiso   1.00
H996   H     0.36630   0.56288   0.77217   0.00000  Uiso   1.00
H997   H     0.38332   0.43663   0.72989   0.00000  Uiso   1.00
H998   H     0.61592   0.56293   0.77189   0.00000  Uiso   1.00
N999   N     0.38093   0.50001   0.75001   0.00000  Uiso   1.00
N1000  N     0.61907   0.49999   0.74999   0.00000  Uiso   1.00
O1001  O     0.46179   0.56108   0.75001   0.00000  Uiso   1.00
O1002  O     0.53821   0.43892   0.75000   0.00000  Uiso   1.00
O1003  O     0.53823   0.56107   0.75000   0.00000  Uiso   1.00
O1004  O     0.46177   0.43893   0.75000   0.00000  Uiso   1.00
O1005  O     0.43994   0.50001   0.81613   0.00000  Uiso   1.00
O1006  O     0.56006   0.49999   0.68388   0.00000  Uiso   1.00
O1007  O     0.51639   0.50000   0.81612   0.00000  Uiso   1.00
O1008  O     0.48361   0.50000   0.68388   0.00000  Uiso   1.00
Zn1009 Zn    0.44896   0.50001   0.75000   0.00000  Uiso   1.00
Zn1010 Zn    0.55104   0.49999   0.75000   0.00000  Uiso   1.00
H1011  H     0.36637   0.51731   0.55781   0.00000  Uiso   1.00
H1012  H     0.60039   0.41604   0.96323   0.00000  Uiso   1.00
H1013  H     0.49649   0.52776   0.60141   0.00000  Uiso   1.00
H1014  H     0.51811   0.48282   0.89050   0.00000  Uiso   1.00
C1015  C     0.62027   0.44309   0.61188   0.00000  Uiso   1.00
O1016  O     0.62570   0.40534   0.61169   0.00000  Uiso   1.00
O1017  O     0.64467   0.46876   0.63212   0.00000  Uiso   1.00
H1018  H     0.66510   0.45212   0.64568   0.00000  Uiso   1.00
C1019  C     0.36029   0.51616   0.89957   0.00000  Uiso   1.00
O1020  O     0.33840   0.54936   0.90761   0.00000  Uiso   1.00
O1021  O     0.34772   0.48498   0.87463   0.00000  Uiso   1.00
H1022  H     0.65399   0.49390   0.86422   0.00000  Uiso   1.00
H1023  H     0.34663   0.52057   0.98947   0.00000  Uiso   1.00
H1024  H     0.62817   0.42568   0.52553   0.00000  Uiso   1.00
C1025  C     0.41599   0.50156   0.60942   0.00000  Uiso   1.00
O1026  O     0.42317   0.47337   0.63258   0.00000  Uiso   1.00
O1027  O     0.38684   0.53560   0.63178   0.00000  Uiso   1.00
H1028  H     0.37462   0.53392   0.66724   0.00000  Uiso   1.00
C1029  C     0.53986   0.41645   0.91979   0.00000  Uiso   1.00
O1030  O     0.50300   0.40129   0.91730   0.00000  Uiso   1.00
O1031  O     0.58616   0.40691   0.88554   0.00000  Uiso   1.00
H1032  H     0.58425   0.38791   0.86004   0.00000  Uiso   1.00
H1033  H     0.56241   0.62920   0.77037   0.00000  Uiso   1.00
H1034  H     0.43771   0.37082   0.72947   0.00000  Uiso   1.00
H1035  H     0.56235   0.37104   0.77041   0.00000  Uiso   1.00
H1036  H     0.43771   0.62898   0.72952   0.00000  Uiso   1.00
C1037  C     0.83337   0.58002   0.74999   0.00000  Uiso   1.00
C1038  C     0.83332   0.41998   0.74997   0.00000  Uiso   1.00
C1039  C     0.76990   0.49914   0.55751   0.00000  Uiso   1.00
C1040  C     0.86907   0.44391   0.95998   0.00000  Uiso   1.00
C1041  C     0.73654   0.50663   0.53653   0.00000  Uiso   1.00
C1042  C     0.90330   0.43720   0.98006   0.00000  Uiso   1.00
C1043  C     0.86860   0.64542   0.76122   0.00000  Uiso   1.00
C1044  C     0.79818   0.35461   0.73863   0.00000  Uiso   1.00
C1045  C     0.86856   0.35473   0.76123   0.00000  Uiso   1.00
C1046  C     0.79819   0.64530   0.73865   0.00000  Uiso   1.00
C1047  C     0.83334   0.37583   0.74994   0.00000  Uiso   1.00
C1048  C     0.83340   0.62418   0.74995   0.00000  Uiso   1.00
C1049  C     0.98041   0.46473   0.73929   0.00000  Uiso   1.00
C1050  C     0.68562   0.53489   0.76237   0.00000  Uiso   1.00
C1051  C     0.69500   0.46478   0.73908   0.00000  Uiso   1.00
C1052  C     0.97113   0.53492   0.76221   0.00000  Uiso   1.00
C1053  C     0.80217   0.49993   0.83852   0.00000  Uiso   1.00
C1054  C     0.86443   0.49856   0.66153   0.00000  Uiso   1.00
C1055  C     0.78109   0.49843   0.89037   0.00000  Uiso   1.00
C1056  C     0.88440   0.48983   0.61053   0.00000  Uiso   1.00
C1057  C     0.71709   0.51089   0.96763   0.00000  Uiso   1.00
C1058  C     0.93104   0.44657   0.54327   0.00000  Uiso   1.00
C1059  C     0.73140   0.50805   0.91879   0.00000  Uiso   1.00
C1060  C     0.92319   0.46125   0.58841   0.00000  Uiso   1.00
C1061  C     0.81307   0.48790   0.91207   0.00000  Uiso   1.00
C1062  C     0.85555   0.50271   0.58644   0.00000  Uiso   1.00
C1063  C     0.79702   0.48531   0.96096   0.00000  Uiso   1.00
C1064  C     0.85656   0.48117   0.54656   0.00000  Uiso   1.00
C1065  C     0.75008   0.50099   0.98850   0.00000  Uiso   1.00
C1066  C     0.89758   0.45563   0.52270   0.00000  Uiso   1.00
C1067  C     0.82843   0.47116   0.98277   0.00000  Uiso   1.00
C1068  C     0.81836   0.48455   0.52957   0.00000  Uiso   1.00
H1069  H     0.96599   0.43644   0.73056   0.00000  Uiso   1.00
H1070  H     0.69963   0.56288   0.77217   0.00000  Uiso   1.00
H1071  H     0.71665   0.43663   0.72989   0.00000  Uiso   1.00
H1072  H     0.94925   0.56293   0.77189   0.00000  Uiso   1.00
N1073  N     0.71426   0.50001   0.75001   0.00000  Uiso   1.00
N1074  N     0.95241   0.49999   0.74999   0.00000  Uiso   1.00
O1075  O     0.79512   0.56108   0.75001   0.00000  Uiso   1.00
O1076  O     0.87154   0.43892   0.75000   0.00000  Uiso   1.00
O1077  O     0.87157   0.56107   0.75000   0.00000  Uiso   1.00
O1078  O     0.79510   0.43893   0.75000   0.00000  Uiso   1.00
O1079  O     0.77328   0.50001   0.81613   0.00000  Uiso   1.00
O1080  O     0.89339   0.49999   0.68388   0.00000  Uiso   1.00
O1081  O     0.84972   0.50000   0.81612   0.00000  Uiso   1.00
O1082  O     0.81695   0.50000   0.68388   0.00000  Uiso   1.00
Zn1083 Zn    0.78229   0.50001   0.75000   0.00000  Uiso   1.00
Zn1084 Zn    0.88438   0.49999   0.75000   0.00000  Uiso   1.00
H1085  H     0.69970   0.51731   0.55781   0.00000  Uiso   1.00
H1086  H     0.93373   0.41604   0.96323   0.00000  Uiso   1.00
H1087  H     0.82982   0.52776   0.60141   0.00000  Uiso   1.00
H1088  H     0.85144   0.48282   0.89050   0.00000  Uiso   1.00
C1089  C     0.95361   0.44309   0.61188   0.00000  Uiso   1.00
O1090  O     0.95903   0.40534   0.61169   0.00000  Uiso   1.00
O1091  O     0.97800   0.46876   0.63212   0.00000  Uiso   1.00
H1092  H     0.99843   0.45212   0.64568   0.00000  Uiso   1.00
C1093  C     0.69362   0.51616   0.89957   0.00000  Uiso   1.00
O1094  O     0.67173   0.54936   0.90761   0.00000  Uiso   1.00
O1095  O     0.68106   0.48498   0.87463   0.00000  Uiso   1.00
H1096  H     0.98732   0.49390   0.86422   0.00000  Uiso   1.00
H1097  H     0.67997   0.52057   0.98947   0.00000  Uiso   1.00
H1098  H     0.96150   0.42568   0.52553   0.00000  Uiso   1.00
C1099  C     0.74932   0.50156   0.60942   0.00000  Uiso   1.00
O1100  O     0.75651   0.47337   0.63258   0.00000  Uiso   1.00
O1101  O     0.72017   0.53560   0.63178   0.00000  Uiso   1.00
H1102  H     0.70795   0.53392   0.66724   0.00000  Uiso   1.00
C1103  C     0.87319   0.41645   0.91979   0.00000  Uiso   1.00
O1104  O     0.83633   0.40129   0.91730   0.00000  Uiso   1.00
O1105  O     0.91949   0.40691   0.88554   0.00000  Uiso   1.00
H1106  H     0.91758   0.38791   0.86004   0.00000  Uiso   1.00
H1107  H     0.89574   0.62920   0.77037   0.00000  Uiso   1.00
H1108  H     0.77104   0.37082   0.72947   0.00000  Uiso   1.00
H1109  H     0.89569   0.37104   0.77041   0.00000  Uiso   1.00
H1110  H     0.77104   0.62898   0.72952   0.00000  Uiso   1.00
C1111  C     0.16670   0.91336   0.74999   0.00000  Uiso   1.00
C1112  C     0.16665   0.75331   0.74997   0.00000  Uiso   1.00
C1113  C     0.10323   0.83248   0.55751   0.00000  Uiso   1.00
C1114  C     0.20240   0.77725   0.95998   0.00000  Uiso   1.00
C1115  C     0.06987   0.83996   0.53653   0.00000  Uiso   1.00
C1116  C     0.23663   0.77053   0.98006   0.00000  Uiso   1.00
C1117  C     0.20193   0.97875   0.76122   0.00000  Uiso   1.00
C1118  C     0.13151   0.68794   0.73863   0.00000  Uiso   1.00
C1119  C     0.20190   0.68806   0.76123   0.00000  Uiso   1.00
C1120  C     0.13153   0.97863   0.73865   0.00000  Uiso   1.00
C1121  C     0.16668   0.70917   0.74994   0.00000  Uiso   1.00
C1122  C     0.16674   0.95752   0.74995   0.00000  Uiso   1.00
C1123  C     0.31374   0.79806   0.73929   0.00000  Uiso   1.00
C1124  C     0.01895   0.86822   0.76237   0.00000  Uiso   1.00
C1125  C     0.02833   0.79811   0.73908   0.00000  Uiso   1.00
C1126  C     0.30446   0.86825   0.76221   0.00000  Uiso   1.00
C1127  C     0.13550   0.83326   0.83852   0.00000  Uiso   1.00
C1128  C     0.19777   0.83189   0.66153   0.00000  Uiso   1.00
C1129  C     0.11442   0.83177   0.89037   0.00000  Uiso   1.00
C1130  C     0.21774   0.82317   0.61053   0.00000  Uiso   1.00
C1131  C     0.05042   0.84423   0.96763   0.00000  Uiso   1.00
C1132  C     0.26437   0.77991   0.54327   0.00000  Uiso   1.00
C1133  C     0.06473   0.84138   0.91879   0.00000  Uiso   1.00
C1134  C     0.25653   0.79458   0.58841   0.00000  Uiso   1.00
C1135  C     0.14640   0.82124   0.91207   0.00000  Uiso   1.00
C1136  C     0.18889   0.83605   0.58644   0.00000  Uiso   1.00
C1137  C     0.13036   0.81864   0.96096   0.00000  Uiso   1.00
C1138  C     0.18989   0.81450   0.54656   0.00000  Uiso   1.00
C1139  C     0.08342   0.83432   0.98850   0.00000  Uiso   1.00
C1140  C     0.23092   0.78897   0.52270   0.00000  Uiso   1.00
C1141  C     0.16176   0.80449   0.98277   0.00000  Uiso   1.00
C1142  C     0.15170   0.81788   0.52957   0.00000  Uiso   1.00
H1143  H     0.29932   0.76978   0.73056   0.00000  Uiso   1.00
H1144  H     0.03297   0.89621   0.77217   0.00000  Uiso   1.00
H1145  H     0.04998   0.76996   0.72989   0.00000  Uiso   1.00
H1146  H     0.28259   0.89626   0.77189   0.00000  Uiso   1.00
N1147  N     0.04759   0.83334   0.75001   0.00000  Uiso   1.00
N1148  N     0.28574   0.83332   0.74999   0.00000  Uiso   1.00
O1149  O     0.12846   0.89442   0.75001   0.00000  Uiso   1.00
O1150  O     0.20488   0.77225   0.75000   0.00000  Uiso   1.00
O1151  O     0.20490   0.89441   0.75000   0.00000  Uiso   1.00
O1152  O     0.12843   0.77226   0.75000   0.00000  Uiso   1.00
O1153  O     0.10661   0.83334   0.81613   0.00000  Uiso   1.00
O1154  O     0.22672   0.83333   0.68388   0.00000  Uiso   1.00
O1155  O     0.18305   0.83333   0.81612   0.00000  Uiso   1.00
O1156  O     0.15028   0.83334   0.68388   0.00000  Uiso   1.00
Zn1157 Zn    0.11562   0.83334   0.75000   0.00000  Uiso   1.00
Zn1158 Zn    0.21771   0.83333   0.75000   0.00000  Uiso   1.00
H1159  H     0.03303   0.85065   0.55781   0.00000  Uiso   1.00
H1160  H     0.26706   0.74938   0.96323   0.00000  Uiso   1.00
H1161  H     0.16315   0.86109   0.60141   0.00000  Uiso   1.00
H1162  H     0.18477   0.81616   0.89050   0.00000  Uiso   1.00
C1163  C     0.28694   0.77642   0.61188   0.00000  Uiso   1.00
O1164  O     0.29236   0.73868   0.61169   0.00000  Uiso   1.00
O1165  O     0.31133   0.80209   0.63212   0.00000  Uiso   1.00
H1166  H     0.33177   0.78545   0.64568   0.00000  Uiso   1.00
C1167  C     0.02696   0.84949   0.89957   0.00000  Uiso   1.00
O1168  O     0.00507   0.88269   0.90761   0.00000  Uiso   1.00
O1169  O     0.01439   0.81832   0.87463   0.00000  Uiso   1.00
H1170  H     0.32065   0.82724   0.86422   0.00000  Uiso   1.00
H1171  H     0.01330   0.85390   0.98947   0.00000  Uiso   1.00
H1172  H     0.29484   0.75901   0.52553   0.00000  Uiso   1.00
C1173  C     0.08265   0.83489   0.60942   0.00000  Uiso   1.00
O1174  O     0.08984   0.80671   0.63258   0.00000  Uiso   1.00
O1175  O     0.05351   0.86893   0.63178   0.00000  Uiso   1.00
H1176  H     0.04128   0.86725   0.66724   0.00000  Uiso   1.00
C1177  C     0.20652   0.74979   0.91979   0.00000  Uiso   1.00
O1178  O     0.16966   0.73462   0.91730   0.00000  Uiso   1.00
O1179  O     0.25283   0.74024   0.88554   0.00000  Uiso   1.00
H1180  H     0.25091   0.72125   0.86004   0.00000  Uiso   1.00
H1181  H     0.22908   0.96254   0.77037   0.00000  Uiso   1.00
H1182  H     0.10437   0.70415   0.72947   0.00000  Uiso   1.00
H1183  H     0.22902   0.70437   0.77041   0.00000  Uiso   1.00
H1184  H     0.10438   0.96232   0.72952   0.00000  Uiso   1.00
C1185  C     0.50004   0.91336   0.74999   0.00000  Uiso   1.00
C1186  C     0.49999   0.75331   0.74997   0.00000  Uiso   1.00
C1187  C     0.43656   0.83248   0.55751   0.00000  Uiso   1.00
C1188  C     0.53574   0.77725   0.95998   0.00000  Uiso   1.00
C1189  C     0.40321   0.83996   0.53653   0.00000  Uiso   1.00
C1190  C     0.56996   0.77053   0.98006   0.00000  Uiso   1.00
C1191  C     0.53527   0.97875   0.76122   0.00000  Uiso   1.00
C1192  C     0.46484   0.68794   0.73863   0.00000  Uiso   1.00
C1193  C     0.53523   0.68806   0.76123   0.00000  Uiso   1.00
C1194  C     0.46486   0.97863   0.73865   0.00000  Uiso   1.00
C1195  C     0.50001   0.70917   0.74994   0.00000  Uiso   1.00
C1196  C     0.50007   0.95752   0.74995   0.00000  Uiso   1.00
C1197  C     0.64707   0.79806   0.73929   0.00000  Uiso   1.00
C1198  C     0.35228   0.86822   0.76237   0.00000  Uiso   1.00
C1199  C     0.36167   0.79811   0.73908   0.00000  Uiso   1.00
C1200  C     0.63780   0.86825   0.76221   0.00000  Uiso   1.00
C1201  C     0.46883   0.83326   0.83852   0.00000  Uiso   1.00
C1202  C     0.53110   0.83189   0.66153   0.00000  Uiso   1.00
C1203  C     0.44775   0.83177   0.89037   0.00000  Uiso   1.00
C1204  C     0.55107   0.82317   0.61053   0.00000  Uiso   1.00
C1205  C     0.38375   0.84423   0.96763   0.00000  Uiso   1.00
C1206  C     0.59770   0.77991   0.54327   0.00000  Uiso   1.00
C1207  C     0.39806   0.84138   0.91879   0.00000  Uiso   1.00
C1208  C     0.58986   0.79458   0.58841   0.00000  Uiso   1.00
C1209  C     0.47973   0.82124   0.91207   0.00000  Uiso   1.00
C1210  C     0.52222   0.83605   0.58644   0.00000  Uiso   1.00
C1211  C     0.46369   0.81864   0.96096   0.00000  Uiso   1.00
C1212  C     0.52323   0.81450   0.54656   0.00000  Uiso   1.00
C1213  C     0.41675   0.83432   0.98850   0.00000  Uiso   1.00
C1214  C     0.56425   0.78897   0.52270   0.00000  Uiso   1.00
C1215  C     0.49510   0.80449   0.98277   0.00000  Uiso   1.00
C1216  C     0.48503   0.81788   0.52957   0.00000  Uiso   1.00
H1217  H     0.63266   0.76978   0.73056   0.00000  Uiso   1.00
H1218  H     0.36630   0.89621   0.77217   0.00000  Uiso   1.00
H1219  H     0.38332   0.76996   0.72989   0.00000  Uiso   1.00
H1220  H     0.61592   0.89626   0.77189   0.00000  Uiso   1.00
N1221  N     0.38093   0.83334   0.75001   0.00000  Uiso   1.00
N1222  N     0.61907   0.83332   0.74999   0.00000  Uiso   1.00
O1223  O     0.46179   0.89442   0.75001   0.00000  Uiso   1.00
O1224  O     0.53821   0.77225   0.75000   0.00000  Uiso   1.00
O1225  O     0.53823   0.89441   0.75000   0.00000  Uiso   1.00
O1226  O     0.46177   0.77226   0.75000   0.00000  Uiso   1.00
O1227  O     0.43994   0.83334   0.81613   0.00000  Uiso   1.00
O1228  O     0.56006   0.83333   0.68388   0.00000  Uiso   1.00
O1229  O     0.51639   0.83333   0.81612   0.00000  Uiso   1.00
O1230  O     0.48361   0.83334   0.68388   0.00000  Uiso   1.00
Zn1231 Zn    0.44896   0.83334   0.75000   0.00000  Uiso   1.00
Zn1232 Zn    0.55104   0.83333   0.75000   0.00000  Uiso   1.00
H1233  H     0.36637   0.85065   0.55781   0.00000  Uiso   1.00
H1234  H     0.60039   0.74938   0.96323   0.00000  Uiso   1.00
H1235  H     0.49649   0.86109   0.60141   0.00000  Uiso   1.00
H1236  H     0.51811   0.81616   0.89050   0.00000  Uiso   1.00
C1237  C     0.62027   0.77642   0.61188   0.00000  Uiso   1.00
O1238  O     0.62570   0.73868   0.61169   0.00000  Uiso   1.00
O1239  O     0.64467   0.80209   0.63212   0.00000  Uiso   1.00
H1240  H     0.66510   0.78545   0.64568   0.00000  Uiso   1.00
C1241  C     0.36029   0.84949   0.89957   0.00000  Uiso   1.00
O1242  O     0.33840   0.88269   0.90761   0.00000  Uiso   1.00
O1243  O     0.34772   0.81832   0.87463   0.00000  Uiso   1.00
H1244  H     0.65399   0.82724   0.86422   0.00000  Uiso   1.00
H1245  H     0.34663   0.85390   0.98947   0.00000  Uiso   1.00
H1246  H     0.62817   0.75901   0.52553   0.00000  Uiso   1.00
C1247  C     0.41599   0.83489   0.60942   0.00000  Uiso   1.00
O1248  O     0.42317   0.80671   0.63258   0.00000  Uiso   1.00
O1249  O     0.38684   0.86893   0.63178   0.00000  Uiso   1.00
H1250  H     0.37462   0.86725   0.66724   0.00000  Uiso   1.00
C1251  C     0.53986   0.74979   0.91979   0.00000  Uiso   1.00
O1252  O     0.50300   0.73462   0.91730   0.00000  Uiso   1.00
O1253  O     0.58616   0.74024   0.88554   0.00000  Uiso   1.00
H1254  H     0.58425   0.72125   0.86004   0.00000  Uiso   1.00
H1255  H     0.56241   0.96254   0.77037   0.00000  Uiso   1.00
H1256  H     0.43771   0.70415   0.72947   0.00000  Uiso   1.00
H1257  H     0.56235   0.70437   0.77041   0.00000  Uiso   1.00
H1258  H     0.43771   0.96232   0.72952   0.00000  Uiso   1.00
C1259  C     0.83337   0.91336   0.74999   0.00000  Uiso   1.00
C1260  C     0.83332   0.75331   0.74997   0.00000  Uiso   1.00
C1261  C     0.76990   0.83248   0.55751   0.00000  Uiso   1.00
C1262  C     0.86907   0.77725   0.95998   0.00000  Uiso   1.00
C1263  C     0.73654   0.83996   0.53653   0.00000  Uiso   1.00
C1264  C     0.90330   0.77053   0.98006   0.00000  Uiso   1.00
C1265  C     0.86860   0.97875   0.76122   0.00000  Uiso   1.00
C1266  C     0.79818   0.68794   0.73863   0.00000  Uiso   1.00
C1267  C     0.86856   0.68806   0.76123   0.00000  Uiso   1.00
C1268  C     0.79819   0.97863   0.73865   0.00000  Uiso   1.00
C1269  C     0.83334   0.70917   0.74994   0.00000  Uiso   1.00
C1270  C     0.83340   0.95752   0.74995   0.00000  Uiso   1.00
C1271  C     0.98041   0.79806   0.73929   0.00000  Uiso   1.00
C1272  C     0.68562   0.86822   0.76237   0.00000  Uiso   1.00
C1273  C     0.69500   0.79811   0.73908   0.00000  Uiso   1.00
C1274  C     0.97113   0.86825   0.76221   0.00000  Uiso   1.00
C1275  C     0.80217   0.83326   0.83852   0.00000  Uiso   1.00
C1276  C     0.86443   0.83189   0.66153   0.00000  Uiso   1.00
C1277  C     0.78109   0.83177   0.89037   0.00000  Uiso   1.00
C1278  C     0.88440   0.82317   0.61053   0.00000  Uiso   1.00
C1279  C     0.71709   0.84423   0.96763   0.00000  Uiso   1.00
C1280  C     0.93104   0.77991   0.54327   0.00000  Uiso   1.00
C1281  C     0.73140   0.84138   0.91879   0.00000  Uiso   1.00
C1282  C     0.92319   0.79458   0.58841   0.00000  Uiso   1.00
C1283  C     0.81307   0.82124   0.91207   0.00000  Uiso   1.00
C1284  C     0.85555   0.83605   0.58644   0.00000  Uiso   1.00
C1285  C     0.79702   0.81864   0.96096   0.00000  Uiso   1.00
C1286  C     0.85656   0.81450   0.54656   0.00000  Uiso   1.00
C1287  C     0.75008   0.83432   0.98850   0.00000  Uiso   1.00
C1288  C     0.89758   0.78897   0.52270   0.00000  Uiso   1.00
C1289  C     0.82843   0.80449   0.98277   0.00000  Uiso   1.00
C1290  C     0.81836   0.81788   0.52957   0.00000  Uiso   1.00
H1291  H     0.96599   0.76978   0.73056   0.00000  Uiso   1.00
H1292  H     0.69963   0.89621   0.77217   0.00000  Uiso   1.00
H1293  H     0.71665   0.76996   0.72989   0.00000  Uiso   1.00
H1294  H     0.94925   0.89626   0.77189   0.00000  Uiso   1.00
N1295  N     0.71426   0.83334   0.75001   0.00000  Uiso   1.00
N1296  N     0.95241   0.83332   0.74999   0.00000  Uiso   1.00
O1297  O     0.79512   0.89442   0.75001   0.00000  Uiso   1.00
O1298  O     0.87154   0.77225   0.75000   0.00000  Uiso   1.00
O1299  O     0.87157   0.89441   0.75000   0.00000  Uiso   1.00
O1300  O     0.79510   0.77226   0.75000   0.00000  Uiso   1.00
O1301  O     0.77328   0.83334   0.81613   0.00000  Uiso   1.00
O1302  O     0.89339   0.83333   0.68388   0.00000  Uiso   1.00
O1303  O     0.84972   0.83333   0.81612   0.00000  Uiso   1.00
O1304  O     0.81695   0.83334   0.68388   0.00000  Uiso   1.00
Zn1305 Zn    0.78229   0.83334   0.75000   0.00000  Uiso   1.00
Zn1306 Zn    0.88438   0.83333   0.75000   0.00000  Uiso   1.00
H1307  H     0.69970   0.85065   0.55781   0.00000  Uiso   1.00
H1308  H     0.93373   0.74938   0.96323   0.00000  Uiso   1.00
H1309  H     0.82982   0.86109   0.60141   0.00000  Uiso   1.00
H1310  H     0.85144   0.81616   0.89050   0.00000  Uiso   1.00
C1311  C     0.95361   0.77642   0.61188   0.00000  Uiso   1.00
O1312  O     0.95903   0.73868   0.61169   0.00000  Uiso   1.00
O1313  O     0.97800   0.80209   0.63212   0.00000  Uiso   1.00
H1314  H     0.99843   0.78545   0.64568   0.00000  Uiso   1.00
C1315  C     0.69362   0.84949   0.89957   0.00000  Uiso   1.00
O1316  O     0.67173   0.88269   0.90761   0.00000  Uiso   1.00
O1317  O     0.68106   0.81832   0.87463   0.00000  Uiso   1.00
H1318  H     0.98732   0.82724   0.86422   0.00000  Uiso   1.00
H1319  H     0.67997   0.85390   0.98947   0.00000  Uiso   1.00
H1320  H     0.96150   0.75901   0.52553   0.00000  Uiso   1.00
C1321  C     0.74932   0.83489   0.60942   0.00000  Uiso   1.00
O1322  O     0.75651   0.80671   0.63258   0.00000  Uiso   1.00
O1323  O     0.72017   0.86893   0.63178   0.00000  Uiso   1.00
H1324  H     0.70795   0.86725   0.66724   0.00000  Uiso   1.00
C1325  C     0.87319   0.74979   0.91979   0.00000  Uiso   1.00
O1326  O     0.83633   0.73462   0.91730   0.00000  Uiso   1.00
O1327  O     0.91949   0.74024   0.88554   0.00000  Uiso   1.00
H1328  H     0.91758   0.72125   0.86004   0.00000  Uiso   1.00
H1329  H     0.89574   0.96254   0.77037   0.00000  Uiso   1.00
H1330  H     0.77104   0.70415   0.72947   0.00000  Uiso   1.00
H1331  H     0.89569   0.70437   0.77041   0.00000  Uiso   1.00
H1332  H     0.77104   0.96232   0.72952   0.00000  Uiso   1.00
loop_
_geom_bond_atom_site_label_1
_geom_bond_atom_site_label_2
_geom_bond_distance
_geom_bond_site_symmetry_2
_ccdc_geom_bond_type
C1     C12     1.419   .     S
C1     O39     1.284   .     A
C1     O41     1.284   .     A
C2     O40     1.283   .     A
C2     O42     1.284   .     A
C2     C11     1.418   .     S
C3     C5      1.396   .     A
C3     C63     1.476   .     S
C3     C32     1.433   .     A
C4     C67     1.487   .     S
C4     C31     1.431   .     A
C4     C6      1.395   .     A
C5     H49     1.085   .     S
C5     C695    1.387   1_554 S
C6     H50     1.085   .     S
C6     C696    1.391   .     S
C7     C12     1.397   .     A
C7     H71     1.083   .     S
C7     C231    1.370   .     S
C8     C11     1.397   .     A
C8     H72     1.083   .     S
C8     C454    1.370   1_545 S
C9     C11     1.397   .     A
C9     H73     1.084   .     S
C9     C451    1.370   1_545 S
C10    H74     1.084   .     S
C10    C12     1.397   .     A
C10    C230    1.370   .     S
C13    H33     1.081   .     S
C13    N38     1.366   .     A
C13    C89     1.415   .     S
C14    H34     1.081   .     S
C14    N37     1.367   .     A
C14    C164    1.416   1_455 S
C15    H35     1.081   .     S
C15    N37     1.367   .     A
C15    C161    1.415   1_455 S
C16    H36     1.081   .     S
C16    N38     1.367   .     A
C16    C88     1.416   .     S
C17    O45     1.302   .     A
C17    O43     1.292   .     A
C17    C19     1.473   .     S
C18    O44     1.293   .     A
C18    O46     1.301   .     A
C18    C20     1.475   .     S
C19    C23     1.420   .     A
C19    C25     1.397   .     A
C20    C24     1.420   .     A
C20    C26     1.396   .     A
C21    H61     1.085   .     S
C21    C23     1.399   .     A
C21    C29     1.400   .     A
C22    H62     1.085   .     S
C22    C24     1.400   .     A
C22    C30     1.399   .     A
C23    C57     1.478   .     S
C24    C53     1.478   .     S
C25    H52     1.081   .     S
C25    C27     1.395   .     A
C26    H51     1.080   .     S
C26    C28     1.401   .     A
C27    C31     1.418   .     A
C27    C29     1.408   .     A
C28    C30     1.411   .     A
C28    C32     1.423   .     A
C29    C671    1.387   .     S
C30    C672    1.391   1_554 S
C31    C698    1.421   .     S
C32    C697    1.421   1_554 S
N37    Zn47    2.012   .     S
N38    Zn48    2.012   .     S
O39    Zn47    1.998   .     S
O40    Zn48    1.998   .     S
O41    Zn48    1.999   .     S
O42    Zn47    1.999   .     S
O43    Zn47    1.950   .     S
O44    Zn48    1.950   .     S
O45    Zn48    1.890   .     S
O46    Zn47    1.890   .     S
C53    O55     1.393   .     S
C53    O54     1.223   .     D
O55    H56     1.012   .     S
C57    O58     1.223   .     D
C57    O59     1.398   .     S
O59    H208    1.014   1_455 S
H60    O133    1.014   .     S
C63    O65     1.397   .     S
C63    O64     1.223   .     D
O65    H66     1.010   .     S
C67    O68     1.223   .     D
C67    O69     1.398   .     S
O69    H70     1.014   .     S
C75    C86     1.419   .     S
C75    O113    1.284   .     A
C75    O115    1.284   .     A
C76    O114    1.283   .     A
C76    O116    1.284   .     A
C76    C85     1.418   .     S
C77    C79     1.396   .     A
C77    C137    1.476   .     S
C77    C106    1.433   .     A
C78    C141    1.487   .     S
C78    C105    1.431   .     A
C78    C80     1.395   .     A
C79    H123    1.085   .     S
C79    C769    1.387   1_554 S
C80    H124    1.085   .     S
C80    C770    1.391   .     S
C81    C86     1.397   .     A
C81    H145    1.083   .     S
C81    C305    1.370   .     S
C82    C85     1.397   .     A
C82    H146    1.083   .     S
C82    C528    1.370   1_545 S
C83    C85     1.397   .     A
C83    H147    1.084   .     S
C83    C525    1.370   1_545 S
C84    H148    1.084   .     S
C84    C86     1.397   .     A
C84    C304    1.370   .     S
C87    H107    1.081   .     S
C87    N112    1.366   .     A
C87    C163    1.415   .     S
C88    H108    1.081   .     S
C88    N111    1.367   .     A
C89    H109    1.081   .     S
C89    N111    1.367   .     A
C90    H110    1.081   .     S
C90    N112    1.367   .     A
C90    C162    1.416   .     S
C91    O119    1.302   .     A
C91    O117    1.292   .     A
C91    C93     1.473   .     S
C92    O118    1.293   .     A
C92    O120    1.301   .     A
C92    C94     1.475   .     S
C93    C97     1.420   .     A
C93    C99     1.397   .     A
C94    C98     1.420   .     A
C94    C100    1.396   .     A
C95    H135    1.085   .     S
C95    C97     1.399   .     A
C95    C103    1.400   .     A
C96    H136    1.085   .     S
C96    C98     1.400   .     A
C96    C104    1.399   .     A
C97    C131    1.478   .     S
C98    C127    1.478   .     S
C99    H126    1.081   .     S
C99    C101    1.395   .     A
C100   H125    1.080   .     S
C100   C102    1.401   .     A
C101   C105    1.418   .     A
C101   C103    1.408   .     A
C102   C104    1.411   .     A
C102   C106    1.423   .     A
C103   C745    1.387   .     S
C104   C746    1.391   1_554 S
C105   C772    1.421   .     S
C106   C771    1.421   1_554 S
N111   Zn121   2.012   .     S
N112   Zn122   2.012   .     S
O113   Zn121   1.998   .     S
O114   Zn122   1.998   .     S
O115   Zn122   1.999   .     S
O116   Zn121   1.999   .     S
O117   Zn121   1.950   .     S
O118   Zn122   1.950   .     S
O119   Zn122   1.890   .     S
O120   Zn121   1.890   .     S
C127   O129    1.393   .     S
C127   O128    1.223   .     D
O129   H130    1.012   .     S
C131   O132    1.223   .     D
C131   O133    1.398   .     S
H134   O207    1.014   .     S
C137   O139    1.397   .     S
C137   O138    1.223   .     D
O139   H140    1.010   .     S
C141   O142    1.223   .     D
C141   O143    1.398   .     S
O143   H144    1.014   .     S
C149   C160    1.419   .     S
C149   O187    1.284   .     A
C149   O189    1.284   .     A
C150   O188    1.283   .     A
C150   O190    1.284   .     A
C150   C159    1.418   .     S
C151   C153    1.396   .     A
C151   C211    1.476   .     S
C151   C180    1.433   .     A
C152   C215    1.487   .     S
C152   C179    1.431   .     A
C152   C154    1.395   .     A
C153   H197    1.085   .     S
C153   C843    1.387   1_554 S
C154   H198    1.085   .     S
C154   C844    1.391   .     S
C155   C160    1.397   .     A
C155   H219    1.083   .     S
C155   C379    1.370   .     S
C156   C159    1.397   .     A
C156   H220    1.083   .     S
C156   C602    1.370   1_545 S
C157   C159    1.397   .     A
C157   H221    1.084   .     S
C157   C599    1.370   1_545 S
C158   H222    1.084   .     S
C158   C160    1.397   .     A
C158   C378    1.370   .     S
C161   H181    1.081   .     S
C161   N186    1.366   .     A
C161   C15     1.415   1_655 S
C162   H182    1.081   .     S
C162   N185    1.367   .     A
C163   H183    1.081   .     S
C163   N185    1.367   .     A
C164   H184    1.081   .     S
C164   N186    1.367   .     A
C164   C14     1.416   1_655 S
C165   O193    1.302   .     A
C165   O191    1.292   .     A
C165   C167    1.473   .     S
C166   O192    1.293   .     A
C166   O194    1.301   .     A
C166   C168    1.475   .     S
C167   C171    1.420   .     A
C167   C173    1.397   .     A
C168   C172    1.420   .     A
C168   C174    1.396   .     A
C169   H209    1.085   .     S
C169   C171    1.399   .     A
C169   C177    1.400   .     A
C170   H210    1.085   .     S
C170   C172    1.400   .     A
C170   C178    1.399   .     A
C171   C205    1.478   .     S
C172   C201    1.478   .     S
C173   H200    1.081   .     S
C173   C175    1.395   .     A
C174   H199    1.080   .     S
C174   C176    1.401   .     A
C175   C179    1.418   .     A
C175   C177    1.408   .     A
C176   C178    1.411   .     A
C176   C180    1.423   .     A
C177   C819    1.387   .     S
C178   C820    1.391   1_554 S
C179   C846    1.421   .     S
C180   C845    1.421   1_554 S
N185   Zn195   2.012   .     S
N186   Zn196   2.012   .     S
O187   Zn195   1.998   .     S
O188   Zn196   1.998   .     S
O189   Zn196   1.999   .     S
O190   Zn195   1.999   .     S
O191   Zn195   1.950   .     S
O192   Zn196   1.950   .     S
O193   Zn196   1.890   .     S
O194   Zn195   1.890   .     S
C201   O203    1.393   .     S
C201   O202    1.223   .     D
O203   H204    1.012   .     S
C205   O206    1.223   .     D
C205   O207    1.398   .     S
H208   O59     1.014   1_655 S
C211   O213    1.397   .     S
C211   O212    1.223   .     D
O213   H214    1.010   .     S
C215   O216    1.223   .     D
C215   O217    1.398   .     S
O217   H218    1.014   .     S
C223   C234    1.419   .     S
C223   O261    1.284   .     A
C223   O263    1.284   .     A
C224   O262    1.283   .     A
C224   O264    1.284   .     A
C224   C233    1.418   .     S
C225   C227    1.396   .     A
C225   C285    1.476   .     S
C225   C254    1.433   .     A
C226   C289    1.487   .     S
C226   C253    1.431   .     A
C226   C228    1.395   .     A
C227   H271    1.085   .     S
C227   C917    1.387   1_554 S
C228   H272    1.085   .     S
C228   C918    1.391   .     S
C229   C234    1.397   .     A
C229   H293    1.083   .     S
C229   C453    1.370   .     S
C230   C233    1.397   .     A
C230   H294    1.083   .     S
C231   C233    1.397   .     A
C231   H295    1.084   .     S
C232   H296    1.084   .     S
C232   C234    1.397   .     A
C232   C452    1.370   .     S
C235   H255    1.081   .     S
C235   N260    1.366   .     A
C235   C311    1.415   .     S
C236   H256    1.081   .     S
C236   N259    1.367   .     A
C236   C386    1.416   1_455 S
C237   H257    1.081   .     S
C237   N259    1.367   .     A
C237   C383    1.415   1_455 S
C238   H258    1.081   .     S
C238   N260    1.367   .     A
C238   C310    1.416   .     S
C239   O267    1.302   .     A
C239   O265    1.292   .     A
C239   C241    1.473   .     S
C240   O266    1.293   .     A
C240   O268    1.301   .     A
C240   C242    1.475   .     S
C241   C245    1.420   .     A
C241   C247    1.397   .     A
C242   C246    1.420   .     A
C242   C248    1.396   .     A
C243   H283    1.085   .     S
C243   C245    1.399   .     A
C243   C251    1.400   .     A
C244   H284    1.085   .     S
C244   C246    1.400   .     A
C244   C252    1.399   .     A
C245   C279    1.478   .     S
C246   C275    1.478   .     S
C247   H274    1.081   .     S
C247   C249    1.395   .     A
C248   H273    1.080   .     S
C248   C250    1.401   .     A
C249   C253    1.418   .     A
C249   C251    1.408   .     A
C250   C252    1.411   .     A
C250   C254    1.423   .     A
C251   C893    1.387   .     S
C252   C894    1.391   1_554 S
C253   C920    1.421   .     S
C254   C919    1.421   1_554 S
N259   Zn269   2.012   .     S
N260   Zn270   2.012   .     S
O261   Zn269   1.998   .     S
O262   Zn270   1.998   .     S
O263   Zn270   1.999   .     S
O264   Zn269   1.999   .     S
O265   Zn269   1.950   .     S
O266   Zn270   1.950   .     S
O267   Zn270   1.890   .     S
O268   Zn269   1.890   .     S
C275   O277    1.393   .     S
C275   O276    1.223   .     D
O277   H278    1.012   .     S
C279   O280    1.223   .     D
C279   O281    1.398   .     S
O281   H430    1.014   1_455 S
H282   O355    1.014   .     S
C285   O287    1.397   .     S
C285   O286    1.223   .     D
O287   H288    1.010   .     S
C289   O290    1.223   .     D
C289   O291    1.398   .     S
O291   H292    1.014   .     S
C297   C308    1.419   .     S
C297   O335    1.284   .     A
C297   O337    1.284   .     A
C298   O336    1.283   .     A
C298   O338    1.284   .     A
C298   C307    1.418   .     S
C299   C301    1.396   .     A
C299   C359    1.476   .     S
C299   C328    1.433   .     A
C300   C363    1.487   .     S
C300   C327    1.431   .     A
C300   C302    1.395   .     A
C301   H345    1.085   .     S
C301   C991    1.387   1_554 S
C302   H346    1.085   .     S
C302   C992    1.391   .     S
C303   C308    1.397   .     A
C303   H367    1.083   .     S
C303   C527    1.370   .     S
C304   C307    1.397   .     A
C304   H368    1.083   .     S
C305   C307    1.397   .     A
C305   H369    1.084   .     S
C306   H370    1.084   .     S
C306   C308    1.397   .     A
C306   C526    1.370   .     S
C309   H329    1.081   .     S
C309   N334    1.366   .     A
C309   C385    1.415   .     S
C310   H330    1.081   .     S
C310   N333    1.367   .     A
C311   H331    1.081   .     S
C311   N333    1.367   .     A
C312   H332    1.081   .     S
C312   N334    1.367   .     A
C312   C384    1.416   .     S
C313   O341    1.302   .     A
C313   O339    1.292   .     A
C313   C315    1.473   .     S
C314   O340    1.293   .     A
C314   O342    1.301   .     A
C314   C316    1.475   .     S
C315   C319    1.420   .     A
C315   C321    1.397   .     A
C316   C320    1.420   .     A
C316   C322    1.396   .     A
C317   H357    1.085   .     S
C317   C319    1.399   .     A
C317   C325    1.400   .     A
C318   H358    1.085   .     S
C318   C320    1.400   .     A
C318   C326    1.399   .     A
C319   C353    1.478   .     S
C320   C349    1.478   .     S
C321   H348    1.081   .     S
C321   C323    1.395   .     A
C322   H347    1.080   .     S
C322   C324    1.401   .     A
C323   C327    1.418   .     A
C323   C325    1.408   .     A
C324   C326    1.411   .     A
C324   C328    1.423   .     A
C325   C967    1.387   .     S
C326   C968    1.391   1_554 S
C327   C994    1.421   .     S
C328   C993    1.421   1_554 S
N333   Zn343   2.012   .     S
N334   Zn344   2.012   .     S
O335   Zn343   1.998   .     S
O336   Zn344   1.998   .     S
O337   Zn344   1.999   .     S
O338   Zn343   1.999   .     S
O339   Zn343   1.950   .     S
O340   Zn344   1.950   .     S
O341   Zn344   1.890   .     S
O342   Zn343   1.890   .     S
C349   O351    1.393   .     S
C349   O350    1.223   .     D
O351   H352    1.012   .     S
C353   O354    1.223   .     D
C353   O355    1.398   .     S
H356   O429    1.014   .     S
C359   O361    1.397   .     S
C359   O360    1.223   .     D
O361   H362    1.010   .     S
C363   O364    1.223   .     D
C363   O365    1.398   .     S
O365   H366    1.014   .     S
C371   C382    1.419   .     S
C371   O409    1.284   .     A
C371   O411    1.284   .     A
C372   O410    1.283   .     A
C372   O412    1.284   .     A
C372   C381    1.418   .     S
C373   C375    1.396   .     A
C373   C433    1.476   .     S
C373   C402    1.433   .     A
C374   C437    1.487   .     S
C374   C401    1.431   .     A
C374   C376    1.395   .     A
C375   H419    1.085   .     S
C375   C1065   1.387   1_554 S
C376   H420    1.085   .     S
C376   C1066   1.391   .     S
C377   C382    1.397   .     A
C377   H441    1.083   .     S
C377   C601    1.370   .     S
C378   C381    1.397   .     A
C378   H442    1.083   .     S
C379   C381    1.397   .     A
C379   H443    1.084   .     S
C380   H444    1.084   .     S
C380   C382    1.397   .     A
C380   C600    1.370   .     S
C383   H403    1.081   .     S
C383   N408    1.366   .     A
C383   C237    1.415   1_655 S
C384   H404    1.081   .     S
C384   N407    1.367   .     A
C385   H405    1.081   .     S
C385   N407    1.367   .     A
C386   H406    1.081   .     S
C386   N408    1.367   .     A
C386   C236    1.416   1_655 S
C387   O415    1.302   .     A
C387   O413    1.292   .     A
C387   C389    1.473   .     S
C388   O414    1.293   .     A
C388   O416    1.301   .     A
C388   C390    1.475   .     S
C389   C393    1.420   .     A
C389   C395    1.397   .     A
C390   C394    1.420   .     A
C390   C396    1.396   .     A
C391   H431    1.085   .     S
C391   C393    1.399   .     A
C391   C399    1.400   .     A
C392   H432    1.085   .     S
C392   C394    1.400   .     A
C392   C400    1.399   .     A
C393   C427    1.478   .     S
C394   C423    1.478   .     S
C395   H422    1.081   .     S
C395   C397    1.395   .     A
C396   H421    1.080   .     S
C396   C398    1.401   .     A
C397   C401    1.418   .     A
C397   C399    1.408   .     A
C398   C400    1.411   .     A
C398   C402    1.423   .     A
C399   C1041   1.387   .     S
C400   C1042   1.391   1_554 S
C401   C1068   1.421   .     S
C402   C1067   1.421   1_554 S
N407   Zn417   2.012   .     S
N408   Zn418   2.012   .     S
O409   Zn417   1.998   .     S
O410   Zn418   1.998   .     S
O411   Zn418   1.999   .     S
O412   Zn417   1.999   .     S
O413   Zn417   1.950   .     S
O414   Zn418   1.950   .     S
O415   Zn418   1.890   .     S
O416   Zn417   1.890   .     S
C423   O425    1.393   .     S
C423   O424    1.223   .     D
O425   H426    1.012   .     S
C427   O428    1.223   .     D
C427   O429    1.398   .     S
H430   O281    1.014   1_655 S
C433   O435    1.397   .     S
C433   O434    1.223   .     D
O435   H436    1.010   .     S
C437   O438    1.223   .     D
C437   O439    1.398   .     S
O439   H440    1.014   .     S
C445   C456    1.419   .     S
C445   O483    1.284   .     A
C445   O485    1.284   .     A
C446   O484    1.283   .     A
C446   O486    1.284   .     A
C446   C455    1.418   .     S
C447   C449    1.396   .     A
C447   C507    1.476   .     S
C447   C476    1.433   .     A
C448   C511    1.487   .     S
C448   C475    1.431   .     A
C448   C450    1.395   .     A
C449   H493    1.085   .     S
C449   C1139   1.387   1_554 S
C450   H494    1.085   .     S
C450   C1140   1.391   .     S
C451   C456    1.397   .     A
C451   H515    1.083   .     S
C451   C9      1.370   1_565 S
C452   C455    1.397   .     A
C452   H516    1.083   .     S
C453   C455    1.397   .     A
C453   H517    1.084   .     S
C454   H518    1.084   .     S
C454   C456    1.397   .     A
C454   C8      1.370   1_565 S
C457   H477    1.081   .     S
C457   N482    1.366   .     A
C457   C533    1.415   .     S
C458   H478    1.081   .     S
C458   N481    1.367   .     A
C458   C608    1.416   1_455 S
C459   H479    1.081   .     S
C459   N481    1.367   .     A
C459   C605    1.415   1_455 S
C460   H480    1.081   .     S
C460   N482    1.367   .     A
C460   C532    1.416   .     S
C461   O489    1.302   .     A
C461   O487    1.292   .     A
C461   C463    1.473   .     S
C462   O488    1.293   .     A
C462   O490    1.301   .     A
C462   C464    1.475   .     S
C463   C467    1.420   .     A
C463   C469    1.397   .     A
C464   C468    1.420   .     A
C464   C470    1.396   .     A
C465   H505    1.085   .     S
C465   C467    1.399   .     A
C465   C473    1.400   .     A
C466   H506    1.085   .     S
C466   C468    1.400   .     A
C466   C474    1.399   .     A
C467   C501    1.478   .     S
C468   C497    1.478   .     S
C469   H496    1.081   .     S
C469   C471    1.395   .     A
C470   H495    1.080   .     S
C470   C472    1.401   .     A
C471   C475    1.418   .     A
C471   C473    1.408   .     A
C472   C474    1.411   .     A
C472   C476    1.423   .     A
C473   C1115   1.387   .     S
C474   C1116   1.391   1_554 S
C475   C1142   1.421   .     S
C476   C1141   1.421   1_554 S
N481   Zn491   2.012   .     S
N482   Zn492   2.012   .     S
O483   Zn491   1.998   .     S
O484   Zn492   1.998   .     S
O485   Zn492   1.999   .     S
O486   Zn491   1.999   .     S
O487   Zn491   1.950   .     S
O488   Zn492   1.950   .     S
O489   Zn492   1.890   .     S
O490   Zn491   1.890   .     S
C497   O499    1.393   .     S
C497   O498    1.223   .     D
O499   H500    1.012   .     S
C501   O502    1.223   .     D
C501   O503    1.398   .     S
O503   H652    1.014   1_455 S
H504   O577    1.014   .     S
C507   O509    1.397   .     S
C507   O508    1.223   .     D
O509   H510    1.010   .     S
C511   O512    1.223   .     D
C511   O513    1.398   .     S
O513   H514    1.014   .     S
C519   C530    1.419   .     S
C519   O557    1.284   .     A
C519   O559    1.284   .     A
C520   O558    1.283   .     A
C520   O560    1.284   .     A
C520   C529    1.418   .     S
C521   C523    1.396   .     A
C521   C581    1.476   .     S
C521   C550    1.433   .     A
C522   C585    1.487   .     S
C522   C549    1.431   .     A
C522   C524    1.395   .     A
C523   H567    1.085   .     S
C523   C1213   1.387   1_554 S
C524   H568    1.085   .     S
C524   C1214   1.391   .     S
C525   C530    1.397   .     A
C525   H589    1.083   .     S
C525   C83     1.370   1_565 S
C526   C529    1.397   .     A
C526   H590    1.083   .     S
C527   C529    1.397   .     A
C527   H591    1.084   .     S
C528   H592    1.084   .     S
C528   C530    1.397   .     A
C528   C82     1.370   1_565 S
C531   H551    1.081   .     S
C531   N556    1.366   .     A
C531   C607    1.415   .     S
C532   H552    1.081   .     S
C532   N555    1.367   .     A
C533   H553    1.081   .     S
C533   N555    1.367   .     A
C534   H554    1.081   .     S
C534   N556    1.367   .     A
C534   C606    1.416   .     S
C535   O563    1.302   .     A
C535   O561    1.292   .     A
C535   C537    1.473   .     S
C536   O562    1.293   .     A
C536   O564    1.301   .     A
C536   C538    1.475   .     S
C537   C541    1.420   .     A
C537   C543    1.397   .     A
C538   C542    1.420   .     A
C538   C544    1.396   .     A
C539   H579    1.085   .     S
C539   C541    1.399   .     A
C539   C547    1.400   .     A
C540   H580    1.085   .     S
C540   C542    1.400   .     A
C540   C548    1.399   .     A
C541   C575    1.478   .     S
C542   C571    1.478   .     S
C543   H570    1.081   .     S
C543   C545    1.395   .     A
C544   H569    1.080   .     S
C544   C546    1.401   .     A
C545   C549    1.418   .     A
C545   C547    1.408   .     A
C546   C548    1.411   .     A
C546   C550    1.423   .     A
C547   C1189   1.387   .     S
C548   C1190   1.391   1_554 S
C549   C1216   1.421   .     S
C550   C1215   1.421   1_554 S
N555   Zn565   2.012   .     S
N556   Zn566   2.012   .     S
O557   Zn565   1.998   .     S
O558   Zn566   1.998   .     S
O559   Zn566   1.999   .     S
O560   Zn565   1.999   .     S
O561   Zn565   1.950   .     S
O562   Zn566   1.950   .     S
O563   Zn566   1.890   .     S
O564   Zn565   1.890   .     S
C571   O573    1.393   .     S
C571   O572    1.223   .     D
O573   H574    1.012   .     S
C575   O576    1.223   .     D
C575   O577    1.398   .     S
H578   O651    1.014   .     S
C581   O583    1.397   .     S
C581   O582    1.223   .     D
O583   H584    1.010   .     S
C585   O586    1.223   .     D
C585   O587    1.398   .     S
O587   H588    1.014   .     S
C593   C604    1.419   .     S
C593   O631    1.284   .     A
C593   O633    1.284   .     A
C594   O632    1.283   .     A
C594   O634    1.284   .     A
C594   C603    1.418   .     S
C595   C597    1.396   .     A
C595   C655    1.476   .     S
C595   C624    1.433   .     A
C596   C659    1.487   .     S
C596   C623    1.431   .     A
C596   C598    1.395   .     A
C597   H641    1.085   .     S
C597   C1287   1.387   1_554 S
C598   H642    1.085   .     S
C598   C1288   1.391   .     S
C599   C604    1.397   .     A
C599   H663    1.083   .     S
C599   C157    1.370   1_565 S
C600   C603    1.397   .     A
C600   H664    1.083   .     S
C601   C603    1.397   .     A
C601   H665    1.084   .     S
C602   H666    1.084   .     S
C602   C604    1.397   .     A
C602   C156    1.370   1_565 S
C605   H625    1.081   .     S
C605   N630    1.366   .     A
C605   C459    1.415   1_655 S
C606   H626    1.081   .     S
C606   N629    1.367   .     A
C607   H627    1.081   .     S
C607   N629    1.367   .     A
C608   H628    1.081   .     S
C608   N630    1.367   .     A
C608   C458    1.416   1_655 S
C609   O637    1.302   .     A
C609   O635    1.292   .     A
C609   C611    1.473   .     S
C610   O636    1.293   .     A
C610   O638    1.301   .     A
C610   C612    1.475   .     S
C611   C615    1.420   .     A
C611   C617    1.397   .     A
C612   C616    1.420   .     A
C612   C618    1.396   .     A
C613   H653    1.085   .     S
C613   C615    1.399   .     A
C613   C621    1.400   .     A
C614   H654    1.085   .     S
C614   C616    1.400   .     A
C614   C622    1.399   .     A
C615   C649    1.478   .     S
C616   C645    1.478   .     S
C617   H644    1.081   .     S
C617   C619    1.395   .     A
C618   H643    1.080   .     S
C618   C620    1.401   .     A
C619   C623    1.418   .     A
C619   C621    1.408   .     A
C620   C622    1.411   .     A
C620   C624    1.423   .     A
C621   C1263   1.387   .     S
C622   C1264   1.391   1_554 S
C623   C1290   1.421   .     S
C624   C1289   1.421   1_554 S
N629   Zn639   2.012   .     S
N630   Zn640   2.012   .     S
O631   Zn639   1.998   .     S
O632   Zn640   1.998   .     S
O633   Zn640   1.999   .     S
O634   Zn639   1.999   .     S
O635   Zn639   1.950   .     S
O636   Zn640   1.950   .     S
O637   Zn640   1.890   .     S
O638   Zn639   1.890   .     S
C645   O647    1.393   .     S
C645   O646    1.223   .     D
O647   H648    1.012   .     S
C649   O650    1.223   .     D
C649   O651    1.398   .     S
H652   O503    1.014   1_655 S
C655   O657    1.397   .     S
C655   O656    1.223   .     D
O657   H658    1.010   .     S
C659   O660    1.223   .     D
C659   O661    1.398   .     S
O661   H662    1.014   .     S
C667   C678    1.419   .     S
C667   O705    1.284   .     A
C667   O707    1.284   .     A
C668   O706    1.283   .     A
C668   O708    1.284   .     A
C668   C677    1.418   .     S
C669   C671    1.396   .     A
C669   C729    1.476   .     S
C669   C698    1.433   .     A
C670   C733    1.487   .     S
C670   C697    1.431   .     A
C670   C672    1.395   .     A
C671   H715    1.085   .     S
C672   H716    1.085   .     S
C672   C30     1.391   1_556 S
C673   C678    1.397   .     A
C673   H737    1.083   .     S
C673   C897    1.370   .     S
C674   C677    1.397   .     A
C674   H738    1.083   .     S
C674   C1120   1.370   1_545 S
C675   C677    1.397   .     A
C675   H739    1.084   .     S
C675   C1117   1.370   1_545 S
C676   H740    1.084   .     S
C676   C678    1.397   .     A
C676   C896    1.370   .     S
C679   H699    1.081   .     S
C679   N704    1.366   .     A
C679   C755    1.415   .     S
C680   H700    1.081   .     S
C680   N703    1.367   .     A
C680   C830    1.416   1_455 S
C681   H701    1.081   .     S
C681   N703    1.367   .     A
C681   C827    1.415   1_455 S
C682   H702    1.081   .     S
C682   N704    1.367   .     A
C682   C754    1.416   .     S
C683   O711    1.302   .     A
C683   O709    1.292   .     A
C683   C685    1.473   .     S
C684   O710    1.293   .     A
C684   O712    1.301   .     A
C684   C686    1.475   .     S
C685   C689    1.420   .     A
C685   C691    1.397   .     A
C686   C690    1.420   .     A
C686   C692    1.396   .     A
C687   H727    1.085   .     S
C687   C689    1.399   .     A
C687   C695    1.400   .     A
C688   H728    1.085   .     S
C688   C690    1.400   .     A
C688   C696    1.399   .     A
C689   C723    1.478   .     S
C690   C719    1.478   .     S
C691   H718    1.081   .     S
C691   C693    1.395   .     A
C692   H717    1.080   .     S
C692   C694    1.401   .     A
C693   C697    1.418   .     A
C693   C695    1.408   .     A
C694   C696    1.411   .     A
C694   C698    1.423   .     A
C695   C5      1.387   1_556 S
C697   C32     1.421   1_556 S
N703   Zn713   2.012   .     S
N704   Zn714   2.012   .     S
O705   Zn713   1.998   .     S
O706   Zn714   1.998   .     S
O707   Zn714   1.999   .     S
O708   Zn713   1.999   .     S
O709   Zn713   1.950   .     S
O710   Zn714   1.950   .     S
O711   Zn714   1.890   .     S
O712   Zn713   1.890   .     S
C719   O721    1.393   .     S
C719   O720    1.223   .     D
O721   H722    1.012   .     S
C723   O724    1.223   .     D
C723   O725    1.398   .     S
O725   H874    1.014   1_455 S
H726   O799    1.014   .     S
C729   O731    1.397   .     S
C729   O730    1.223   .     D
O731   H732    1.010   .     S
C733   O734    1.223   .     D
C733   O735    1.398   .     S
O735   H736    1.014   .     S
C741   C752    1.419   .     S
C741   O779    1.284   .     A
C741   O781    1.284   .     A
C742   O780    1.283   .     A
C742   O782    1.284   .     A
C742   C751    1.418   .     S
C743   C745    1.396   .     A
C743   C803    1.476   .     S
C743   C772    1.433   .     A
C744   C807    1.487   .     S
C744   C771    1.431   .     A
C744   C746    1.395   .     A
C745   H789    1.085   .     S
C746   H790    1.085   .     S
C746   C104    1.391   1_556 S
C747   C752    1.397   .     A
C747   H811    1.083   .     S
C747   C971    1.370   .     S
C748   C751    1.397   .     A
C748   H812    1.083   .     S
C748   C1194   1.370   1_545 S
C749   C751    1.397   .     A
C749   H813    1.084   .     S
C749   C1191   1.370   1_545 S
C750   H814    1.084   .     S
C750   C752    1.397   .     A
C750   C970    1.370   .     S
C753   H773    1.081   .     S
C753   N778    1.366   .     A
C753   C829    1.415   .     S
C754   H774    1.081   .     S
C754   N777    1.367   .     A
C755   H775    1.081   .     S
C755   N777    1.367   .     A
C756   H776    1.081   .     S
C756   N778    1.367   .     A
C756   C828    1.416   .     S
C757   O785    1.302   .     A
C757   O783    1.292   .     A
C757   C759    1.473   .     S
C758   O784    1.293   .     A
C758   O786    1.301   .     A
C758   C760    1.475   .     S
C759   C763    1.420   .     A
C759   C765    1.397   .     A
C760   C764    1.420   .     A
C760   C766    1.396   .     A
C761   H801    1.085   .     S
C761   C763    1.399   .     A
C761   C769    1.400   .     A
C762   H802    1.085   .     S
C762   C764    1.400   .     A
C762   C770    1.399   .     A
C763   C797    1.478   .     S
C764   C793    1.478   .     S
C765   H792    1.081   .     S
C765   C767    1.395   .     A
C766   H791    1.080   .     S
C766   C768    1.401   .     A
C767   C771    1.418   .     A
C767   C769    1.408   .     A
C768   C770    1.411   .     A
C768   C772    1.423   .     A
C769   C79     1.387   1_556 S
C771   C106    1.421   1_556 S
N777   Zn787   2.012   .     S
N778   Zn788   2.012   .     S
O779   Zn787   1.998   .     S
O780   Zn788   1.998   .     S
O781   Zn788   1.999   .     S
O782   Zn787   1.999   .     S
O783   Zn787   1.950   .     S
O784   Zn788   1.950   .     S
O785   Zn788   1.890   .     S
O786   Zn787   1.890   .     S
C793   O795    1.393   .     S
C793   O794    1.223   .     D
O795   H796    1.012   .     S
C797   O798    1.223   .     D
C797   O799    1.398   .     S
H800   O873    1.014   .     S
C803   O805    1.397   .     S
C803   O804    1.223   .     D
O805   H806    1.010   .     S
C807   O808    1.223   .     D
C807   O809    1.398   .     S
O809   H810    1.014   .     S
C815   C826    1.419   .     S
C815   O853    1.284   .     A
C815   O855    1.284   .     A
C816   O854    1.283   .     A
C816   O856    1.284   .     A
C816   C825    1.418   .     S
C817   C819    1.396   .     A
C817   C877    1.476   .     S
C817   C846    1.433   .     A
C818   C881    1.487   .     S
C818   C845    1.431   .     A
C818   C820    1.395   .     A
C819   H863    1.085   .     S
C820   H864    1.085   .     S
C820   C178    1.391   1_556 S
C821   C826    1.397   .     A
C821   H885    1.083   .     S
C821   C1045   1.370   .     S
C822   C825    1.397   .     A
C822   H886    1.083   .     S
C822   C1268   1.370   1_545 S
C823   C825    1.397   .     A
C823   H887    1.084   .     S
C823   C1265   1.370   1_545 S
C824   H888    1.084   .     S
C824   C826    1.397   .     A
C824   C1044   1.370   .     S
C827   H847    1.081   .     S
C827   N852    1.366   .     A
C827   C681    1.415   1_655 S
C828   H848    1.081   .     S
C828   N851    1.367   .     A
C829   H849    1.081   .     S
C829   N851    1.367   .     A
C830   H850    1.081   .     S
C830   N852    1.367   .     A
C830   C680    1.416   1_655 S
C831   O859    1.302   .     A
C831   O857    1.292   .     A
C831   C833    1.473   .     S
C832   O858    1.293   .     A
C832   O860    1.301   .     A
C832   C834    1.475   .     S
C833   C837    1.420   .     A
C833   C839    1.397   .     A
C834   C838    1.420   .     A
C834   C840    1.396   .     A
C835   H875    1.085   .     S
C835   C837    1.399   .     A
C835   C843    1.400   .     A
C836   H876    1.085   .     S
C836   C838    1.400   .     A
C836   C844    1.399   .     A
C837   C871    1.478   .     S
C838   C867    1.478   .     S
C839   H866    1.081   .     S
C839   C841    1.395   .     A
C840   H865    1.080   .     S
C840   C842    1.401   .     A
C841   C845    1.418   .     A
C841   C843    1.408   .     A
C842   C844    1.411   .     A
C842   C846    1.423   .     A
C843   C153    1.387   1_556 S
C845   C180    1.421   1_556 S
N851   Zn861   2.012   .     S
N852   Zn862   2.012   .     S
O853   Zn861   1.998   .     S
O854   Zn862   1.998   .     S
O855   Zn862   1.999   .     S
O856   Zn861   1.999   .     S
O857   Zn861   1.950   .     S
O858   Zn862   1.950   .     S
O859   Zn862   1.890   .     S
O860   Zn861   1.890   .     S
C867   O869    1.393   .     S
C867   O868    1.223   .     D
O869   H870    1.012   .     S
C871   O872    1.223   .     D
C871   O873    1.398   .     S
H874   O725    1.014   1_655 S
C877   O879    1.397   .     S
C877   O878    1.223   .     D
O879   H880    1.010   .     S
C881   O882    1.223   .     D
C881   O883    1.398   .     S
O883   H884    1.014   .     S
C889   C900    1.419   .     S
C889   O927    1.284   .     A
C889   O929    1.284   .     A
C890   O928    1.283   .     A
C890   O930    1.284   .     A
C890   C899    1.418   .     S
C891   C893    1.396   .     A
C891   C951    1.476   .     S
C891   C920    1.433   .     A
C892   C955    1.487   .     S
C892   C919    1.431   .     A
C892   C894    1.395   .     A
C893   H937    1.085   .     S
C894   H938    1.085   .     S
C894   C252    1.391   1_556 S
C895   C900    1.397   .     A
C895   H959    1.083   .     S
C895   C1119   1.370   .     S
C896   C899    1.397   .     A
C896   H960    1.083   .     S
C897   C899    1.397   .     A
C897   H961    1.084   .     S
C898   H962    1.084   .     S
C898   C900    1.397   .     A
C898   C1118   1.370   .     S
C901   H921    1.081   .     S
C901   N926    1.366   .     A
C901   C977    1.415   .     S
C902   H922    1.081   .     S
C902   N925    1.367   .     A
C902   C1052   1.416   1_455 S
C903   H923    1.081   .     S
C903   N925    1.367   .     A
C903   C1049   1.415   1_455 S
C904   H924    1.081   .     S
C904   N926    1.367   .     A
C904   C976    1.416   .     S
C905   O933    1.302   .     A
C905   O931    1.292   .     A
C905   C907    1.473   .     S
C906   O932    1.293   .     A
C906   O934    1.301   .     A
C906   C908    1.475   .     S
C907   C911    1.420   .     A
C907   C913    1.397   .     A
C908   C912    1.420   .     A
C908   C914    1.396   .     A
C909   H949    1.085   .     S
C909   C911    1.399   .     A
C909   C917    1.400   .     A
C910   H950    1.085   .     S
C910   C912    1.400   .     A
C910   C918    1.399   .     A
C911   C945    1.478   .     S
C912   C941    1.478   .     S
C913   H940    1.081   .     S
C913   C915    1.395   .     A
C914   H939    1.080   .     S
C914   C916    1.401   .     A
C915   C919    1.418   .     A
C915   C917    1.408   .     A
C916   C918    1.411   .     A
C916   C920    1.423   .     A
C917   C227    1.387   1_556 S
C919   C254    1.421   1_556 S
N925   Zn935   2.012   .     S
N926   Zn936   2.012   .     S
O927   Zn935   1.998   .     S
O928   Zn936   1.998   .     S
O929   Zn936   1.999   .     S
O930   Zn935   1.999   .     S
O931   Zn935   1.950   .     S
O932   Zn936   1.950   .     S
O933   Zn936   1.890   .     S
O934   Zn935   1.890   .     S
C941   O943    1.393   .     S
C941   O942    1.223   .     D
O943   H944    1.012   .     S
C945   O946    1.223   .     D
C945   O947    1.398   .     S
O947   H1096   1.014   1_455 S
H948   O1021   1.014   .     S
C951   O953    1.397   .     S
C951   O952    1.223   .     D
O953   H954    1.010   .     S
C955   O956    1.223   .     D
C955   O957    1.398   .     S
O957   H958    1.014   .     S
C963   C974    1.419   .     S
C963   O1001   1.284   .     A
C963   O1003   1.284   .     A
C964   O1002   1.283   .     A
C964   O1004   1.284   .     A
C964   C973    1.418   .     S
C965   C967    1.396   .     A
C965   C1025   1.476   .     S
C965   C994    1.433   .     A
C966   C1029   1.487   .     S
C966   C993    1.431   .     A
C966   C968    1.395   .     A
C967   H1011   1.085   .     S
C968   H1012   1.085   .     S
C968   C326    1.391   1_556 S
C969   C974    1.397   .     A
C969   H1033   1.083   .     S
C969   C1193   1.370   .     S
C970   C973    1.397   .     A
C970   H1034   1.083   .     S
C971   C973    1.397   .     A
C971   H1035   1.084   .     S
C972   H1036   1.084   .     S
C972   C974    1.397   .     A
C972   C1192   1.370   .     S
C975   H995    1.081   .     S
C975   N1000   1.366   .     A
C975   C1051   1.415   .     S
C976   H996    1.081   .     S
C976   N999    1.367   .     A
C977   H997    1.081   .     S
C977   N999    1.367   .     A
C978   H998    1.081   .     S
C978   N1000   1.367   .     A
C978   C1050   1.416   .     S
C979   O1007   1.302   .     A
C979   O1005   1.292   .     A
C979   C981    1.473   .     S
C980   O1006   1.293   .     A
C980   O1008   1.301   .     A
C980   C982    1.475   .     S
C981   C985    1.420   .     A
C981   C987    1.397   .     A
C982   C986    1.420   .     A
C982   C988    1.396   .     A
C983   H1023   1.085   .     S
C983   C985    1.399   .     A
C983   C991    1.400   .     A
C984   H1024   1.085   .     S
C984   C986    1.400   .     A
C984   C992    1.399   .     A
C985   C1019   1.478   .     S
C986   C1015   1.478   .     S
C987   H1014   1.081   .     S
C987   C989    1.395   .     A
C988   H1013   1.080   .     S
C988   C990    1.401   .     A
C989   C993    1.418   .     A
C989   C991    1.408   .     A
C990   C992    1.411   .     A
C990   C994    1.423   .     A
C991   C301    1.387   1_556 S
C993   C328    1.421   1_556 S
N999   Zn1009  2.012   .     S
N1000  Zn1010  2.012   .     S
O1001  Zn1009  1.998   .     S
O1002  Zn1010  1.998   .     S
O1003  Zn1010  1.999   .     S
O1004  Zn1009  1.999   .     S
O1005  Zn1009  1.950   .     S
O1006  Zn1010  1.950   .     S
O1007  Zn1010  1.890   .     S
O1008  Zn1009  1.890   .     S
C1015  O1017   1.393   .     S
C1015  O1016   1.223   .     D
O1017  H1018   1.012   .     S
C1019  O1020   1.223   .     D
C1019  O1021   1.398   .     S
H1022  O1095   1.014   .     S
C1025  O1027   1.397   .     S
C1025  O1026   1.223   .     D
O1027  H1028   1.010   .     S
C1029  O1030   1.223   .     D
C1029  O1031   1.398   .     S
O1031  H1032   1.014   .     S
C1037  C1048   1.419   .     S
C1037  O1075   1.284   .     A
C1037  O1077   1.284   .     A
C1038  O1076   1.283   .     A
C1038  O1078   1.284   .     A
C1038  C1047   1.418   .     S
C1039  C1041   1.396   .     A
C1039  C1099   1.476   .     S
C1039  C1068   1.433   .     A
C1040  C1103   1.487   .     S
C1040  C1067   1.431   .     A
C1040  C1042   1.395   .     A
C1041  H1085   1.085   .     S
C1042  H1086   1.085   .     S
C1042  C400    1.391   1_556 S
C1043  C1048   1.397   .     A
C1043  H1107   1.083   .     S
C1043  C1267   1.370   .     S
C1044  C1047   1.397   .     A
C1044  H1108   1.083   .     S
C1045  C1047   1.397   .     A
C1045  H1109   1.084   .     S
C1046  H1110   1.084   .     S
C1046  C1048   1.397   .     A
C1046  C1266   1.370   .     S
C1049  H1069   1.081   .     S
C1049  N1074   1.366   .     A
C1049  C903    1.415   1_655 S
C1050  H1070   1.081   .     S
C1050  N1073   1.367   .     A
C1051  H1071   1.081   .     S
C1051  N1073   1.367   .     A
C1052  H1072   1.081   .     S
C1052  N1074   1.367   .     A
C1052  C902    1.416   1_655 S
C1053  O1081   1.302   .     A
C1053  O1079   1.292   .     A
C1053  C1055   1.473   .     S
C1054  O1080   1.293   .     A
C1054  O1082   1.301   .     A
C1054  C1056   1.475   .     S
C1055  C1059   1.420   .     A
C1055  C1061   1.397   .     A
C1056  C1060   1.420   .     A
C1056  C1062   1.396   .     A
C1057  H1097   1.085   .     S
C1057  C1059   1.399   .     A
C1057  C1065   1.400   .     A
C1058  H1098   1.085   .     S
C1058  C1060   1.400   .     A
C1058  C1066   1.399   .     A
C1059  C1093   1.478   .     S
C1060  C1089   1.478   .     S
C1061  H1088   1.081   .     S
C1061  C1063   1.395   .     A
C1062  H1087   1.080   .     S
C1062  C1064   1.401   .     A
C1063  C1067   1.418   .     A
C1063  C1065   1.408   .     A
C1064  C1066   1.411   .     A
C1064  C1068   1.423   .     A
C1065  C375    1.387   1_556 S
C1067  C402    1.421   1_556 S
N1073  Zn1083  2.012   .     S
N1074  Zn1084  2.012   .     S
O1075  Zn1083  1.998   .     S
O1076  Zn1084  1.998   .     S
O1077  Zn1084  1.999   .     S
O1078  Zn1083  1.999   .     S
O1079  Zn1083  1.950   .     S
O1080  Zn1084  1.950   .     S
O1081  Zn1084  1.890   .     S
O1082  Zn1083  1.890   .     S
C1089  O1091   1.393   .     S
C1089  O1090   1.223   .     D
O1091  H1092   1.012   .     S
C1093  O1094   1.223   .     D
C1093  O1095   1.398   .     S
H1096  O947    1.014   1_655 S
C1099  O1101   1.397   .     S
C1099  O1100   1.223   .     D
O1101  H1102   1.010   .     S
C1103  O1104   1.223   .     D
C1103  O1105   1.398   .     S
O1105  H1106   1.014   .     S
C1111  C1122   1.419   .     S
C1111  O1149   1.284   .     A
C1111  O1151   1.284   .     A
C1112  O1150   1.283   .     A
C1112  O1152   1.284   .     A
C1112  C1121   1.418   .     S
C1113  C1115   1.396   .     A
C1113  C1173   1.476   .     S
C1113  C1142   1.433   .     A
C1114  C1177   1.487   .     S
C1114  C1141   1.431   .     A
C1114  C1116   1.395   .     A
C1115  H1159   1.085   .     S
C1116  H1160   1.085   .     S
C1116  C474    1.391   1_556 S
C1117  C1122   1.397   .     A
C1117  H1181   1.083   .     S
C1117  C675    1.370   1_565 S
C1118  C1121   1.397   .     A
C1118  H1182   1.083   .     S
C1119  C1121   1.397   .     A
C1119  H1183   1.084   .     S
C1120  H1184   1.084   .     S
C1120  C1122   1.397   .     A
C1120  C674    1.370   1_565 S
C1123  H1143   1.081   .     S
C1123  N1148   1.366   .     A
C1123  C1199   1.415   .     S
C1124  H1144   1.081   .     S
C1124  N1147   1.367   .     A
C1124  C1274   1.416   1_455 S
C1125  H1145   1.081   .     S
C1125  N1147   1.367   .     A
C1125  C1271   1.415   1_455 S
C1126  H1146   1.081   .     S
C1126  N1148   1.367   .     A
C1126  C1198   1.416   .     S
C1127  O1155   1.302   .     A
C1127  O1153   1.292   .     A
C1127  C1129   1.473   .     S
C1128  O1154   1.293   .     A
C1128  O1156   1.301   .     A
C1128  C1130   1.475   .     S
C1129  C1133   1.420   .     A
C1129  C1135   1.397   .     A
C1130  C1134   1.420   .     A
C1130  C1136   1.396   .     A
C1131  H1171   1.085   .     S
C1131  C1133   1.399   .     A
C1131  C1139   1.400   .     A
C1132  H1172   1.085   .     S
C1132  C1134   1.400   .     A
C1132  C1140   1.399   .     A
C1133  C1167   1.478   .     S
C1134  C1163   1.478   .     S
C1135  H1162   1.081   .     S
C1135  C1137   1.395   .     A
C1136  H1161   1.080   .     S
C1136  C1138   1.401   .     A
C1137  C1141   1.418   .     A
C1137  C1139   1.408   .     A
C1138  C1140   1.411   .     A
C1138  C1142   1.423   .     A
C1139  C449    1.387   1_556 S
C1141  C476    1.421   1_556 S
N1147  Zn1157  2.012   .     S
N1148  Zn1158  2.012   .     S
O1149  Zn1157  1.998   .     S
O1150  Zn1158  1.998   .     S
O1151  Zn1158  1.999   .     S
O1152  Zn1157  1.999   .     S
O1153  Zn1157  1.950   .     S
O1154  Zn1158  1.950   .     S
O1155  Zn1158  1.890   .     S
O1156  Zn1157  1.890   .     S
C1163  O1165   1.393   .     S
C1163  O1164   1.223   .     D
O1165  H1166   1.012   .     S
C1167  O1168   1.223   .     D
C1167  O1169   1.398   .     S
O1169  H1318   1.014   1_455 S
H1170  O1243   1.014   .     S
C1173  O1175   1.397   .     S
C1173  O1174   1.223   .     D
O1175  H1176   1.010   .     S
C1177  O1178   1.223   .     D
C1177  O1179   1.398   .     S
O1179  H1180   1.014   .     S
C1185  C1196   1.419   .     S
C1185  O1223   1.284   .     A
C1185  O1225   1.284   .     A
C1186  O1224   1.283   .     A
C1186  O1226   1.284   .     A
C1186  C1195   1.418   .     S
C1187  C1189   1.396   .     A
C1187  C1247   1.476   .     S
C1187  C1216   1.433   .     A
C1188  C1251   1.487   .     S
C1188  C1215   1.431   .     A
C1188  C1190   1.395   .     A
C1189  H1233   1.085   .     S
C1190  H1234   1.085   .     S
C1190  C548    1.391   1_556 S
C1191  C1196   1.397   .     A
C1191  H1255   1.083   .     S
C1191  C749    1.370   1_565 S
C1192  C1195   1.397   .     A
C1192  H1256   1.083   .     S
C1193  C1195   1.397   .     A
C1193  H1257   1.084   .     S
C1194  H1258   1.084   .     S
C1194  C1196   1.397   .     A
C1194  C748    1.370   1_565 S
C1197  H1217   1.081   .     S
C1197  N1222   1.366   .     A
C1197  C1273   1.415   .     S
C1198  H1218   1.081   .     S
C1198  N1221   1.367   .     A
C1199  H1219   1.081   .     S
C1199  N1221   1.367   .     A
C1200  H1220   1.081   .     S
C1200  N1222   1.367   .     A
C1200  C1272   1.416   .     S
C1201  O1229   1.302   .     A
C1201  O1227   1.292   .     A
C1201  C1203   1.473   .     S
C1202  O1228   1.293   .     A
C1202  O1230   1.301   .     A
C1202  C1204   1.475   .     S
C1203  C1207   1.420   .     A
C1203  C1209   1.397   .     A
C1204  C1208   1.420   .     A
C1204  C1210   1.396   .     A
C1205  H1245   1.085   .     S
C1205  C1207   1.399   .     A
C1205  C1213   1.400   .     A
C1206  H1246   1.085   .     S
C1206  C1208   1.400   .     A
C1206  C1214   1.399   .     A
C1207  C1241   1.478   .     S
C1208  C1237   1.478   .     S
C1209  H1236   1.081   .     S
C1209  C1211   1.395   .     A
C1210  H1235   1.080   .     S
C1210  C1212   1.401   .     A
C1211  C1215   1.418   .     A
C1211  C1213   1.408   .     A
C1212  C1214   1.411   .     A
C1212  C1216   1.423   .     A
C1213  C523    1.387   1_556 S
C1215  C550    1.421   1_556 S
N1221  Zn1231  2.012   .     S
N1222  Zn1232  2.012   .     S
O1223  Zn1231  1.998   .     S
O1224  Zn1232  1.998   .     S
O1225  Zn1232  1.999   .     S
O1226  Zn1231  1.999   .     S
O1227  Zn1231  1.950   .     S
O1228  Zn1232  1.950   .     S
O1229  Zn1232  1.890   .     S
O1230  Zn1231  1.890   .     S
C1237  O1239   1.393   .     S
C1237  O1238   1.223   .     D
O1239  H1240   1.012   .     S
C1241  O1242   1.223   .     D
C1241  O1243   1.398   .     S
H1244  O1317   1.014   .     S
C1247  O1249   1.397   .     S
C1247  O1248   1.223   .     D
O1249  H1250   1.010   .     S
C1251  O1252   1.223   .     D
C1251  O1253   1.398   .     S
O1253  H1254   1.014   .     S
C1259  C1270   1.419   .     S
C1259  O1297   1.284   .     A
C1259  O1299   1.284   .     A
C1260  O1298   1.283   .     A
C1260  O1300   1.284   .     A
C1260  C1269   1.418   .     S
C1261  C1263   1.396   .     A
C1261  C1321   1.476   .     S
C1261  C1290   1.433   .     A
C1262  C1325   1.487   .     S
C1262  C1289   1.431   .     A
C1262  C1264   1.395   .     A
C1263  H1307   1.085   .     S
C1264  H1308   1.085   .     S
C1264  C622    1.391   1_556 S
C1265  C1270   1.397   .     A
C1265  H1329   1.083   .     S
C1265  C823    1.370   1_565 S
C1266  C1269   1.397   .     A
C1266  H1330   1.083   .     S
C1267  C1269   1.397   .     A
C1267  H1331   1.084   .     S
C1268  H1332   1.084   .     S
C1268  C1270   1.397   .     A
C1268  C822    1.370   1_565 S
C1271  H1291   1.081   .     S
C1271  N1296   1.366   .     A
C1271  C1125   1.415   1_655 S
C1272  H1292   1.081   .     S
C1272  N1295   1.367   .     A
C1273  H1293   1.081   .     S
C1273  N1295   1.367   .     A
C1274  H1294   1.081   .     S
C1274  N1296   1.367   .     A
C1274  C1124   1.416   1_655 S
C1275  O1303   1.302   .     A
C1275  O1301   1.292   .     A
C1275  C1277   1.473   .     S
C1276  O1302   1.293   .     A
C1276  O1304   1.301   .     A
C1276  C1278   1.475   .     S
C1277  C1281   1.420   .     A
C1277  C1283   1.397   .     A
C1278  C1282   1.420   .     A
C1278  C1284   1.396   .     A
C1279  H1319   1.085   .     S
C1279  C1281   1.399   .     A
C1279  C1287   1.400   .     A
C1280  H1320   1.085   .     S
C1280  C1282   1.400   .     A
C1280  C1288   1.399   .     A
C1281  C1315   1.478   .     S
C1282  C1311   1.478   .     S
C1283  H1310   1.081   .     S
C1283  C1285   1.395   .     A
C1284  H1309   1.080   .     S
C1284  C1286   1.401   .     A
C1285  C1289   1.418   .     A
C1285  C1287   1.408   .     A
C1286  C1288   1.411   .     A
C1286  C1290   1.423   .     A
C1287  C597    1.387   1_556 S
C1289  C624    1.421   1_556 S
N1295  Zn1305  2.012   .     S
N1296  Zn1306  2.012   .     S
O1297  Zn1305  1.998   .     S
O1298  Zn1306  1.998   .     S
O1299  Zn1306  1.999   .     S
O1300  Zn1305  1.999   .     S
O1301  Zn1305  1.950   .     S
O1302  Zn1306  1.950   .     S
O1303  Zn1306  1.890   .     S
O1304  Zn1305  1.890   .     S
C1311  O1313   1.393   .     S
C1311  O1312   1.223   .     D
O1313  H1314   1.012   .     S
C1315  O1316   1.223   .     D
C1315  O1317   1.398   .     S
H1318  O1169   1.014   1_655 S
C1321  O1323   1.397   .     S
C1321  O1322   1.223   .     D
O1323  H1324   1.010   .     S
C1325  O1326   1.223   .     D
C1325  O1327   1.398   .     S
O1327  H1328   1.014   .     S
