data_str_m3_o1_o16_pcu_sym.98
_audit_creation_date              2020-01-03
_audit_creation_method            'Materials Studio'
_symmetry_space_group_name_H-M    'P1'
_symmetry_Int_Tables_number       1
_symmetry_cell_setting            triclinic
loop_
_symmetry_equiv_pos_as_xyz
  x,y,z
_cell_length_a                    29.6238
_cell_length_b                    32.0566
_cell_length_c                    26.3305
_cell_angle_alpha                 90.7775
_cell_angle_beta                  69.8627
_cell_angle_gamma                 90.4422
loop_
_atom_site_label
_atom_site_type_symbol
_atom_site_fract_x
_atom_site_fract_y
_atom_site_fract_z
_atom_site_U_iso_or_equiv
_atom_site_adp_type
_atom_site_occupancy
C1     C     0.16717   0.24665   0.24897   0.00000  Uiso   1.00
C2     C     0.15161   0.15713   0.48560   0.00000  Uiso   1.00
C3     C     0.15374   0.17902   0.43862   0.00000  Uiso   1.00
C4     C     0.18602   0.16756   0.00995   0.00000  Uiso   1.00
C5     C     0.22689   0.19206   0.48224   0.00000  Uiso   1.00
C6     C     0.22817   0.21420   0.43632   0.00000  Uiso   1.00
C7     C     0.18861   0.21102   0.41841   0.00000  Uiso   1.00
C8     C     0.17735   0.15924   0.06404   0.00000  Uiso   1.00
C9     C     0.25575   0.18608   0.05775   0.00000  Uiso   1.00
C10    C     0.12256   0.16677   0.41105   0.00000  Uiso   1.00
C11    C     0.21129   0.31224   0.22241   0.00000  Uiso   1.00
C12    C     0.13988   0.16804   0.35211   0.00000  Uiso   1.00
C13    C     0.21038   0.02205   0.22337   0.00000  Uiso   1.00
C14    C     0.16688   0.04264   0.24831   0.00000  Uiso   1.00
C15    C     0.12387   0.02119   0.27204   0.00000  Uiso   1.00
C16    C     0.12440   0.31182   0.27188   0.00000  Uiso   1.00
C17    C     0.16788   0.29087   0.24760   0.00000  Uiso   1.00
C18    C     0.31597   0.13491   0.22618   0.00000  Uiso   1.00
C19    C     0.03059   0.13497   0.22509   0.00000  Uiso   1.00
C20    C     0.01676   0.19831   0.27441   0.00000  Uiso   1.00
C21    C     0.30237   0.19846   0.27393   0.00000  Uiso   1.00
C22    C     0.16663   0.08672   0.24964   0.00000  Uiso   1.00
C23    C     0.19356   0.16688   0.14776   0.00000  Uiso   1.00
C24    C     0.26325   0.19795   0.00472   0.00000  Uiso   1.00
C25    C     0.21067   0.16936   0.08883   0.00000  Uiso   1.00
C26    C     0.08217   0.14222   0.43670   0.00000  Uiso   1.00
C27    C     0.07842   0.12172   0.48403   0.00000  Uiso   1.00
C28    C     0.11557   0.12546   0.00547   0.00000  Uiso   1.00
H29    H     0.24324   0.03948   0.20421   0.00000  Uiso   1.00
H30    H     0.09024   0.03741   0.29153   0.00000  Uiso   1.00
H31    H     0.09103   0.29518   0.29142   0.00000  Uiso   1.00
H32    H     0.30331   0.10974   0.20670   0.00000  Uiso   1.00
H33    H     0.02898   0.22365   0.29401   0.00000  Uiso   1.00
H34    H     0.27878   0.22410   0.29253   0.00000  Uiso   1.00
H35    H     0.29618   0.21432   0.48270   0.00000  Uiso   1.00
H36    H     0.14197   0.14909   0.08892   0.00000  Uiso   1.00
H37    H     0.05683   0.13453   0.41652   0.00000  Uiso   1.00
N38    N     0.04760   0.16668   0.25002   0.00000  Uiso   1.00
N39    N     0.28573   0.16665   0.25001   0.00000  Uiso   1.00
O40    O     0.12846   0.22775   0.25001   0.00000  Uiso   1.00
O41    O     0.20490   0.22774   0.25001   0.00000  Uiso   1.00
O42    O     0.10947   0.16666   0.32681   0.00000  Uiso   1.00
O43    O     0.18591   0.16665   0.32681   0.00000  Uiso   1.00
O44    O     0.12843   0.10559   0.25000   0.00000  Uiso   1.00
O45    O     0.20488   0.10558   0.25000   0.00000  Uiso   1.00
O46    O     0.14742   0.16668   0.17319   0.00000  Uiso   1.00
O47    O     0.22387   0.16667   0.17319   0.00000  Uiso   1.00
Zn48   Zn    0.11562   0.16667   0.25000   0.00000  Uiso   1.00
Zn49   Zn    0.21771   0.16666   0.25000   0.00000  Uiso   1.00
Cl50   Cl    0.30145   0.19779   0.08446   0.00000  Uiso   1.00
O51    O     0.05901   0.10239   0.19812   0.00000  Uiso   1.00
H52    H     0.09237   0.11243   0.18410   0.00000  Uiso   1.00
O53    O     0.26578   0.24173   0.41382   0.00000  Uiso   1.00
H54    H     0.26464   0.25221   0.37919   0.00000  Uiso   1.00
Cl55   Cl    0.12086   0.08420   0.04731   0.00000  Uiso   1.00
Cl56   Cl    0.03011   0.08677   0.01096   0.00000  Uiso   1.00
Cl57   Cl    0.17853   0.25119   0.37787   0.00000  Uiso   1.00
O58    O     0.25333   0.29059   0.19650   0.00000  Uiso   1.00
H59    H     0.28003   0.31070   0.18113   0.00000  Uiso   1.00
C60    C     0.50050   0.24665   0.24897   0.00000  Uiso   1.00
C61    C     0.48494   0.15713   0.48560   0.00000  Uiso   1.00
C62    C     0.48707   0.17902   0.43862   0.00000  Uiso   1.00
C63    C     0.51935   0.16756   0.00995   0.00000  Uiso   1.00
C64    C     0.56022   0.19206   0.48224   0.00000  Uiso   1.00
C65    C     0.56150   0.21420   0.43632   0.00000  Uiso   1.00
C66    C     0.52194   0.21102   0.41841   0.00000  Uiso   1.00
C67    C     0.51068   0.15924   0.06404   0.00000  Uiso   1.00
C68    C     0.58909   0.18608   0.05775   0.00000  Uiso   1.00
C69    C     0.45590   0.16677   0.41105   0.00000  Uiso   1.00
C70    C     0.54462   0.31224   0.22241   0.00000  Uiso   1.00
C71    C     0.47321   0.16804   0.35211   0.00000  Uiso   1.00
C72    C     0.54371   0.02205   0.22337   0.00000  Uiso   1.00
C73    C     0.50022   0.04264   0.24831   0.00000  Uiso   1.00
C74    C     0.45720   0.02119   0.27204   0.00000  Uiso   1.00
C75    C     0.45773   0.31182   0.27188   0.00000  Uiso   1.00
C76    C     0.50121   0.29087   0.24760   0.00000  Uiso   1.00
C77    C     0.64930   0.13491   0.22618   0.00000  Uiso   1.00
C78    C     0.36393   0.13497   0.22509   0.00000  Uiso   1.00
C79    C     0.35010   0.19831   0.27441   0.00000  Uiso   1.00
C80    C     0.63570   0.19846   0.27393   0.00000  Uiso   1.00
C81    C     0.49996   0.08672   0.24964   0.00000  Uiso   1.00
C82    C     0.52689   0.16688   0.14776   0.00000  Uiso   1.00
C83    C     0.59658   0.19795   0.00472   0.00000  Uiso   1.00
C84    C     0.54400   0.16936   0.08883   0.00000  Uiso   1.00
C85    C     0.41550   0.14222   0.43670   0.00000  Uiso   1.00
C86    C     0.41176   0.12172   0.48403   0.00000  Uiso   1.00
C87    C     0.44890   0.12546   0.00547   0.00000  Uiso   1.00
H88    H     0.57658   0.03948   0.20421   0.00000  Uiso   1.00
H89    H     0.42357   0.03741   0.29153   0.00000  Uiso   1.00
H90    H     0.42437   0.29518   0.29142   0.00000  Uiso   1.00
H91    H     0.63664   0.10974   0.20670   0.00000  Uiso   1.00
H92    H     0.36231   0.22365   0.29401   0.00000  Uiso   1.00
H93    H     0.61211   0.22410   0.29253   0.00000  Uiso   1.00
H94    H     0.62951   0.21432   0.48270   0.00000  Uiso   1.00
H95    H     0.47530   0.14909   0.08892   0.00000  Uiso   1.00
H96    H     0.39017   0.13453   0.41652   0.00000  Uiso   1.00
N97    N     0.38093   0.16668   0.25002   0.00000  Uiso   1.00
N98    N     0.61906   0.16665   0.25001   0.00000  Uiso   1.00
O99    O     0.46179   0.22775   0.25001   0.00000  Uiso   1.00
O100   O     0.53823   0.22774   0.25001   0.00000  Uiso   1.00
O101   O     0.44280   0.16666   0.32681   0.00000  Uiso   1.00
O102   O     0.51924   0.16665   0.32681   0.00000  Uiso   1.00
O103   O     0.46177   0.10559   0.25000   0.00000  Uiso   1.00
O104   O     0.53821   0.10558   0.25000   0.00000  Uiso   1.00
O105   O     0.48076   0.16668   0.17319   0.00000  Uiso   1.00
O106   O     0.55720   0.16667   0.17319   0.00000  Uiso   1.00
Zn107  Zn    0.44896   0.16667   0.25000   0.00000  Uiso   1.00
Zn108  Zn    0.55104   0.16666   0.25000   0.00000  Uiso   1.00
Cl109  Cl    0.63478   0.19779   0.08446   0.00000  Uiso   1.00
O110   O     0.39234   0.10239   0.19812   0.00000  Uiso   1.00
H111   H     0.42571   0.11243   0.18410   0.00000  Uiso   1.00
O112   O     0.59911   0.24173   0.41382   0.00000  Uiso   1.00
H113   H     0.59797   0.25221   0.37919   0.00000  Uiso   1.00
Cl114  Cl    0.45420   0.08420   0.04731   0.00000  Uiso   1.00
Cl115  Cl    0.36345   0.08677   0.01096   0.00000  Uiso   1.00
Cl116  Cl    0.51187   0.25119   0.37787   0.00000  Uiso   1.00
O117   O     0.58666   0.29059   0.19650   0.00000  Uiso   1.00
H118   H     0.61337   0.31070   0.18113   0.00000  Uiso   1.00
C119   C     0.83384   0.24665   0.24897   0.00000  Uiso   1.00
C120   C     0.81827   0.15713   0.48560   0.00000  Uiso   1.00
C121   C     0.82041   0.17902   0.43862   0.00000  Uiso   1.00
C122   C     0.85269   0.16756   0.00995   0.00000  Uiso   1.00
C123   C     0.89356   0.19206   0.48224   0.00000  Uiso   1.00
C124   C     0.89483   0.21420   0.43632   0.00000  Uiso   1.00
C125   C     0.85528   0.21102   0.41841   0.00000  Uiso   1.00
C126   C     0.84402   0.15924   0.06404   0.00000  Uiso   1.00
C127   C     0.92242   0.18608   0.05775   0.00000  Uiso   1.00
C128   C     0.78923   0.16677   0.41105   0.00000  Uiso   1.00
C129   C     0.87795   0.31224   0.22241   0.00000  Uiso   1.00
C130   C     0.80654   0.16804   0.35211   0.00000  Uiso   1.00
C131   C     0.87704   0.02205   0.22337   0.00000  Uiso   1.00
C132   C     0.83355   0.04264   0.24831   0.00000  Uiso   1.00
C133   C     0.79054   0.02119   0.27204   0.00000  Uiso   1.00
C134   C     0.79107   0.31182   0.27188   0.00000  Uiso   1.00
C135   C     0.83454   0.29087   0.24760   0.00000  Uiso   1.00
C136   C     0.98263   0.13491   0.22618   0.00000  Uiso   1.00
C137   C     0.69726   0.13497   0.22509   0.00000  Uiso   1.00
C138   C     0.68343   0.19831   0.27441   0.00000  Uiso   1.00
C139   C     0.96903   0.19846   0.27393   0.00000  Uiso   1.00
C140   C     0.83329   0.08672   0.24964   0.00000  Uiso   1.00
C141   C     0.86022   0.16688   0.14776   0.00000  Uiso   1.00
C142   C     0.92992   0.19795   0.00472   0.00000  Uiso   1.00
C143   C     0.87734   0.16936   0.08883   0.00000  Uiso   1.00
C144   C     0.74883   0.14222   0.43670   0.00000  Uiso   1.00
C145   C     0.74509   0.12172   0.48403   0.00000  Uiso   1.00
C146   C     0.78224   0.12546   0.00547   0.00000  Uiso   1.00
H147   H     0.90991   0.03948   0.20421   0.00000  Uiso   1.00
H148   H     0.75690   0.03741   0.29153   0.00000  Uiso   1.00
H149   H     0.75770   0.29518   0.29142   0.00000  Uiso   1.00
H150   H     0.96998   0.10974   0.20670   0.00000  Uiso   1.00
H151   H     0.69565   0.22365   0.29401   0.00000  Uiso   1.00
H152   H     0.94544   0.22410   0.29253   0.00000  Uiso   1.00
H153   H     0.96284   0.21432   0.48270   0.00000  Uiso   1.00
H154   H     0.80863   0.14909   0.08892   0.00000  Uiso   1.00
H155   H     0.72350   0.13453   0.41652   0.00000  Uiso   1.00
N156   N     0.71426   0.16668   0.25002   0.00000  Uiso   1.00
N157   N     0.95239   0.16665   0.25001   0.00000  Uiso   1.00
O158   O     0.79512   0.22775   0.25001   0.00000  Uiso   1.00
O159   O     0.87157   0.22774   0.25001   0.00000  Uiso   1.00
O160   O     0.77613   0.16666   0.32681   0.00000  Uiso   1.00
O161   O     0.85258   0.16665   0.32681   0.00000  Uiso   1.00
O162   O     0.79510   0.10559   0.25000   0.00000  Uiso   1.00
O163   O     0.87154   0.10558   0.25000   0.00000  Uiso   1.00
O164   O     0.81409   0.16668   0.17319   0.00000  Uiso   1.00
O165   O     0.89053   0.16667   0.17319   0.00000  Uiso   1.00
Zn166  Zn    0.78229   0.16667   0.25000   0.00000  Uiso   1.00
Zn167  Zn    0.88438   0.16666   0.25000   0.00000  Uiso   1.00
Cl168  Cl    0.96812   0.19779   0.08446   0.00000  Uiso   1.00
O169   O     0.72568   0.10239   0.19812   0.00000  Uiso   1.00
H170   H     0.75904   0.11243   0.18410   0.00000  Uiso   1.00
O171   O     0.93244   0.24173   0.41382   0.00000  Uiso   1.00
H172   H     0.93131   0.25221   0.37919   0.00000  Uiso   1.00
Cl173  Cl    0.78753   0.08420   0.04731   0.00000  Uiso   1.00
Cl174  Cl    0.69678   0.08677   0.01096   0.00000  Uiso   1.00
Cl175  Cl    0.84520   0.25119   0.37787   0.00000  Uiso   1.00
O176   O     0.92000   0.29059   0.19650   0.00000  Uiso   1.00
H177   H     0.94670   0.31070   0.18113   0.00000  Uiso   1.00
C178   C     0.16717   0.57998   0.24897   0.00000  Uiso   1.00
C179   C     0.15161   0.49046   0.48560   0.00000  Uiso   1.00
C180   C     0.15374   0.51235   0.43862   0.00000  Uiso   1.00
C181   C     0.18602   0.50089   0.00995   0.00000  Uiso   1.00
C182   C     0.22689   0.52539   0.48224   0.00000  Uiso   1.00
C183   C     0.22817   0.54753   0.43632   0.00000  Uiso   1.00
C184   C     0.18861   0.54435   0.41841   0.00000  Uiso   1.00
C185   C     0.17735   0.49258   0.06404   0.00000  Uiso   1.00
C186   C     0.25575   0.51941   0.05775   0.00000  Uiso   1.00
C187   C     0.12256   0.50010   0.41105   0.00000  Uiso   1.00
C188   C     0.21129   0.64557   0.22241   0.00000  Uiso   1.00
C189   C     0.13988   0.50138   0.35211   0.00000  Uiso   1.00
C190   C     0.21038   0.35538   0.22337   0.00000  Uiso   1.00
C191   C     0.16688   0.37597   0.24831   0.00000  Uiso   1.00
C192   C     0.12387   0.35452   0.27204   0.00000  Uiso   1.00
C193   C     0.12440   0.64515   0.27188   0.00000  Uiso   1.00
C194   C     0.16788   0.62420   0.24760   0.00000  Uiso   1.00
C195   C     0.31597   0.46824   0.22618   0.00000  Uiso   1.00
C196   C     0.03059   0.46831   0.22509   0.00000  Uiso   1.00
C197   C     0.01676   0.53164   0.27441   0.00000  Uiso   1.00
C198   C     0.30237   0.53179   0.27393   0.00000  Uiso   1.00
C199   C     0.16663   0.42006   0.24964   0.00000  Uiso   1.00
C200   C     0.19356   0.50021   0.14776   0.00000  Uiso   1.00
C201   C     0.26325   0.53128   0.00472   0.00000  Uiso   1.00
C202   C     0.21067   0.50269   0.08883   0.00000  Uiso   1.00
C203   C     0.08217   0.47556   0.43670   0.00000  Uiso   1.00
C204   C     0.07842   0.45505   0.48403   0.00000  Uiso   1.00
C205   C     0.11557   0.45879   0.00547   0.00000  Uiso   1.00
H206   H     0.24324   0.37282   0.20421   0.00000  Uiso   1.00
H207   H     0.09024   0.37074   0.29153   0.00000  Uiso   1.00
H208   H     0.09103   0.62851   0.29142   0.00000  Uiso   1.00
H209   H     0.30331   0.44307   0.20670   0.00000  Uiso   1.00
H210   H     0.02898   0.55698   0.29401   0.00000  Uiso   1.00
H211   H     0.27878   0.55743   0.29253   0.00000  Uiso   1.00
H212   H     0.29618   0.54765   0.48270   0.00000  Uiso   1.00
H213   H     0.14197   0.48242   0.08892   0.00000  Uiso   1.00
H214   H     0.05683   0.46786   0.41652   0.00000  Uiso   1.00
N215   N     0.04760   0.50001   0.25002   0.00000  Uiso   1.00
N216   N     0.28573   0.49998   0.25001   0.00000  Uiso   1.00
O217   O     0.12846   0.56108   0.25001   0.00000  Uiso   1.00
O218   O     0.20490   0.56107   0.25001   0.00000  Uiso   1.00
O219   O     0.10947   0.50000   0.32681   0.00000  Uiso   1.00
O220   O     0.18591   0.49999   0.32681   0.00000  Uiso   1.00
O221   O     0.12843   0.43893   0.25000   0.00000  Uiso   1.00
O222   O     0.20488   0.43892   0.25000   0.00000  Uiso   1.00
O223   O     0.14742   0.50001   0.17319   0.00000  Uiso   1.00
O224   O     0.22387   0.50000   0.17319   0.00000  Uiso   1.00
Zn225  Zn    0.11562   0.50001   0.25000   0.00000  Uiso   1.00
Zn226  Zn    0.21771   0.49999   0.25000   0.00000  Uiso   1.00
Cl227  Cl    0.30145   0.53112   0.08446   0.00000  Uiso   1.00
O228   O     0.05901   0.43573   0.19812   0.00000  Uiso   1.00
H229   H     0.09237   0.44576   0.18410   0.00000  Uiso   1.00
O230   O     0.26578   0.57507   0.41382   0.00000  Uiso   1.00
H231   H     0.26464   0.58554   0.37919   0.00000  Uiso   1.00
Cl232  Cl    0.12086   0.41754   0.04731   0.00000  Uiso   1.00
Cl233  Cl    0.03011   0.42011   0.01096   0.00000  Uiso   1.00
Cl234  Cl    0.17853   0.58452   0.37787   0.00000  Uiso   1.00
O235   O     0.25333   0.62392   0.19650   0.00000  Uiso   1.00
H236   H     0.28003   0.64403   0.18113   0.00000  Uiso   1.00
C237   C     0.50050   0.57998   0.24897   0.00000  Uiso   1.00
C238   C     0.48494   0.49046   0.48560   0.00000  Uiso   1.00
C239   C     0.48707   0.51235   0.43862   0.00000  Uiso   1.00
C240   C     0.51935   0.50089   0.00995   0.00000  Uiso   1.00
C241   C     0.56022   0.52539   0.48224   0.00000  Uiso   1.00
C242   C     0.56150   0.54753   0.43632   0.00000  Uiso   1.00
C243   C     0.52194   0.54435   0.41841   0.00000  Uiso   1.00
C244   C     0.51068   0.49258   0.06404   0.00000  Uiso   1.00
C245   C     0.58909   0.51941   0.05775   0.00000  Uiso   1.00
C246   C     0.45590   0.50010   0.41105   0.00000  Uiso   1.00
C247   C     0.54462   0.64557   0.22241   0.00000  Uiso   1.00
C248   C     0.47321   0.50138   0.35211   0.00000  Uiso   1.00
C249   C     0.54371   0.35538   0.22337   0.00000  Uiso   1.00
C250   C     0.50022   0.37597   0.24831   0.00000  Uiso   1.00
C251   C     0.45720   0.35452   0.27204   0.00000  Uiso   1.00
C252   C     0.45773   0.64515   0.27188   0.00000  Uiso   1.00
C253   C     0.50121   0.62420   0.24760   0.00000  Uiso   1.00
C254   C     0.64930   0.46824   0.22618   0.00000  Uiso   1.00
C255   C     0.36393   0.46831   0.22509   0.00000  Uiso   1.00
C256   C     0.35010   0.53164   0.27441   0.00000  Uiso   1.00
C257   C     0.63570   0.53179   0.27393   0.00000  Uiso   1.00
C258   C     0.49996   0.42006   0.24964   0.00000  Uiso   1.00
C259   C     0.52689   0.50021   0.14776   0.00000  Uiso   1.00
C260   C     0.59658   0.53128   0.00472   0.00000  Uiso   1.00
C261   C     0.54400   0.50269   0.08883   0.00000  Uiso   1.00
C262   C     0.41550   0.47556   0.43670   0.00000  Uiso   1.00
C263   C     0.41176   0.45505   0.48403   0.00000  Uiso   1.00
C264   C     0.44890   0.45879   0.00547   0.00000  Uiso   1.00
H265   H     0.57658   0.37282   0.20421   0.00000  Uiso   1.00
H266   H     0.42357   0.37074   0.29153   0.00000  Uiso   1.00
H267   H     0.42437   0.62851   0.29142   0.00000  Uiso   1.00
H268   H     0.63664   0.44307   0.20670   0.00000  Uiso   1.00
H269   H     0.36231   0.55698   0.29401   0.00000  Uiso   1.00
H270   H     0.61211   0.55743   0.29253   0.00000  Uiso   1.00
H271   H     0.62951   0.54765   0.48270   0.00000  Uiso   1.00
H272   H     0.47530   0.48242   0.08892   0.00000  Uiso   1.00
H273   H     0.39017   0.46786   0.41652   0.00000  Uiso   1.00
N274   N     0.38093   0.50001   0.25002   0.00000  Uiso   1.00
N275   N     0.61906   0.49998   0.25001   0.00000  Uiso   1.00
O276   O     0.46179   0.56108   0.25001   0.00000  Uiso   1.00
O277   O     0.53823   0.56107   0.25001   0.00000  Uiso   1.00
O278   O     0.44280   0.50000   0.32681   0.00000  Uiso   1.00
O279   O     0.51924   0.49999   0.32681   0.00000  Uiso   1.00
O280   O     0.46177   0.43893   0.25000   0.00000  Uiso   1.00
O281   O     0.53821   0.43892   0.25000   0.00000  Uiso   1.00
O282   O     0.48076   0.50001   0.17319   0.00000  Uiso   1.00
O283   O     0.55720   0.50000   0.17319   0.00000  Uiso   1.00
Zn284  Zn    0.44896   0.50001   0.25000   0.00000  Uiso   1.00
Zn285  Zn    0.55104   0.49999   0.25000   0.00000  Uiso   1.00
Cl286  Cl    0.63478   0.53112   0.08446   0.00000  Uiso   1.00
O287   O     0.39234   0.43573   0.19812   0.00000  Uiso   1.00
H288   H     0.42571   0.44576   0.18410   0.00000  Uiso   1.00
O289   O     0.59911   0.57507   0.41382   0.00000  Uiso   1.00
H290   H     0.59797   0.58554   0.37919   0.00000  Uiso   1.00
Cl291  Cl    0.45420   0.41754   0.04731   0.00000  Uiso   1.00
Cl292  Cl    0.36345   0.42011   0.01096   0.00000  Uiso   1.00
Cl293  Cl    0.51187   0.58452   0.37787   0.00000  Uiso   1.00
O294   O     0.58666   0.62392   0.19650   0.00000  Uiso   1.00
H295   H     0.61337   0.64403   0.18113   0.00000  Uiso   1.00
C296   C     0.83384   0.57998   0.24897   0.00000  Uiso   1.00
C297   C     0.81827   0.49046   0.48560   0.00000  Uiso   1.00
C298   C     0.82041   0.51235   0.43862   0.00000  Uiso   1.00
C299   C     0.85269   0.50089   0.00995   0.00000  Uiso   1.00
C300   C     0.89356   0.52539   0.48224   0.00000  Uiso   1.00
C301   C     0.89483   0.54753   0.43632   0.00000  Uiso   1.00
C302   C     0.85528   0.54435   0.41841   0.00000  Uiso   1.00
C303   C     0.84402   0.49258   0.06404   0.00000  Uiso   1.00
C304   C     0.92242   0.51941   0.05775   0.00000  Uiso   1.00
C305   C     0.78923   0.50010   0.41105   0.00000  Uiso   1.00
C306   C     0.87795   0.64557   0.22241   0.00000  Uiso   1.00
C307   C     0.80654   0.50138   0.35211   0.00000  Uiso   1.00
C308   C     0.87704   0.35538   0.22337   0.00000  Uiso   1.00
C309   C     0.83355   0.37597   0.24831   0.00000  Uiso   1.00
C310   C     0.79054   0.35452   0.27204   0.00000  Uiso   1.00
C311   C     0.79107   0.64515   0.27188   0.00000  Uiso   1.00
C312   C     0.83454   0.62420   0.24760   0.00000  Uiso   1.00
C313   C     0.98263   0.46824   0.22618   0.00000  Uiso   1.00
C314   C     0.69726   0.46831   0.22509   0.00000  Uiso   1.00
C315   C     0.68343   0.53164   0.27441   0.00000  Uiso   1.00
C316   C     0.96903   0.53179   0.27393   0.00000  Uiso   1.00
C317   C     0.83329   0.42006   0.24964   0.00000  Uiso   1.00
C318   C     0.86022   0.50021   0.14776   0.00000  Uiso   1.00
C319   C     0.92992   0.53128   0.00472   0.00000  Uiso   1.00
C320   C     0.87734   0.50269   0.08883   0.00000  Uiso   1.00
C321   C     0.74883   0.47556   0.43670   0.00000  Uiso   1.00
C322   C     0.74509   0.45505   0.48403   0.00000  Uiso   1.00
C323   C     0.78224   0.45879   0.00547   0.00000  Uiso   1.00
H324   H     0.90991   0.37282   0.20421   0.00000  Uiso   1.00
H325   H     0.75690   0.37074   0.29153   0.00000  Uiso   1.00
H326   H     0.75770   0.62851   0.29142   0.00000  Uiso   1.00
H327   H     0.96998   0.44307   0.20670   0.00000  Uiso   1.00
H328   H     0.69565   0.55698   0.29401   0.00000  Uiso   1.00
H329   H     0.94544   0.55743   0.29253   0.00000  Uiso   1.00
H330   H     0.96284   0.54765   0.48270   0.00000  Uiso   1.00
H331   H     0.80863   0.48242   0.08892   0.00000  Uiso   1.00
H332   H     0.72350   0.46786   0.41652   0.00000  Uiso   1.00
N333   N     0.71426   0.50001   0.25002   0.00000  Uiso   1.00
N334   N     0.95239   0.49998   0.25001   0.00000  Uiso   1.00
O335   O     0.79512   0.56108   0.25001   0.00000  Uiso   1.00
O336   O     0.87157   0.56107   0.25001   0.00000  Uiso   1.00
O337   O     0.77613   0.50000   0.32681   0.00000  Uiso   1.00
O338   O     0.85258   0.49999   0.32681   0.00000  Uiso   1.00
O339   O     0.79510   0.43893   0.25000   0.00000  Uiso   1.00
O340   O     0.87154   0.43892   0.25000   0.00000  Uiso   1.00
O341   O     0.81409   0.50001   0.17319   0.00000  Uiso   1.00
O342   O     0.89053   0.50000   0.17319   0.00000  Uiso   1.00
Zn343  Zn    0.78229   0.50001   0.25000   0.00000  Uiso   1.00
Zn344  Zn    0.88438   0.49999   0.25000   0.00000  Uiso   1.00
Cl345  Cl    0.96812   0.53112   0.08446   0.00000  Uiso   1.00
O346   O     0.72568   0.43573   0.19812   0.00000  Uiso   1.00
H347   H     0.75904   0.44576   0.18410   0.00000  Uiso   1.00
O348   O     0.93244   0.57507   0.41382   0.00000  Uiso   1.00
H349   H     0.93131   0.58554   0.37919   0.00000  Uiso   1.00
Cl350  Cl    0.78753   0.41754   0.04731   0.00000  Uiso   1.00
Cl351  Cl    0.69678   0.42011   0.01096   0.00000  Uiso   1.00
Cl352  Cl    0.84520   0.58452   0.37787   0.00000  Uiso   1.00
O353   O     0.92000   0.62392   0.19650   0.00000  Uiso   1.00
H354   H     0.94670   0.64403   0.18113   0.00000  Uiso   1.00
C355   C     0.16717   0.91331   0.24897   0.00000  Uiso   1.00
C356   C     0.15161   0.82380   0.48560   0.00000  Uiso   1.00
C357   C     0.15374   0.84569   0.43862   0.00000  Uiso   1.00
C358   C     0.18602   0.83422   0.00995   0.00000  Uiso   1.00
C359   C     0.22689   0.85872   0.48224   0.00000  Uiso   1.00
C360   C     0.22817   0.88087   0.43632   0.00000  Uiso   1.00
C361   C     0.18861   0.87768   0.41841   0.00000  Uiso   1.00
C362   C     0.17735   0.82591   0.06404   0.00000  Uiso   1.00
C363   C     0.25575   0.85275   0.05775   0.00000  Uiso   1.00
C364   C     0.12256   0.83343   0.41105   0.00000  Uiso   1.00
C365   C     0.21129   0.97890   0.22241   0.00000  Uiso   1.00
C366   C     0.13988   0.83471   0.35211   0.00000  Uiso   1.00
C367   C     0.21038   0.68871   0.22337   0.00000  Uiso   1.00
C368   C     0.16688   0.70931   0.24831   0.00000  Uiso   1.00
C369   C     0.12387   0.68785   0.27204   0.00000  Uiso   1.00
C370   C     0.12440   0.97848   0.27188   0.00000  Uiso   1.00
C371   C     0.16788   0.95753   0.24760   0.00000  Uiso   1.00
C372   C     0.31597   0.80157   0.22618   0.00000  Uiso   1.00
C373   C     0.03059   0.80164   0.22509   0.00000  Uiso   1.00
C374   C     0.01676   0.86498   0.27441   0.00000  Uiso   1.00
C375   C     0.30237   0.86513   0.27393   0.00000  Uiso   1.00
C376   C     0.16663   0.75339   0.24964   0.00000  Uiso   1.00
C377   C     0.19356   0.83355   0.14776   0.00000  Uiso   1.00
C378   C     0.26325   0.86462   0.00472   0.00000  Uiso   1.00
C379   C     0.21067   0.83602   0.08883   0.00000  Uiso   1.00
C380   C     0.08217   0.80889   0.43670   0.00000  Uiso   1.00
C381   C     0.07842   0.78839   0.48403   0.00000  Uiso   1.00
C382   C     0.11557   0.79212   0.00547   0.00000  Uiso   1.00
H383   H     0.24324   0.70615   0.20421   0.00000  Uiso   1.00
H384   H     0.09024   0.70407   0.29153   0.00000  Uiso   1.00
H385   H     0.09103   0.96185   0.29142   0.00000  Uiso   1.00
H386   H     0.30331   0.77640   0.20670   0.00000  Uiso   1.00
H387   H     0.02898   0.89032   0.29401   0.00000  Uiso   1.00
H388   H     0.27878   0.89076   0.29253   0.00000  Uiso   1.00
H389   H     0.29618   0.88099   0.48270   0.00000  Uiso   1.00
H390   H     0.14197   0.81576   0.08892   0.00000  Uiso   1.00
H391   H     0.05683   0.80120   0.41652   0.00000  Uiso   1.00
N392   N     0.04760   0.83334   0.25002   0.00000  Uiso   1.00
N393   N     0.28573   0.83331   0.25001   0.00000  Uiso   1.00
O394   O     0.12846   0.89442   0.25001   0.00000  Uiso   1.00
O395   O     0.20490   0.89441   0.25001   0.00000  Uiso   1.00
O396   O     0.10947   0.83333   0.32681   0.00000  Uiso   1.00
O397   O     0.18591   0.83332   0.32681   0.00000  Uiso   1.00
O398   O     0.12843   0.77226   0.25000   0.00000  Uiso   1.00
O399   O     0.20488   0.77225   0.25000   0.00000  Uiso   1.00
O400   O     0.14742   0.83335   0.17319   0.00000  Uiso   1.00
O401   O     0.22387   0.83334   0.17319   0.00000  Uiso   1.00
Zn402  Zn    0.11562   0.83334   0.25000   0.00000  Uiso   1.00
Zn403  Zn    0.21771   0.83333   0.25000   0.00000  Uiso   1.00
Cl404  Cl    0.30145   0.86446   0.08446   0.00000  Uiso   1.00
O405   O     0.05901   0.76906   0.19812   0.00000  Uiso   1.00
H406   H     0.09237   0.77910   0.18410   0.00000  Uiso   1.00
O407   O     0.26578   0.90840   0.41382   0.00000  Uiso   1.00
H408   H     0.26464   0.91888   0.37919   0.00000  Uiso   1.00
Cl409  Cl    0.12086   0.75087   0.04731   0.00000  Uiso   1.00
Cl410  Cl    0.03011   0.75344   0.01096   0.00000  Uiso   1.00
Cl411  Cl    0.17853   0.91785   0.37787   0.00000  Uiso   1.00
O412   O     0.25333   0.95725   0.19650   0.00000  Uiso   1.00
H413   H     0.28003   0.97736   0.18113   0.00000  Uiso   1.00
C414   C     0.50050   0.91331   0.24897   0.00000  Uiso   1.00
C415   C     0.48494   0.82380   0.48560   0.00000  Uiso   1.00
C416   C     0.48707   0.84569   0.43862   0.00000  Uiso   1.00
C417   C     0.51935   0.83422   0.00995   0.00000  Uiso   1.00
C418   C     0.56022   0.85872   0.48224   0.00000  Uiso   1.00
C419   C     0.56150   0.88087   0.43632   0.00000  Uiso   1.00
C420   C     0.52194   0.87768   0.41841   0.00000  Uiso   1.00
C421   C     0.51068   0.82591   0.06404   0.00000  Uiso   1.00
C422   C     0.58909   0.85275   0.05775   0.00000  Uiso   1.00
C423   C     0.45590   0.83343   0.41105   0.00000  Uiso   1.00
C424   C     0.54462   0.97890   0.22241   0.00000  Uiso   1.00
C425   C     0.47321   0.83471   0.35211   0.00000  Uiso   1.00
C426   C     0.54371   0.68871   0.22337   0.00000  Uiso   1.00
C427   C     0.50022   0.70931   0.24831   0.00000  Uiso   1.00
C428   C     0.45720   0.68785   0.27204   0.00000  Uiso   1.00
C429   C     0.45773   0.97848   0.27188   0.00000  Uiso   1.00
C430   C     0.50121   0.95753   0.24760   0.00000  Uiso   1.00
C431   C     0.64930   0.80157   0.22618   0.00000  Uiso   1.00
C432   C     0.36393   0.80164   0.22509   0.00000  Uiso   1.00
C433   C     0.35010   0.86498   0.27441   0.00000  Uiso   1.00
C434   C     0.63570   0.86513   0.27393   0.00000  Uiso   1.00
C435   C     0.49996   0.75339   0.24964   0.00000  Uiso   1.00
C436   C     0.52689   0.83355   0.14776   0.00000  Uiso   1.00
C437   C     0.59658   0.86462   0.00472   0.00000  Uiso   1.00
C438   C     0.54400   0.83602   0.08883   0.00000  Uiso   1.00
C439   C     0.41550   0.80889   0.43670   0.00000  Uiso   1.00
C440   C     0.41176   0.78839   0.48403   0.00000  Uiso   1.00
C441   C     0.44890   0.79212   0.00547   0.00000  Uiso   1.00
H442   H     0.57658   0.70615   0.20421   0.00000  Uiso   1.00
H443   H     0.42357   0.70407   0.29153   0.00000  Uiso   1.00
H444   H     0.42437   0.96185   0.29142   0.00000  Uiso   1.00
H445   H     0.63664   0.77640   0.20670   0.00000  Uiso   1.00
H446   H     0.36231   0.89032   0.29401   0.00000  Uiso   1.00
H447   H     0.61211   0.89076   0.29253   0.00000  Uiso   1.00
H448   H     0.62951   0.88099   0.48270   0.00000  Uiso   1.00
H449   H     0.47530   0.81576   0.08892   0.00000  Uiso   1.00
H450   H     0.39017   0.80120   0.41652   0.00000  Uiso   1.00
N451   N     0.38093   0.83334   0.25002   0.00000  Uiso   1.00
N452   N     0.61906   0.83331   0.25001   0.00000  Uiso   1.00
O453   O     0.46179   0.89442   0.25001   0.00000  Uiso   1.00
O454   O     0.53823   0.89441   0.25001   0.00000  Uiso   1.00
O455   O     0.44280   0.83333   0.32681   0.00000  Uiso   1.00
O456   O     0.51924   0.83332   0.32681   0.00000  Uiso   1.00
O457   O     0.46177   0.77226   0.25000   0.00000  Uiso   1.00
O458   O     0.53821   0.77225   0.25000   0.00000  Uiso   1.00
O459   O     0.48076   0.83335   0.17319   0.00000  Uiso   1.00
O460   O     0.55720   0.83334   0.17319   0.00000  Uiso   1.00
Zn461  Zn    0.44896   0.83334   0.25000   0.00000  Uiso   1.00
Zn462  Zn    0.55104   0.83333   0.25000   0.00000  Uiso   1.00
Cl463  Cl    0.63478   0.86446   0.08446   0.00000  Uiso   1.00
O464   O     0.39234   0.76906   0.19812   0.00000  Uiso   1.00
H465   H     0.42571   0.77910   0.18410   0.00000  Uiso   1.00
O466   O     0.59911   0.90840   0.41382   0.00000  Uiso   1.00
H467   H     0.59797   0.91888   0.37919   0.00000  Uiso   1.00
Cl468  Cl    0.45420   0.75087   0.04731   0.00000  Uiso   1.00
Cl469  Cl    0.36345   0.75344   0.01096   0.00000  Uiso   1.00
Cl470  Cl    0.51187   0.91785   0.37787   0.00000  Uiso   1.00
O471   O     0.58666   0.95725   0.19650   0.00000  Uiso   1.00
H472   H     0.61337   0.97736   0.18113   0.00000  Uiso   1.00
C473   C     0.83384   0.91331   0.24897   0.00000  Uiso   1.00
C474   C     0.81827   0.82380   0.48560   0.00000  Uiso   1.00
C475   C     0.82041   0.84569   0.43862   0.00000  Uiso   1.00
C476   C     0.85269   0.83422   0.00995   0.00000  Uiso   1.00
C477   C     0.89356   0.85872   0.48224   0.00000  Uiso   1.00
C478   C     0.89483   0.88087   0.43632   0.00000  Uiso   1.00
C479   C     0.85528   0.87768   0.41841   0.00000  Uiso   1.00
C480   C     0.84402   0.82591   0.06404   0.00000  Uiso   1.00
C481   C     0.92242   0.85275   0.05775   0.00000  Uiso   1.00
C482   C     0.78923   0.83343   0.41105   0.00000  Uiso   1.00
C483   C     0.87795   0.97890   0.22241   0.00000  Uiso   1.00
C484   C     0.80654   0.83471   0.35211   0.00000  Uiso   1.00
C485   C     0.87704   0.68871   0.22337   0.00000  Uiso   1.00
C486   C     0.83355   0.70931   0.24831   0.00000  Uiso   1.00
C487   C     0.79054   0.68785   0.27204   0.00000  Uiso   1.00
C488   C     0.79107   0.97848   0.27188   0.00000  Uiso   1.00
C489   C     0.83454   0.95753   0.24760   0.00000  Uiso   1.00
C490   C     0.98263   0.80157   0.22618   0.00000  Uiso   1.00
C491   C     0.69726   0.80164   0.22509   0.00000  Uiso   1.00
C492   C     0.68343   0.86498   0.27441   0.00000  Uiso   1.00
C493   C     0.96903   0.86513   0.27393   0.00000  Uiso   1.00
C494   C     0.83329   0.75339   0.24964   0.00000  Uiso   1.00
C495   C     0.86022   0.83355   0.14776   0.00000  Uiso   1.00
C496   C     0.92992   0.86462   0.00472   0.00000  Uiso   1.00
C497   C     0.87734   0.83602   0.08883   0.00000  Uiso   1.00
C498   C     0.74883   0.80889   0.43670   0.00000  Uiso   1.00
C499   C     0.74509   0.78839   0.48403   0.00000  Uiso   1.00
C500   C     0.78224   0.79212   0.00547   0.00000  Uiso   1.00
H501   H     0.90991   0.70615   0.20421   0.00000  Uiso   1.00
H502   H     0.75690   0.70407   0.29153   0.00000  Uiso   1.00
H503   H     0.75770   0.96185   0.29142   0.00000  Uiso   1.00
H504   H     0.96998   0.77640   0.20670   0.00000  Uiso   1.00
H505   H     0.69565   0.89032   0.29401   0.00000  Uiso   1.00
H506   H     0.94544   0.89076   0.29253   0.00000  Uiso   1.00
H507   H     0.96284   0.88099   0.48270   0.00000  Uiso   1.00
H508   H     0.80863   0.81576   0.08892   0.00000  Uiso   1.00
H509   H     0.72350   0.80120   0.41652   0.00000  Uiso   1.00
N510   N     0.71426   0.83334   0.25002   0.00000  Uiso   1.00
N511   N     0.95239   0.83331   0.25001   0.00000  Uiso   1.00
O512   O     0.79512   0.89442   0.25001   0.00000  Uiso   1.00
O513   O     0.87157   0.89441   0.25001   0.00000  Uiso   1.00
O514   O     0.77613   0.83333   0.32681   0.00000  Uiso   1.00
O515   O     0.85258   0.83332   0.32681   0.00000  Uiso   1.00
O516   O     0.79510   0.77226   0.25000   0.00000  Uiso   1.00
O517   O     0.87154   0.77225   0.25000   0.00000  Uiso   1.00
O518   O     0.81409   0.83335   0.17319   0.00000  Uiso   1.00
O519   O     0.89053   0.83334   0.17319   0.00000  Uiso   1.00
Zn520  Zn    0.78229   0.83334   0.25000   0.00000  Uiso   1.00
Zn521  Zn    0.88438   0.83333   0.25000   0.00000  Uiso   1.00
Cl522  Cl    0.96812   0.86446   0.08446   0.00000  Uiso   1.00
O523   O     0.72568   0.76906   0.19812   0.00000  Uiso   1.00
H524   H     0.75904   0.77910   0.18410   0.00000  Uiso   1.00
O525   O     0.93244   0.90840   0.41382   0.00000  Uiso   1.00
H526   H     0.93131   0.91888   0.37919   0.00000  Uiso   1.00
Cl527  Cl    0.78753   0.75087   0.04731   0.00000  Uiso   1.00
Cl528  Cl    0.69678   0.75344   0.01096   0.00000  Uiso   1.00
Cl529  Cl    0.84520   0.91785   0.37787   0.00000  Uiso   1.00
O530   O     0.92000   0.95725   0.19650   0.00000  Uiso   1.00
H531   H     0.94670   0.97736   0.18113   0.00000  Uiso   1.00
C532   C     0.16717   0.24665   0.74897   0.00000  Uiso   1.00
C533   C     0.15161   0.15713   0.98560   0.00000  Uiso   1.00
C534   C     0.15374   0.17902   0.93862   0.00000  Uiso   1.00
C535   C     0.18602   0.16756   0.50995   0.00000  Uiso   1.00
C536   C     0.22689   0.19206   0.98224   0.00000  Uiso   1.00
C537   C     0.22817   0.21420   0.93632   0.00000  Uiso   1.00
C538   C     0.18861   0.21102   0.91841   0.00000  Uiso   1.00
C539   C     0.17735   0.15924   0.56404   0.00000  Uiso   1.00
C540   C     0.25575   0.18608   0.55775   0.00000  Uiso   1.00
C541   C     0.12256   0.16677   0.91105   0.00000  Uiso   1.00
C542   C     0.21129   0.31224   0.72241   0.00000  Uiso   1.00
C543   C     0.13988   0.16804   0.85211   0.00000  Uiso   1.00
C544   C     0.21038   0.02205   0.72337   0.00000  Uiso   1.00
C545   C     0.16688   0.04264   0.74831   0.00000  Uiso   1.00
C546   C     0.12387   0.02119   0.77204   0.00000  Uiso   1.00
C547   C     0.12440   0.31182   0.77188   0.00000  Uiso   1.00
C548   C     0.16788   0.29087   0.74760   0.00000  Uiso   1.00
C549   C     0.31597   0.13491   0.72618   0.00000  Uiso   1.00
C550   C     0.03059   0.13497   0.72509   0.00000  Uiso   1.00
C551   C     0.01676   0.19831   0.77441   0.00000  Uiso   1.00
C552   C     0.30237   0.19846   0.77393   0.00000  Uiso   1.00
C553   C     0.16663   0.08672   0.74964   0.00000  Uiso   1.00
C554   C     0.19356   0.16688   0.64776   0.00000  Uiso   1.00
C555   C     0.26325   0.19795   0.50472   0.00000  Uiso   1.00
C556   C     0.21067   0.16936   0.58883   0.00000  Uiso   1.00
C557   C     0.08217   0.14222   0.93670   0.00000  Uiso   1.00
C558   C     0.07842   0.12172   0.98403   0.00000  Uiso   1.00
C559   C     0.11557   0.12546   0.50547   0.00000  Uiso   1.00
H560   H     0.24324   0.03948   0.70421   0.00000  Uiso   1.00
H561   H     0.09024   0.03741   0.79153   0.00000  Uiso   1.00
H562   H     0.09103   0.29518   0.79142   0.00000  Uiso   1.00
H563   H     0.30331   0.10974   0.70670   0.00000  Uiso   1.00
H564   H     0.02898   0.22365   0.79401   0.00000  Uiso   1.00
H565   H     0.27878   0.22410   0.79253   0.00000  Uiso   1.00
H566   H     0.29618   0.21432   0.98270   0.00000  Uiso   1.00
H567   H     0.14197   0.14909   0.58892   0.00000  Uiso   1.00
H568   H     0.05683   0.13453   0.91652   0.00000  Uiso   1.00
N569   N     0.04760   0.16668   0.75002   0.00000  Uiso   1.00
N570   N     0.28573   0.16665   0.75001   0.00000  Uiso   1.00
O571   O     0.12846   0.22775   0.75001   0.00000  Uiso   1.00
O572   O     0.20490   0.22774   0.75001   0.00000  Uiso   1.00
O573   O     0.10947   0.16666   0.82681   0.00000  Uiso   1.00
O574   O     0.18591   0.16665   0.82681   0.00000  Uiso   1.00
O575   O     0.12843   0.10559   0.75000   0.00000  Uiso   1.00
O576   O     0.20488   0.10558   0.75000   0.00000  Uiso   1.00
O577   O     0.14742   0.16668   0.67319   0.00000  Uiso   1.00
O578   O     0.22387   0.16667   0.67319   0.00000  Uiso   1.00
Zn579  Zn    0.11562   0.16667   0.75000   0.00000  Uiso   1.00
Zn580  Zn    0.21771   0.16666   0.75000   0.00000  Uiso   1.00
Cl581  Cl    0.30145   0.19779   0.58446   0.00000  Uiso   1.00
O582   O     0.05901   0.10239   0.69812   0.00000  Uiso   1.00
H583   H     0.09237   0.11243   0.68410   0.00000  Uiso   1.00
O584   O     0.26578   0.24173   0.91382   0.00000  Uiso   1.00
H585   H     0.26464   0.25221   0.87919   0.00000  Uiso   1.00
Cl586  Cl    0.12086   0.08420   0.54731   0.00000  Uiso   1.00
Cl587  Cl    0.03011   0.08677   0.51096   0.00000  Uiso   1.00
Cl588  Cl    0.17853   0.25119   0.87787   0.00000  Uiso   1.00
O589   O     0.25333   0.29059   0.69650   0.00000  Uiso   1.00
H590   H     0.28003   0.31070   0.68113   0.00000  Uiso   1.00
C591   C     0.50050   0.24665   0.74897   0.00000  Uiso   1.00
C592   C     0.48494   0.15713   0.98560   0.00000  Uiso   1.00
C593   C     0.48707   0.17902   0.93862   0.00000  Uiso   1.00
C594   C     0.51935   0.16756   0.50995   0.00000  Uiso   1.00
C595   C     0.56022   0.19206   0.98224   0.00000  Uiso   1.00
C596   C     0.56150   0.21420   0.93632   0.00000  Uiso   1.00
C597   C     0.52194   0.21102   0.91841   0.00000  Uiso   1.00
C598   C     0.51068   0.15924   0.56404   0.00000  Uiso   1.00
C599   C     0.58909   0.18608   0.55775   0.00000  Uiso   1.00
C600   C     0.45590   0.16677   0.91105   0.00000  Uiso   1.00
C601   C     0.54462   0.31224   0.72241   0.00000  Uiso   1.00
C602   C     0.47321   0.16804   0.85211   0.00000  Uiso   1.00
C603   C     0.54371   0.02205   0.72337   0.00000  Uiso   1.00
C604   C     0.50022   0.04264   0.74831   0.00000  Uiso   1.00
C605   C     0.45720   0.02119   0.77204   0.00000  Uiso   1.00
C606   C     0.45773   0.31182   0.77188   0.00000  Uiso   1.00
C607   C     0.50121   0.29087   0.74760   0.00000  Uiso   1.00
C608   C     0.64930   0.13491   0.72618   0.00000  Uiso   1.00
C609   C     0.36393   0.13497   0.72509   0.00000  Uiso   1.00
C610   C     0.35010   0.19831   0.77441   0.00000  Uiso   1.00
C611   C     0.63570   0.19846   0.77393   0.00000  Uiso   1.00
C612   C     0.49996   0.08672   0.74964   0.00000  Uiso   1.00
C613   C     0.52689   0.16688   0.64776   0.00000  Uiso   1.00
C614   C     0.59658   0.19795   0.50472   0.00000  Uiso   1.00
C615   C     0.54400   0.16936   0.58883   0.00000  Uiso   1.00
C616   C     0.41550   0.14222   0.93670   0.00000  Uiso   1.00
C617   C     0.41176   0.12172   0.98403   0.00000  Uiso   1.00
C618   C     0.44890   0.12546   0.50547   0.00000  Uiso   1.00
H619   H     0.57658   0.03948   0.70421   0.00000  Uiso   1.00
H620   H     0.42357   0.03741   0.79153   0.00000  Uiso   1.00
H621   H     0.42437   0.29518   0.79142   0.00000  Uiso   1.00
H622   H     0.63664   0.10974   0.70670   0.00000  Uiso   1.00
H623   H     0.36231   0.22365   0.79401   0.00000  Uiso   1.00
H624   H     0.61211   0.22410   0.79253   0.00000  Uiso   1.00
H625   H     0.62951   0.21432   0.98270   0.00000  Uiso   1.00
H626   H     0.47530   0.14909   0.58892   0.00000  Uiso   1.00
H627   H     0.39017   0.13453   0.91652   0.00000  Uiso   1.00
N628   N     0.38093   0.16668   0.75002   0.00000  Uiso   1.00
N629   N     0.61906   0.16665   0.75001   0.00000  Uiso   1.00
O630   O     0.46179   0.22775   0.75001   0.00000  Uiso   1.00
O631   O     0.53823   0.22774   0.75001   0.00000  Uiso   1.00
O632   O     0.44280   0.16666   0.82681   0.00000  Uiso   1.00
O633   O     0.51924   0.16665   0.82681   0.00000  Uiso   1.00
O634   O     0.46177   0.10559   0.75000   0.00000  Uiso   1.00
O635   O     0.53821   0.10558   0.75000   0.00000  Uiso   1.00
O636   O     0.48076   0.16668   0.67319   0.00000  Uiso   1.00
O637   O     0.55720   0.16667   0.67319   0.00000  Uiso   1.00
Zn638  Zn    0.44896   0.16667   0.75000   0.00000  Uiso   1.00
Zn639  Zn    0.55104   0.16666   0.75000   0.00000  Uiso   1.00
Cl640  Cl    0.63478   0.19779   0.58446   0.00000  Uiso   1.00
O641   O     0.39234   0.10239   0.69812   0.00000  Uiso   1.00
H642   H     0.42571   0.11243   0.68410   0.00000  Uiso   1.00
O643   O     0.59911   0.24173   0.91382   0.00000  Uiso   1.00
H644   H     0.59797   0.25221   0.87919   0.00000  Uiso   1.00
Cl645  Cl    0.45420   0.08420   0.54731   0.00000  Uiso   1.00
Cl646  Cl    0.36345   0.08677   0.51096   0.00000  Uiso   1.00
Cl647  Cl    0.51187   0.25119   0.87787   0.00000  Uiso   1.00
O648   O     0.58666   0.29059   0.69650   0.00000  Uiso   1.00
H649   H     0.61337   0.31070   0.68113   0.00000  Uiso   1.00
C650   C     0.83384   0.24665   0.74897   0.00000  Uiso   1.00
C651   C     0.81827   0.15713   0.98560   0.00000  Uiso   1.00
C652   C     0.82041   0.17902   0.93862   0.00000  Uiso   1.00
C653   C     0.85269   0.16756   0.50995   0.00000  Uiso   1.00
C654   C     0.89356   0.19206   0.98224   0.00000  Uiso   1.00
C655   C     0.89483   0.21420   0.93632   0.00000  Uiso   1.00
C656   C     0.85528   0.21102   0.91841   0.00000  Uiso   1.00
C657   C     0.84402   0.15924   0.56404   0.00000  Uiso   1.00
C658   C     0.92242   0.18608   0.55775   0.00000  Uiso   1.00
C659   C     0.78923   0.16677   0.91105   0.00000  Uiso   1.00
C660   C     0.87795   0.31224   0.72241   0.00000  Uiso   1.00
C661   C     0.80654   0.16804   0.85211   0.00000  Uiso   1.00
C662   C     0.87704   0.02205   0.72337   0.00000  Uiso   1.00
C663   C     0.83355   0.04264   0.74831   0.00000  Uiso   1.00
C664   C     0.79054   0.02119   0.77204   0.00000  Uiso   1.00
C665   C     0.79107   0.31182   0.77188   0.00000  Uiso   1.00
C666   C     0.83454   0.29087   0.74760   0.00000  Uiso   1.00
C667   C     0.98263   0.13491   0.72618   0.00000  Uiso   1.00
C668   C     0.69726   0.13497   0.72509   0.00000  Uiso   1.00
C669   C     0.68343   0.19831   0.77441   0.00000  Uiso   1.00
C670   C     0.96903   0.19846   0.77393   0.00000  Uiso   1.00
C671   C     0.83329   0.08672   0.74964   0.00000  Uiso   1.00
C672   C     0.86022   0.16688   0.64776   0.00000  Uiso   1.00
C673   C     0.92992   0.19795   0.50472   0.00000  Uiso   1.00
C674   C     0.87734   0.16936   0.58883   0.00000  Uiso   1.00
C675   C     0.74883   0.14222   0.93670   0.00000  Uiso   1.00
C676   C     0.74509   0.12172   0.98403   0.00000  Uiso   1.00
C677   C     0.78224   0.12546   0.50547   0.00000  Uiso   1.00
H678   H     0.90991   0.03948   0.70421   0.00000  Uiso   1.00
H679   H     0.75690   0.03741   0.79153   0.00000  Uiso   1.00
H680   H     0.75770   0.29518   0.79142   0.00000  Uiso   1.00
H681   H     0.96998   0.10974   0.70670   0.00000  Uiso   1.00
H682   H     0.69565   0.22365   0.79401   0.00000  Uiso   1.00
H683   H     0.94544   0.22410   0.79253   0.00000  Uiso   1.00
H684   H     0.96284   0.21432   0.98270   0.00000  Uiso   1.00
H685   H     0.80863   0.14909   0.58892   0.00000  Uiso   1.00
H686   H     0.72350   0.13453   0.91652   0.00000  Uiso   1.00
N687   N     0.71426   0.16668   0.75002   0.00000  Uiso   1.00
N688   N     0.95239   0.16665   0.75001   0.00000  Uiso   1.00
O689   O     0.79512   0.22775   0.75001   0.00000  Uiso   1.00
O690   O     0.87157   0.22774   0.75001   0.00000  Uiso   1.00
O691   O     0.77613   0.16666   0.82681   0.00000  Uiso   1.00
O692   O     0.85258   0.16665   0.82681   0.00000  Uiso   1.00
O693   O     0.79510   0.10559   0.75000   0.00000  Uiso   1.00
O694   O     0.87154   0.10558   0.75000   0.00000  Uiso   1.00
O695   O     0.81409   0.16668   0.67319   0.00000  Uiso   1.00
O696   O     0.89053   0.16667   0.67319   0.00000  Uiso   1.00
Zn697  Zn    0.78229   0.16667   0.75000   0.00000  Uiso   1.00
Zn698  Zn    0.88438   0.16666   0.75000   0.00000  Uiso   1.00
Cl699  Cl    0.96812   0.19779   0.58446   0.00000  Uiso   1.00
O700   O     0.72568   0.10239   0.69812   0.00000  Uiso   1.00
H701   H     0.75904   0.11243   0.68410   0.00000  Uiso   1.00
O702   O     0.93244   0.24173   0.91382   0.00000  Uiso   1.00
H703   H     0.93131   0.25221   0.87919   0.00000  Uiso   1.00
Cl704  Cl    0.78753   0.08420   0.54731   0.00000  Uiso   1.00
Cl705  Cl    0.69678   0.08677   0.51096   0.00000  Uiso   1.00
Cl706  Cl    0.84520   0.25119   0.87787   0.00000  Uiso   1.00
O707   O     0.92000   0.29059   0.69650   0.00000  Uiso   1.00
H708   H     0.94670   0.31070   0.68113   0.00000  Uiso   1.00
C709   C     0.16717   0.57998   0.74897   0.00000  Uiso   1.00
C710   C     0.15161   0.49046   0.98560   0.00000  Uiso   1.00
C711   C     0.15374   0.51235   0.93862   0.00000  Uiso   1.00
C712   C     0.18602   0.50089   0.50995   0.00000  Uiso   1.00
C713   C     0.22689   0.52539   0.98224   0.00000  Uiso   1.00
C714   C     0.22817   0.54753   0.93632   0.00000  Uiso   1.00
C715   C     0.18861   0.54435   0.91841   0.00000  Uiso   1.00
C716   C     0.17735   0.49258   0.56404   0.00000  Uiso   1.00
C717   C     0.25575   0.51941   0.55775   0.00000  Uiso   1.00
C718   C     0.12256   0.50010   0.91105   0.00000  Uiso   1.00
C719   C     0.21129   0.64557   0.72241   0.00000  Uiso   1.00
C720   C     0.13988   0.50138   0.85211   0.00000  Uiso   1.00
C721   C     0.21038   0.35538   0.72337   0.00000  Uiso   1.00
C722   C     0.16688   0.37597   0.74831   0.00000  Uiso   1.00
C723   C     0.12387   0.35452   0.77204   0.00000  Uiso   1.00
C724   C     0.12440   0.64515   0.77188   0.00000  Uiso   1.00
C725   C     0.16788   0.62420   0.74760   0.00000  Uiso   1.00
C726   C     0.31597   0.46824   0.72618   0.00000  Uiso   1.00
C727   C     0.03059   0.46831   0.72509   0.00000  Uiso   1.00
C728   C     0.01676   0.53164   0.77441   0.00000  Uiso   1.00
C729   C     0.30237   0.53179   0.77393   0.00000  Uiso   1.00
C730   C     0.16663   0.42006   0.74964   0.00000  Uiso   1.00
C731   C     0.19356   0.50021   0.64776   0.00000  Uiso   1.00
C732   C     0.26325   0.53128   0.50472   0.00000  Uiso   1.00
C733   C     0.21067   0.50269   0.58883   0.00000  Uiso   1.00
C734   C     0.08217   0.47556   0.93670   0.00000  Uiso   1.00
C735   C     0.07842   0.45505   0.98403   0.00000  Uiso   1.00
C736   C     0.11557   0.45879   0.50547   0.00000  Uiso   1.00
H737   H     0.24324   0.37282   0.70421   0.00000  Uiso   1.00
H738   H     0.09024   0.37074   0.79153   0.00000  Uiso   1.00
H739   H     0.09103   0.62851   0.79142   0.00000  Uiso   1.00
H740   H     0.30331   0.44307   0.70670   0.00000  Uiso   1.00
H741   H     0.02898   0.55698   0.79401   0.00000  Uiso   1.00
H742   H     0.27878   0.55743   0.79253   0.00000  Uiso   1.00
H743   H     0.29618   0.54765   0.98270   0.00000  Uiso   1.00
H744   H     0.14197   0.48242   0.58892   0.00000  Uiso   1.00
H745   H     0.05683   0.46786   0.91652   0.00000  Uiso   1.00
N746   N     0.04760   0.50001   0.75002   0.00000  Uiso   1.00
N747   N     0.28573   0.49998   0.75001   0.00000  Uiso   1.00
O748   O     0.12846   0.56108   0.75001   0.00000  Uiso   1.00
O749   O     0.20490   0.56107   0.75001   0.00000  Uiso   1.00
O750   O     0.10947   0.50000   0.82681   0.00000  Uiso   1.00
O751   O     0.18591   0.49999   0.82681   0.00000  Uiso   1.00
O752   O     0.12843   0.43893   0.75000   0.00000  Uiso   1.00
O753   O     0.20488   0.43892   0.75000   0.00000  Uiso   1.00
O754   O     0.14742   0.50001   0.67319   0.00000  Uiso   1.00
O755   O     0.22387   0.50000   0.67319   0.00000  Uiso   1.00
Zn756  Zn    0.11562   0.50001   0.75000   0.00000  Uiso   1.00
Zn757  Zn    0.21771   0.49999   0.75000   0.00000  Uiso   1.00
Cl758  Cl    0.30145   0.53112   0.58446   0.00000  Uiso   1.00
O759   O     0.05901   0.43573   0.69812   0.00000  Uiso   1.00
H760   H     0.09237   0.44576   0.68410   0.00000  Uiso   1.00
O761   O     0.26578   0.57507   0.91382   0.00000  Uiso   1.00
H762   H     0.26464   0.58554   0.87919   0.00000  Uiso   1.00
Cl763  Cl    0.12086   0.41754   0.54731   0.00000  Uiso   1.00
Cl764  Cl    0.03011   0.42011   0.51096   0.00000  Uiso   1.00
Cl765  Cl    0.17853   0.58452   0.87787   0.00000  Uiso   1.00
O766   O     0.25333   0.62392   0.69650   0.00000  Uiso   1.00
H767   H     0.28003   0.64403   0.68113   0.00000  Uiso   1.00
C768   C     0.50050   0.57998   0.74897   0.00000  Uiso   1.00
C769   C     0.48494   0.49046   0.98560   0.00000  Uiso   1.00
C770   C     0.48707   0.51235   0.93862   0.00000  Uiso   1.00
C771   C     0.51935   0.50089   0.50995   0.00000  Uiso   1.00
C772   C     0.56022   0.52539   0.98224   0.00000  Uiso   1.00
C773   C     0.56150   0.54753   0.93632   0.00000  Uiso   1.00
C774   C     0.52194   0.54435   0.91841   0.00000  Uiso   1.00
C775   C     0.51068   0.49258   0.56404   0.00000  Uiso   1.00
C776   C     0.58909   0.51941   0.55775   0.00000  Uiso   1.00
C777   C     0.45590   0.50010   0.91105   0.00000  Uiso   1.00
C778   C     0.54462   0.64557   0.72241   0.00000  Uiso   1.00
C779   C     0.47321   0.50138   0.85211   0.00000  Uiso   1.00
C780   C     0.54371   0.35538   0.72337   0.00000  Uiso   1.00
C781   C     0.50022   0.37597   0.74831   0.00000  Uiso   1.00
C782   C     0.45720   0.35452   0.77204   0.00000  Uiso   1.00
C783   C     0.45773   0.64515   0.77188   0.00000  Uiso   1.00
C784   C     0.50121   0.62420   0.74760   0.00000  Uiso   1.00
C785   C     0.64930   0.46824   0.72618   0.00000  Uiso   1.00
C786   C     0.36393   0.46831   0.72509   0.00000  Uiso   1.00
C787   C     0.35010   0.53164   0.77441   0.00000  Uiso   1.00
C788   C     0.63570   0.53179   0.77393   0.00000  Uiso   1.00
C789   C     0.49996   0.42006   0.74964   0.00000  Uiso   1.00
C790   C     0.52689   0.50021   0.64776   0.00000  Uiso   1.00
C791   C     0.59658   0.53128   0.50472   0.00000  Uiso   1.00
C792   C     0.54400   0.50269   0.58883   0.00000  Uiso   1.00
C793   C     0.41550   0.47556   0.93670   0.00000  Uiso   1.00
C794   C     0.41176   0.45505   0.98403   0.00000  Uiso   1.00
C795   C     0.44890   0.45879   0.50547   0.00000  Uiso   1.00
H796   H     0.57658   0.37282   0.70421   0.00000  Uiso   1.00
H797   H     0.42357   0.37074   0.79153   0.00000  Uiso   1.00
H798   H     0.42437   0.62851   0.79142   0.00000  Uiso   1.00
H799   H     0.63664   0.44307   0.70670   0.00000  Uiso   1.00
H800   H     0.36231   0.55698   0.79401   0.00000  Uiso   1.00
H801   H     0.61211   0.55743   0.79253   0.00000  Uiso   1.00
H802   H     0.62951   0.54765   0.98270   0.00000  Uiso   1.00
H803   H     0.47530   0.48242   0.58892   0.00000  Uiso   1.00
H804   H     0.39017   0.46786   0.91652   0.00000  Uiso   1.00
N805   N     0.38093   0.50001   0.75002   0.00000  Uiso   1.00
N806   N     0.61906   0.49998   0.75001   0.00000  Uiso   1.00
O807   O     0.46179   0.56108   0.75001   0.00000  Uiso   1.00
O808   O     0.53823   0.56107   0.75001   0.00000  Uiso   1.00
O809   O     0.44280   0.50000   0.82681   0.00000  Uiso   1.00
O810   O     0.51924   0.49999   0.82681   0.00000  Uiso   1.00
O811   O     0.46177   0.43893   0.75000   0.00000  Uiso   1.00
O812   O     0.53821   0.43892   0.75000   0.00000  Uiso   1.00
O813   O     0.48076   0.50001   0.67319   0.00000  Uiso   1.00
O814   O     0.55720   0.50000   0.67319   0.00000  Uiso   1.00
Zn815  Zn    0.44896   0.50001   0.75000   0.00000  Uiso   1.00
Zn816  Zn    0.55104   0.49999   0.75000   0.00000  Uiso   1.00
Cl817  Cl    0.63478   0.53112   0.58446   0.00000  Uiso   1.00
O818   O     0.39234   0.43573   0.69812   0.00000  Uiso   1.00
H819   H     0.42571   0.44576   0.68410   0.00000  Uiso   1.00
O820   O     0.59911   0.57507   0.91382   0.00000  Uiso   1.00
H821   H     0.59797   0.58554   0.87919   0.00000  Uiso   1.00
Cl822  Cl    0.45420   0.41754   0.54731   0.00000  Uiso   1.00
Cl823  Cl    0.36345   0.42011   0.51096   0.00000  Uiso   1.00
Cl824  Cl    0.51187   0.58452   0.87787   0.00000  Uiso   1.00
O825   O     0.58666   0.62392   0.69650   0.00000  Uiso   1.00
H826   H     0.61337   0.64403   0.68113   0.00000  Uiso   1.00
C827   C     0.83384   0.57998   0.74897   0.00000  Uiso   1.00
C828   C     0.81827   0.49046   0.98560   0.00000  Uiso   1.00
C829   C     0.82041   0.51235   0.93862   0.00000  Uiso   1.00
C830   C     0.85269   0.50089   0.50995   0.00000  Uiso   1.00
C831   C     0.89356   0.52539   0.98224   0.00000  Uiso   1.00
C832   C     0.89483   0.54753   0.93632   0.00000  Uiso   1.00
C833   C     0.85528   0.54435   0.91841   0.00000  Uiso   1.00
C834   C     0.84402   0.49258   0.56404   0.00000  Uiso   1.00
C835   C     0.92242   0.51941   0.55775   0.00000  Uiso   1.00
C836   C     0.78923   0.50010   0.91105   0.00000  Uiso   1.00
C837   C     0.87795   0.64557   0.72241   0.00000  Uiso   1.00
C838   C     0.80654   0.50138   0.85211   0.00000  Uiso   1.00
C839   C     0.87704   0.35538   0.72337   0.00000  Uiso   1.00
C840   C     0.83355   0.37597   0.74831   0.00000  Uiso   1.00
C841   C     0.79054   0.35452   0.77204   0.00000  Uiso   1.00
C842   C     0.79107   0.64515   0.77188   0.00000  Uiso   1.00
C843   C     0.83454   0.62420   0.74760   0.00000  Uiso   1.00
C844   C     0.98263   0.46824   0.72618   0.00000  Uiso   1.00
C845   C     0.69726   0.46831   0.72509   0.00000  Uiso   1.00
C846   C     0.68343   0.53164   0.77441   0.00000  Uiso   1.00
C847   C     0.96903   0.53179   0.77393   0.00000  Uiso   1.00
C848   C     0.83329   0.42006   0.74964   0.00000  Uiso   1.00
C849   C     0.86022   0.50021   0.64776   0.00000  Uiso   1.00
C850   C     0.92992   0.53128   0.50472   0.00000  Uiso   1.00
C851   C     0.87734   0.50269   0.58883   0.00000  Uiso   1.00
C852   C     0.74883   0.47556   0.93670   0.00000  Uiso   1.00
C853   C     0.74509   0.45505   0.98403   0.00000  Uiso   1.00
C854   C     0.78224   0.45879   0.50547   0.00000  Uiso   1.00
H855   H     0.90991   0.37282   0.70421   0.00000  Uiso   1.00
H856   H     0.75690   0.37074   0.79153   0.00000  Uiso   1.00
H857   H     0.75770   0.62851   0.79142   0.00000  Uiso   1.00
H858   H     0.96998   0.44307   0.70670   0.00000  Uiso   1.00
H859   H     0.69565   0.55698   0.79401   0.00000  Uiso   1.00
H860   H     0.94544   0.55743   0.79253   0.00000  Uiso   1.00
H861   H     0.96284   0.54765   0.98270   0.00000  Uiso   1.00
H862   H     0.80863   0.48242   0.58892   0.00000  Uiso   1.00
H863   H     0.72350   0.46786   0.91652   0.00000  Uiso   1.00
N864   N     0.71426   0.50001   0.75002   0.00000  Uiso   1.00
N865   N     0.95239   0.49998   0.75001   0.00000  Uiso   1.00
O866   O     0.79512   0.56108   0.75001   0.00000  Uiso   1.00
O867   O     0.87157   0.56107   0.75001   0.00000  Uiso   1.00
O868   O     0.77613   0.50000   0.82681   0.00000  Uiso   1.00
O869   O     0.85258   0.49999   0.82681   0.00000  Uiso   1.00
O870   O     0.79510   0.43893   0.75000   0.00000  Uiso   1.00
O871   O     0.87154   0.43892   0.75000   0.00000  Uiso   1.00
O872   O     0.81409   0.50001   0.67319   0.00000  Uiso   1.00
O873   O     0.89053   0.50000   0.67319   0.00000  Uiso   1.00
Zn874  Zn    0.78229   0.50001   0.75000   0.00000  Uiso   1.00
Zn875  Zn    0.88438   0.49999   0.75000   0.00000  Uiso   1.00
Cl876  Cl    0.96812   0.53112   0.58446   0.00000  Uiso   1.00
O877   O     0.72568   0.43573   0.69812   0.00000  Uiso   1.00
H878   H     0.75904   0.44576   0.68410   0.00000  Uiso   1.00
O879   O     0.93244   0.57507   0.91382   0.00000  Uiso   1.00
H880   H     0.93131   0.58554   0.87919   0.00000  Uiso   1.00
Cl881  Cl    0.78753   0.41754   0.54731   0.00000  Uiso   1.00
Cl882  Cl    0.69678   0.42011   0.51096   0.00000  Uiso   1.00
Cl883  Cl    0.84520   0.58452   0.87787   0.00000  Uiso   1.00
O884   O     0.92000   0.62392   0.69650   0.00000  Uiso   1.00
H885   H     0.94670   0.64403   0.68113   0.00000  Uiso   1.00
C886   C     0.16717   0.91331   0.74897   0.00000  Uiso   1.00
C887   C     0.15161   0.82380   0.98560   0.00000  Uiso   1.00
C888   C     0.15374   0.84569   0.93862   0.00000  Uiso   1.00
C889   C     0.18602   0.83422   0.50995   0.00000  Uiso   1.00
C890   C     0.22689   0.85872   0.98224   0.00000  Uiso   1.00
C891   C     0.22817   0.88087   0.93632   0.00000  Uiso   1.00
C892   C     0.18861   0.87768   0.91841   0.00000  Uiso   1.00
C893   C     0.17735   0.82591   0.56404   0.00000  Uiso   1.00
C894   C     0.25575   0.85275   0.55775   0.00000  Uiso   1.00
C895   C     0.12256   0.83343   0.91105   0.00000  Uiso   1.00
C896   C     0.21129   0.97890   0.72241   0.00000  Uiso   1.00
C897   C     0.13988   0.83471   0.85211   0.00000  Uiso   1.00
C898   C     0.21038   0.68871   0.72337   0.00000  Uiso   1.00
C899   C     0.16688   0.70931   0.74831   0.00000  Uiso   1.00
C900   C     0.12387   0.68785   0.77204   0.00000  Uiso   1.00
C901   C     0.12440   0.97848   0.77188   0.00000  Uiso   1.00
C902   C     0.16788   0.95753   0.74760   0.00000  Uiso   1.00
C903   C     0.31597   0.80157   0.72618   0.00000  Uiso   1.00
C904   C     0.03059   0.80164   0.72509   0.00000  Uiso   1.00
C905   C     0.01676   0.86498   0.77441   0.00000  Uiso   1.00
C906   C     0.30237   0.86513   0.77393   0.00000  Uiso   1.00
C907   C     0.16663   0.75339   0.74964   0.00000  Uiso   1.00
C908   C     0.19356   0.83355   0.64776   0.00000  Uiso   1.00
C909   C     0.26325   0.86462   0.50472   0.00000  Uiso   1.00
C910   C     0.21067   0.83602   0.58883   0.00000  Uiso   1.00
C911   C     0.08217   0.80889   0.93670   0.00000  Uiso   1.00
C912   C     0.07842   0.78839   0.98403   0.00000  Uiso   1.00
C913   C     0.11557   0.79212   0.50547   0.00000  Uiso   1.00
H914   H     0.24324   0.70615   0.70421   0.00000  Uiso   1.00
H915   H     0.09024   0.70407   0.79153   0.00000  Uiso   1.00
H916   H     0.09103   0.96185   0.79142   0.00000  Uiso   1.00
H917   H     0.30331   0.77640   0.70670   0.00000  Uiso   1.00
H918   H     0.02898   0.89032   0.79401   0.00000  Uiso   1.00
H919   H     0.27878   0.89076   0.79253   0.00000  Uiso   1.00
H920   H     0.29618   0.88099   0.98270   0.00000  Uiso   1.00
H921   H     0.14197   0.81576   0.58892   0.00000  Uiso   1.00
H922   H     0.05683   0.80120   0.91652   0.00000  Uiso   1.00
N923   N     0.04760   0.83334   0.75002   0.00000  Uiso   1.00
N924   N     0.28573   0.83331   0.75001   0.00000  Uiso   1.00
O925   O     0.12846   0.89442   0.75001   0.00000  Uiso   1.00
O926   O     0.20490   0.89441   0.75001   0.00000  Uiso   1.00
O927   O     0.10947   0.83333   0.82681   0.00000  Uiso   1.00
O928   O     0.18591   0.83332   0.82681   0.00000  Uiso   1.00
O929   O     0.12843   0.77226   0.75000   0.00000  Uiso   1.00
O930   O     0.20488   0.77225   0.75000   0.00000  Uiso   1.00
O931   O     0.14742   0.83335   0.67319   0.00000  Uiso   1.00
O932   O     0.22387   0.83334   0.67319   0.00000  Uiso   1.00
Zn933  Zn    0.11562   0.83334   0.75000   0.00000  Uiso   1.00
Zn934  Zn    0.21771   0.83333   0.75000   0.00000  Uiso   1.00
Cl935  Cl    0.30145   0.86446   0.58446   0.00000  Uiso   1.00
O936   O     0.05901   0.76906   0.69812   0.00000  Uiso   1.00
H937   H     0.09237   0.77910   0.68410   0.00000  Uiso   1.00
O938   O     0.26578   0.90840   0.91382   0.00000  Uiso   1.00
H939   H     0.26464   0.91888   0.87919   0.00000  Uiso   1.00
Cl940  Cl    0.12086   0.75087   0.54731   0.00000  Uiso   1.00
Cl941  Cl    0.03011   0.75344   0.51096   0.00000  Uiso   1.00
Cl942  Cl    0.17853   0.91785   0.87787   0.00000  Uiso   1.00
O943   O     0.25333   0.95725   0.69650   0.00000  Uiso   1.00
H944   H     0.28003   0.97736   0.68113   0.00000  Uiso   1.00
C945   C     0.50050   0.91331   0.74897   0.00000  Uiso   1.00
C946   C     0.48494   0.82380   0.98560   0.00000  Uiso   1.00
C947   C     0.48707   0.84569   0.93862   0.00000  Uiso   1.00
C948   C     0.51935   0.83422   0.50995   0.00000  Uiso   1.00
C949   C     0.56022   0.85872   0.98224   0.00000  Uiso   1.00
C950   C     0.56150   0.88087   0.93632   0.00000  Uiso   1.00
C951   C     0.52194   0.87768   0.91841   0.00000  Uiso   1.00
C952   C     0.51068   0.82591   0.56404   0.00000  Uiso   1.00
C953   C     0.58909   0.85275   0.55775   0.00000  Uiso   1.00
C954   C     0.45590   0.83343   0.91105   0.00000  Uiso   1.00
C955   C     0.54462   0.97890   0.72241   0.00000  Uiso   1.00
C956   C     0.47321   0.83471   0.85211   0.00000  Uiso   1.00
C957   C     0.54371   0.68871   0.72337   0.00000  Uiso   1.00
C958   C     0.50022   0.70931   0.74831   0.00000  Uiso   1.00
C959   C     0.45720   0.68785   0.77204   0.00000  Uiso   1.00
C960   C     0.45773   0.97848   0.77188   0.00000  Uiso   1.00
C961   C     0.50121   0.95753   0.74760   0.00000  Uiso   1.00
C962   C     0.64930   0.80157   0.72618   0.00000  Uiso   1.00
C963   C     0.36393   0.80164   0.72509   0.00000  Uiso   1.00
C964   C     0.35010   0.86498   0.77441   0.00000  Uiso   1.00
C965   C     0.63570   0.86513   0.77393   0.00000  Uiso   1.00
C966   C     0.49996   0.75339   0.74964   0.00000  Uiso   1.00
C967   C     0.52689   0.83355   0.64776   0.00000  Uiso   1.00
C968   C     0.59658   0.86462   0.50472   0.00000  Uiso   1.00
C969   C     0.54400   0.83602   0.58883   0.00000  Uiso   1.00
C970   C     0.41550   0.80889   0.93670   0.00000  Uiso   1.00
C971   C     0.41176   0.78839   0.98403   0.00000  Uiso   1.00
C972   C     0.44890   0.79212   0.50547   0.00000  Uiso   1.00
H973   H     0.57658   0.70615   0.70421   0.00000  Uiso   1.00
H974   H     0.42357   0.70407   0.79153   0.00000  Uiso   1.00
H975   H     0.42437   0.96185   0.79142   0.00000  Uiso   1.00
H976   H     0.63664   0.77640   0.70670   0.00000  Uiso   1.00
H977   H     0.36231   0.89032   0.79401   0.00000  Uiso   1.00
H978   H     0.61211   0.89076   0.79253   0.00000  Uiso   1.00
H979   H     0.62951   0.88099   0.98270   0.00000  Uiso   1.00
H980   H     0.47530   0.81576   0.58892   0.00000  Uiso   1.00
H981   H     0.39017   0.80120   0.91652   0.00000  Uiso   1.00
N982   N     0.38093   0.83334   0.75002   0.00000  Uiso   1.00
N983   N     0.61906   0.83331   0.75001   0.00000  Uiso   1.00
O984   O     0.46179   0.89442   0.75001   0.00000  Uiso   1.00
O985   O     0.53823   0.89441   0.75001   0.00000  Uiso   1.00
O986   O     0.44280   0.83333   0.82681   0.00000  Uiso   1.00
O987   O     0.51924   0.83332   0.82681   0.00000  Uiso   1.00
O988   O     0.46177   0.77226   0.75000   0.00000  Uiso   1.00
O989   O     0.53821   0.77225   0.75000   0.00000  Uiso   1.00
O990   O     0.48076   0.83335   0.67319   0.00000  Uiso   1.00
O991   O     0.55720   0.83334   0.67319   0.00000  Uiso   1.00
Zn992  Zn    0.44896   0.83334   0.75000   0.00000  Uiso   1.00
Zn993  Zn    0.55104   0.83333   0.75000   0.00000  Uiso   1.00
Cl994  Cl    0.63478   0.86446   0.58446   0.00000  Uiso   1.00
O995   O     0.39234   0.76906   0.69812   0.00000  Uiso   1.00
H996   H     0.42571   0.77910   0.68410   0.00000  Uiso   1.00
O997   O     0.59911   0.90840   0.91382   0.00000  Uiso   1.00
H998   H     0.59797   0.91888   0.87919   0.00000  Uiso   1.00
Cl999  Cl    0.45420   0.75087   0.54731   0.00000  Uiso   1.00
Cl1000 Cl    0.36345   0.75344   0.51096   0.00000  Uiso   1.00
Cl1001 Cl    0.51187   0.91785   0.87787   0.00000  Uiso   1.00
O1002  O     0.58666   0.95725   0.69650   0.00000  Uiso   1.00
H1003  H     0.61337   0.97736   0.68113   0.00000  Uiso   1.00
C1004  C     0.83384   0.91331   0.74897   0.00000  Uiso   1.00
C1005  C     0.81827   0.82380   0.98560   0.00000  Uiso   1.00
C1006  C     0.82041   0.84569   0.93862   0.00000  Uiso   1.00
C1007  C     0.85269   0.83422   0.50995   0.00000  Uiso   1.00
C1008  C     0.89356   0.85872   0.98224   0.00000  Uiso   1.00
C1009  C     0.89483   0.88087   0.93632   0.00000  Uiso   1.00
C1010  C     0.85528   0.87768   0.91841   0.00000  Uiso   1.00
C1011  C     0.84402   0.82591   0.56404   0.00000  Uiso   1.00
C1012  C     0.92242   0.85275   0.55775   0.00000  Uiso   1.00
C1013  C     0.78923   0.83343   0.91105   0.00000  Uiso   1.00
C1014  C     0.87795   0.97890   0.72241   0.00000  Uiso   1.00
C1015  C     0.80654   0.83471   0.85211   0.00000  Uiso   1.00
C1016  C     0.87704   0.68871   0.72337   0.00000  Uiso   1.00
C1017  C     0.83355   0.70931   0.74831   0.00000  Uiso   1.00
C1018  C     0.79054   0.68785   0.77204   0.00000  Uiso   1.00
C1019  C     0.79107   0.97848   0.77188   0.00000  Uiso   1.00
C1020  C     0.83454   0.95753   0.74760   0.00000  Uiso   1.00
C1021  C     0.98263   0.80157   0.72618   0.00000  Uiso   1.00
C1022  C     0.69726   0.80164   0.72509   0.00000  Uiso   1.00
C1023  C     0.68343   0.86498   0.77441   0.00000  Uiso   1.00
C1024  C     0.96903   0.86513   0.77393   0.00000  Uiso   1.00
C1025  C     0.83329   0.75339   0.74964   0.00000  Uiso   1.00
C1026  C     0.86022   0.83355   0.64776   0.00000  Uiso   1.00
C1027  C     0.92992   0.86462   0.50472   0.00000  Uiso   1.00
C1028  C     0.87734   0.83602   0.58883   0.00000  Uiso   1.00
C1029  C     0.74883   0.80889   0.93670   0.00000  Uiso   1.00
C1030  C     0.74509   0.78839   0.98403   0.00000  Uiso   1.00
C1031  C     0.78224   0.79212   0.50547   0.00000  Uiso   1.00
H1032  H     0.90991   0.70615   0.70421   0.00000  Uiso   1.00
H1033  H     0.75690   0.70407   0.79153   0.00000  Uiso   1.00
H1034  H     0.75770   0.96185   0.79142   0.00000  Uiso   1.00
H1035  H     0.96998   0.77640   0.70670   0.00000  Uiso   1.00
H1036  H     0.69565   0.89032   0.79401   0.00000  Uiso   1.00
H1037  H     0.94544   0.89076   0.79253   0.00000  Uiso   1.00
H1038  H     0.96284   0.88099   0.98270   0.00000  Uiso   1.00
H1039  H     0.80863   0.81576   0.58892   0.00000  Uiso   1.00
H1040  H     0.72350   0.80120   0.91652   0.00000  Uiso   1.00
N1041  N     0.71426   0.83334   0.75002   0.00000  Uiso   1.00
N1042  N     0.95239   0.83331   0.75001   0.00000  Uiso   1.00
O1043  O     0.79512   0.89442   0.75001   0.00000  Uiso   1.00
O1044  O     0.87157   0.89441   0.75001   0.00000  Uiso   1.00
O1045  O     0.77613   0.83333   0.82681   0.00000  Uiso   1.00
O1046  O     0.85258   0.83332   0.82681   0.00000  Uiso   1.00
O1047  O     0.79510   0.77226   0.75000   0.00000  Uiso   1.00
O1048  O     0.87154   0.77225   0.75000   0.00000  Uiso   1.00
O1049  O     0.81409   0.83335   0.67319   0.00000  Uiso   1.00
O1050  O     0.89053   0.83334   0.67319   0.00000  Uiso   1.00
Zn1051 Zn    0.78229   0.83334   0.75000   0.00000  Uiso   1.00
Zn1052 Zn    0.88438   0.83333   0.75000   0.00000  Uiso   1.00
Cl1053 Cl    0.96812   0.86446   0.58446   0.00000  Uiso   1.00
O1054  O     0.72568   0.76906   0.69812   0.00000  Uiso   1.00
H1055  H     0.75904   0.77910   0.68410   0.00000  Uiso   1.00
O1056  O     0.93244   0.90840   0.91382   0.00000  Uiso   1.00
H1057  H     0.93131   0.91888   0.87919   0.00000  Uiso   1.00
Cl1058 Cl    0.78753   0.75087   0.54731   0.00000  Uiso   1.00
Cl1059 Cl    0.69678   0.75344   0.51096   0.00000  Uiso   1.00
Cl1060 Cl    0.84520   0.91785   0.87787   0.00000  Uiso   1.00
O1061  O     0.92000   0.95725   0.69650   0.00000  Uiso   1.00
H1062  H     0.94670   0.97736   0.68113   0.00000  Uiso   1.00
loop_
_geom_bond_atom_site_label_1
_geom_bond_atom_site_label_2
_geom_bond_distance
_geom_bond_site_symmetry_2
_ccdc_geom_bond_type
C1     O41     1.284   .     A
C1     C17     1.418   .     S
C1     O40     1.285   .     A
C2     C3      1.413   .     A
C2     C535    1.414   .     S
C2     C559    1.434   .     S
C3     C10     1.408   .     A
C3     C7      1.422   .     A
C4     C8      1.387   .     A
C4     C533    1.414   1_554 S
C4     C536    1.417   1_554 S
C5     C6      1.399   .     A
C5     C535    1.417   .     S
C5     C555    1.407   .     S
C6     C7      1.408   .     A
C6     O53     1.384   .     S
C7     Cl57    1.775   .     S
C8     C25     1.392   .     A
C8     H36     1.078   .     S
C9     C25     1.410   .     A
C9     C24     1.394   .     A
C9     Cl50    1.763   .     S
C10    C26     1.397   .     A
C10    C12     1.458   .     S
C11    O58     1.383   .     S
C11    C17     1.405   .     A
C11    C190    1.383   .     S
C12    O43     1.296   .     A
C12    O42     1.292   .     A
C13    H29     1.084   .     S
C13    C14     1.395   .     A
C13    C365    1.383   1_545 S
C14    C15     1.392   .     A
C14    C22     1.413   .     S
C15    H30     1.084   .     S
C15    C370    1.369   1_545 S
C16    H31     1.084   .     S
C16    C17     1.398   .     A
C16    C192    1.369   .     S
C18    N39     1.357   .     A
C18    H32     1.082   .     S
C18    C78     1.411   .     S
C19    N38     1.385   .     A
C19    O51     1.373   .     S
C19    C136    1.411   1_455 S
C20    N38     1.367   .     A
C20    H33     1.082   .     S
C20    C139    1.418   1_455 S
C21    N39     1.367   .     A
C21    H34     1.080   .     S
C21    C79     1.418   .     S
C22    O45     1.283   .     A
C22    O44     1.284   .     A
C23    C25     1.460   .     S
C23    O47     1.292   .     A
C23    O46     1.298   .     A
C24    C536    1.407   1_554 S
C24    H566    1.084   1_554 S
C26    H37     1.084   .     S
C26    C27     1.387   .     A
C27    C559    1.403   .     S
C27    Cl587   1.762   .     S
C28    Cl55    1.775   .     S
C28    C533    1.434   1_554 S
C28    C558    1.403   1_554 S
H35    C555    1.084   .     S
N38    Zn48    2.015   .     S
N39    Zn49    2.015   .     S
O40    Zn48    1.992   .     S
O41    Zn49    1.997   .     S
O42    Zn48    1.967   .     S
O43    Zn49    1.915   .     S
O44    Zn48    1.997   .     S
O45    Zn49    1.992   .     S
O46    Zn48    1.915   .     S
O47    Zn49    1.967   .     S
O51    H52     0.982   .     S
O53    H54     0.987   .     S
Cl56   C558    1.762   1_554 S
O58    H59     0.992   .     S
C60    O100    1.284   .     A
C60    C76     1.418   .     S
C60    O99     1.285   .     A
C61    C62     1.413   .     A
C61    C594    1.414   .     S
C61    C618    1.434   .     S
C62    C69     1.408   .     A
C62    C66     1.422   .     A
C63    C67     1.387   .     A
C63    C592    1.414   1_554 S
C63    C595    1.417   1_554 S
C64    C65     1.399   .     A
C64    C594    1.417   .     S
C64    C614    1.407   .     S
C65    C66     1.408   .     A
C65    O112    1.384   .     S
C66    Cl116   1.775   .     S
C67    C84     1.392   .     A
C67    H95     1.078   .     S
C68    C84     1.410   .     A
C68    C83     1.394   .     A
C68    Cl109   1.763   .     S
C69    C85     1.397   .     A
C69    C71     1.458   .     S
C70    O117    1.383   .     S
C70    C76     1.405   .     A
C70    C249    1.383   .     S
C71    O102    1.296   .     A
C71    O101    1.292   .     A
C72    H88     1.084   .     S
C72    C73     1.395   .     A
C72    C424    1.383   1_545 S
C73    C74     1.392   .     A
C73    C81     1.413   .     S
C74    H89     1.084   .     S
C74    C429    1.369   1_545 S
C75    H90     1.084   .     S
C75    C76     1.398   .     A
C75    C251    1.369   .     S
C77    N98     1.357   .     A
C77    H91     1.082   .     S
C77    C137    1.411   .     S
C78    N97     1.385   .     A
C78    O110    1.373   .     S
C79    N97     1.367   .     A
C79    H92     1.082   .     S
C80    N98     1.367   .     A
C80    H93     1.080   .     S
C80    C138    1.418   .     S
C81    O104    1.283   .     A
C81    O103    1.284   .     A
C82    C84     1.460   .     S
C82    O106    1.292   .     A
C82    O105    1.298   .     A
C83    C595    1.407   1_554 S
C83    H625    1.084   1_554 S
C85    H96     1.084   .     S
C85    C86     1.387   .     A
C86    C618    1.403   .     S
C86    Cl646   1.762   .     S
C87    Cl114   1.775   .     S
C87    C592    1.434   1_554 S
C87    C617    1.403   1_554 S
H94    C614    1.084   .     S
N97    Zn107   2.015   .     S
N98    Zn108   2.015   .     S
O99    Zn107   1.992   .     S
O100   Zn108   1.997   .     S
O101   Zn107   1.967   .     S
O102   Zn108   1.915   .     S
O103   Zn107   1.997   .     S
O104   Zn108   1.992   .     S
O105   Zn107   1.915   .     S
O106   Zn108   1.967   .     S
O110   H111    0.982   .     S
O112   H113    0.987   .     S
Cl115  C617    1.762   1_554 S
O117   H118    0.992   .     S
C119   O159    1.284   .     A
C119   C135    1.418   .     S
C119   O158    1.285   .     A
C120   C121    1.413   .     A
C120   C653    1.414   .     S
C120   C677    1.434   .     S
C121   C128    1.408   .     A
C121   C125    1.422   .     A
C122   C126    1.387   .     A
C122   C651    1.414   1_554 S
C122   C654    1.417   1_554 S
C123   C124    1.399   .     A
C123   C653    1.417   .     S
C123   C673    1.407   .     S
C124   C125    1.408   .     A
C124   O171    1.384   .     S
C125   Cl175   1.775   .     S
C126   C143    1.392   .     A
C126   H154    1.078   .     S
C127   C143    1.410   .     A
C127   C142    1.394   .     A
C127   Cl168   1.763   .     S
C128   C144    1.397   .     A
C128   C130    1.458   .     S
C129   O176    1.383   .     S
C129   C135    1.405   .     A
C129   C308    1.383   .     S
C130   O161    1.296   .     A
C130   O160    1.292   .     A
C131   H147    1.084   .     S
C131   C132    1.395   .     A
C131   C483    1.383   1_545 S
C132   C133    1.392   .     A
C132   C140    1.413   .     S
C133   H148    1.084   .     S
C133   C488    1.369   1_545 S
C134   H149    1.084   .     S
C134   C135    1.398   .     A
C134   C310    1.369   .     S
C136   N157    1.357   .     A
C136   H150    1.082   .     S
C136   C19     1.411   1_655 S
C137   N156    1.385   .     A
C137   O169    1.373   .     S
C138   N156    1.367   .     A
C138   H151    1.082   .     S
C139   N157    1.367   .     A
C139   H152    1.080   .     S
C139   C20     1.418   1_655 S
C140   O163    1.283   .     A
C140   O162    1.284   .     A
C141   C143    1.460   .     S
C141   O165    1.292   .     A
C141   O164    1.298   .     A
C142   C654    1.407   1_554 S
C142   H684    1.084   1_554 S
C144   H155    1.084   .     S
C144   C145    1.387   .     A
C145   C677    1.403   .     S
C145   Cl705   1.762   .     S
C146   Cl173   1.775   .     S
C146   C651    1.434   1_554 S
C146   C676    1.403   1_554 S
H153   C673    1.084   .     S
N156   Zn166   2.015   .     S
N157   Zn167   2.015   .     S
O158   Zn166   1.992   .     S
O159   Zn167   1.997   .     S
O160   Zn166   1.967   .     S
O161   Zn167   1.915   .     S
O162   Zn166   1.997   .     S
O163   Zn167   1.992   .     S
O164   Zn166   1.915   .     S
O165   Zn167   1.967   .     S
O169   H170    0.982   .     S
O171   H172    0.987   .     S
Cl174  C676    1.762   1_554 S
O176   H177    0.992   .     S
C178   O218    1.284   .     A
C178   C194    1.418   .     S
C178   O217    1.285   .     A
C179   C180    1.413   .     A
C179   C712    1.414   .     S
C179   C736    1.434   .     S
C180   C187    1.408   .     A
C180   C184    1.422   .     A
C181   C185    1.387   .     A
C181   C710    1.414   1_554 S
C181   C713    1.417   1_554 S
C182   C183    1.399   .     A
C182   C712    1.417   .     S
C182   C732    1.407   .     S
C183   C184    1.408   .     A
C183   O230    1.384   .     S
C184   Cl234   1.775   .     S
C185   C202    1.392   .     A
C185   H213    1.078   .     S
C186   C202    1.410   .     A
C186   C201    1.394   .     A
C186   Cl227   1.763   .     S
C187   C203    1.397   .     A
C187   C189    1.458   .     S
C188   O235    1.383   .     S
C188   C194    1.405   .     A
C188   C367    1.383   .     S
C189   O220    1.296   .     A
C189   O219    1.292   .     A
C190   H206    1.084   .     S
C190   C191    1.395   .     A
C191   C192    1.392   .     A
C191   C199    1.413   .     S
C192   H207    1.084   .     S
C193   H208    1.084   .     S
C193   C194    1.398   .     A
C193   C369    1.369   .     S
C195   N216    1.357   .     A
C195   H209    1.082   .     S
C195   C255    1.411   .     S
C196   N215    1.385   .     A
C196   O228    1.373   .     S
C196   C313    1.411   1_455 S
C197   N215    1.367   .     A
C197   H210    1.082   .     S
C197   C316    1.418   1_455 S
C198   N216    1.367   .     A
C198   H211    1.080   .     S
C198   C256    1.418   .     S
C199   O222    1.283   .     A
C199   O221    1.284   .     A
C200   C202    1.460   .     S
C200   O224    1.292   .     A
C200   O223    1.298   .     A
C201   C713    1.407   1_554 S
C201   H743    1.084   1_554 S
C203   H214    1.084   .     S
C203   C204    1.387   .     A
C204   C736    1.403   .     S
C204   Cl764   1.762   .     S
C205   Cl232   1.775   .     S
C205   C710    1.434   1_554 S
C205   C735    1.403   1_554 S
H212   C732    1.084   .     S
N215   Zn225   2.015   .     S
N216   Zn226   2.015   .     S
O217   Zn225   1.992   .     S
O218   Zn226   1.997   .     S
O219   Zn225   1.967   .     S
O220   Zn226   1.915   .     S
O221   Zn225   1.997   .     S
O222   Zn226   1.992   .     S
O223   Zn225   1.915   .     S
O224   Zn226   1.967   .     S
O228   H229    0.982   .     S
O230   H231    0.987   .     S
Cl233  C735    1.762   1_554 S
O235   H236    0.992   .     S
C237   O277    1.284   .     A
C237   C253    1.418   .     S
C237   O276    1.285   .     A
C238   C239    1.413   .     A
C238   C771    1.414   .     S
C238   C795    1.434   .     S
C239   C246    1.408   .     A
C239   C243    1.422   .     A
C240   C244    1.387   .     A
C240   C769    1.414   1_554 S
C240   C772    1.417   1_554 S
C241   C242    1.399   .     A
C241   C771    1.417   .     S
C241   C791    1.407   .     S
C242   C243    1.408   .     A
C242   O289    1.384   .     S
C243   Cl293   1.775   .     S
C244   C261    1.392   .     A
C244   H272    1.078   .     S
C245   C261    1.410   .     A
C245   C260    1.394   .     A
C245   Cl286   1.763   .     S
C246   C262    1.397   .     A
C246   C248    1.458   .     S
C247   O294    1.383   .     S
C247   C253    1.405   .     A
C247   C426    1.383   .     S
C248   O279    1.296   .     A
C248   O278    1.292   .     A
C249   H265    1.084   .     S
C249   C250    1.395   .     A
C250   C251    1.392   .     A
C250   C258    1.413   .     S
C251   H266    1.084   .     S
C252   H267    1.084   .     S
C252   C253    1.398   .     A
C252   C428    1.369   .     S
C254   N275    1.357   .     A
C254   H268    1.082   .     S
C254   C314    1.411   .     S
C255   N274    1.385   .     A
C255   O287    1.373   .     S
C256   N274    1.367   .     A
C256   H269    1.082   .     S
C257   N275    1.367   .     A
C257   H270    1.080   .     S
C257   C315    1.418   .     S
C258   O281    1.283   .     A
C258   O280    1.284   .     A
C259   C261    1.460   .     S
C259   O283    1.292   .     A
C259   O282    1.298   .     A
C260   C772    1.407   1_554 S
C260   H802    1.084   1_554 S
C262   H273    1.084   .     S
C262   C263    1.387   .     A
C263   C795    1.403   .     S
C263   Cl823   1.762   .     S
C264   Cl291   1.775   .     S
C264   C769    1.434   1_554 S
C264   C794    1.403   1_554 S
H271   C791    1.084   .     S
N274   Zn284   2.015   .     S
N275   Zn285   2.015   .     S
O276   Zn284   1.992   .     S
O277   Zn285   1.997   .     S
O278   Zn284   1.967   .     S
O279   Zn285   1.915   .     S
O280   Zn284   1.997   .     S
O281   Zn285   1.992   .     S
O282   Zn284   1.915   .     S
O283   Zn285   1.967   .     S
O287   H288    0.982   .     S
O289   H290    0.987   .     S
Cl292  C794    1.762   1_554 S
O294   H295    0.992   .     S
C296   O336    1.284   .     A
C296   C312    1.418   .     S
C296   O335    1.285   .     A
C297   C298    1.413   .     A
C297   C830    1.414   .     S
C297   C854    1.434   .     S
C298   C305    1.408   .     A
C298   C302    1.422   .     A
C299   C303    1.387   .     A
C299   C828    1.414   1_554 S
C299   C831    1.417   1_554 S
C300   C301    1.399   .     A
C300   C830    1.417   .     S
C300   C850    1.407   .     S
C301   C302    1.408   .     A
C301   O348    1.384   .     S
C302   Cl352   1.775   .     S
C303   C320    1.392   .     A
C303   H331    1.078   .     S
C304   C320    1.410   .     A
C304   C319    1.394   .     A
C304   Cl345   1.763   .     S
C305   C321    1.397   .     A
C305   C307    1.458   .     S
C306   O353    1.383   .     S
C306   C312    1.405   .     A
C306   C485    1.383   .     S
C307   O338    1.296   .     A
C307   O337    1.292   .     A
C308   H324    1.084   .     S
C308   C309    1.395   .     A
C309   C310    1.392   .     A
C309   C317    1.413   .     S
C310   H325    1.084   .     S
C311   H326    1.084   .     S
C311   C312    1.398   .     A
C311   C487    1.369   .     S
C313   N334    1.357   .     A
C313   H327    1.082   .     S
C313   C196    1.411   1_655 S
C314   N333    1.385   .     A
C314   O346    1.373   .     S
C315   N333    1.367   .     A
C315   H328    1.082   .     S
C316   N334    1.367   .     A
C316   H329    1.080   .     S
C316   C197    1.418   1_655 S
C317   O340    1.283   .     A
C317   O339    1.284   .     A
C318   C320    1.460   .     S
C318   O342    1.292   .     A
C318   O341    1.298   .     A
C319   C831    1.407   1_554 S
C319   H861    1.084   1_554 S
C321   H332    1.084   .     S
C321   C322    1.387   .     A
C322   C854    1.403   .     S
C322   Cl882   1.762   .     S
C323   Cl350   1.775   .     S
C323   C828    1.434   1_554 S
C323   C853    1.403   1_554 S
H330   C850    1.084   .     S
N333   Zn343   2.015   .     S
N334   Zn344   2.015   .     S
O335   Zn343   1.992   .     S
O336   Zn344   1.997   .     S
O337   Zn343   1.967   .     S
O338   Zn344   1.915   .     S
O339   Zn343   1.997   .     S
O340   Zn344   1.992   .     S
O341   Zn343   1.915   .     S
O342   Zn344   1.967   .     S
O346   H347    0.982   .     S
O348   H349    0.987   .     S
Cl351  C853    1.762   1_554 S
O353   H354    0.992   .     S
C355   O395    1.284   .     A
C355   C371    1.418   .     S
C355   O394    1.285   .     A
C356   C357    1.413   .     A
C356   C889    1.414   .     S
C356   C913    1.434   .     S
C357   C364    1.408   .     A
C357   C361    1.422   .     A
C358   C362    1.387   .     A
C358   C887    1.414   1_554 S
C358   C890    1.417   1_554 S
C359   C360    1.399   .     A
C359   C889    1.417   .     S
C359   C909    1.407   .     S
C360   C361    1.408   .     A
C360   O407    1.384   .     S
C361   Cl411   1.775   .     S
C362   C379    1.392   .     A
C362   H390    1.078   .     S
C363   C379    1.410   .     A
C363   C378    1.394   .     A
C363   Cl404   1.763   .     S
C364   C380    1.397   .     A
C364   C366    1.458   .     S
C365   O412    1.383   .     S
C365   C371    1.405   .     A
C365   C13     1.383   1_565 S
C366   O397    1.296   .     A
C366   O396    1.292   .     A
C367   H383    1.084   .     S
C367   C368    1.395   .     A
C368   C369    1.392   .     A
C368   C376    1.413   .     S
C369   H384    1.084   .     S
C370   H385    1.084   .     S
C370   C371    1.398   .     A
C370   C15     1.369   1_565 S
C372   N393    1.357   .     A
C372   H386    1.082   .     S
C372   C432    1.411   .     S
C373   N392    1.385   .     A
C373   O405    1.373   .     S
C373   C490    1.411   1_455 S
C374   N392    1.367   .     A
C374   H387    1.082   .     S
C374   C493    1.418   1_455 S
C375   N393    1.367   .     A
C375   H388    1.080   .     S
C375   C433    1.418   .     S
C376   O399    1.283   .     A
C376   O398    1.284   .     A
C377   C379    1.460   .     S
C377   O401    1.292   .     A
C377   O400    1.298   .     A
C378   C890    1.407   1_554 S
C378   H920    1.084   1_554 S
C380   H391    1.084   .     S
C380   C381    1.387   .     A
C381   C913    1.403   .     S
C381   Cl941   1.762   .     S
C382   Cl409   1.775   .     S
C382   C887    1.434   1_554 S
C382   C912    1.403   1_554 S
H389   C909    1.084   .     S
N392   Zn402   2.015   .     S
N393   Zn403   2.015   .     S
O394   Zn402   1.992   .     S
O395   Zn403   1.997   .     S
O396   Zn402   1.967   .     S
O397   Zn403   1.915   .     S
O398   Zn402   1.997   .     S
O399   Zn403   1.992   .     S
O400   Zn402   1.915   .     S
O401   Zn403   1.967   .     S
O405   H406    0.982   .     S
O407   H408    0.987   .     S
Cl410  C912    1.762   1_554 S
O412   H413    0.992   .     S
C414   O454    1.284   .     A
C414   C430    1.418   .     S
C414   O453    1.285   .     A
C415   C416    1.413   .     A
C415   C948    1.414   .     S
C415   C972    1.434   .     S
C416   C423    1.408   .     A
C416   C420    1.422   .     A
C417   C421    1.387   .     A
C417   C946    1.414   1_554 S
C417   C949    1.417   1_554 S
C418   C419    1.399   .     A
C418   C948    1.417   .     S
C418   C968    1.407   .     S
C419   C420    1.408   .     A
C419   O466    1.384   .     S
C420   Cl470   1.775   .     S
C421   C438    1.392   .     A
C421   H449    1.078   .     S
C422   C438    1.410   .     A
C422   C437    1.394   .     A
C422   Cl463   1.763   .     S
C423   C439    1.397   .     A
C423   C425    1.458   .     S
C424   O471    1.383   .     S
C424   C430    1.405   .     A
C424   C72     1.383   1_565 S
C425   O456    1.296   .     A
C425   O455    1.292   .     A
C426   H442    1.084   .     S
C426   C427    1.395   .     A
C427   C428    1.392   .     A
C427   C435    1.413   .     S
C428   H443    1.084   .     S
C429   H444    1.084   .     S
C429   C430    1.398   .     A
C429   C74     1.369   1_565 S
C431   N452    1.357   .     A
C431   H445    1.082   .     S
C431   C491    1.411   .     S
C432   N451    1.385   .     A
C432   O464    1.373   .     S
C433   N451    1.367   .     A
C433   H446    1.082   .     S
C434   N452    1.367   .     A
C434   H447    1.080   .     S
C434   C492    1.418   .     S
C435   O458    1.283   .     A
C435   O457    1.284   .     A
C436   C438    1.460   .     S
C436   O460    1.292   .     A
C436   O459    1.298   .     A
C437   C949    1.407   1_554 S
C437   H979    1.084   1_554 S
C439   H450    1.084   .     S
C439   C440    1.387   .     A
C440   C972    1.403   .     S
C440   Cl1000  1.762   .     S
C441   Cl468   1.775   .     S
C441   C946    1.434   1_554 S
C441   C971    1.403   1_554 S
H448   C968    1.084   .     S
N451   Zn461   2.015   .     S
N452   Zn462   2.015   .     S
O453   Zn461   1.992   .     S
O454   Zn462   1.997   .     S
O455   Zn461   1.967   .     S
O456   Zn462   1.915   .     S
O457   Zn461   1.997   .     S
O458   Zn462   1.992   .     S
O459   Zn461   1.915   .     S
O460   Zn462   1.967   .     S
O464   H465    0.982   .     S
O466   H467    0.987   .     S
Cl469  C971    1.762   1_554 S
O471   H472    0.992   .     S
C473   O513    1.284   .     A
C473   C489    1.418   .     S
C473   O512    1.285   .     A
C474   C475    1.413   .     A
C474   C1007   1.414   .     S
C474   C1031   1.434   .     S
C475   C482    1.408   .     A
C475   C479    1.422   .     A
C476   C480    1.387   .     A
C476   C1005   1.414   1_554 S
C476   C1008   1.417   1_554 S
C477   C478    1.399   .     A
C477   C1007   1.417   .     S
C477   C1027   1.407   .     S
C478   C479    1.408   .     A
C478   O525    1.384   .     S
C479   Cl529   1.775   .     S
C480   C497    1.392   .     A
C480   H508    1.078   .     S
C481   C497    1.410   .     A
C481   C496    1.394   .     A
C481   Cl522   1.763   .     S
C482   C498    1.397   .     A
C482   C484    1.458   .     S
C483   O530    1.383   .     S
C483   C489    1.405   .     A
C483   C131    1.383   1_565 S
C484   O515    1.296   .     A
C484   O514    1.292   .     A
C485   H501    1.084   .     S
C485   C486    1.395   .     A
C486   C487    1.392   .     A
C486   C494    1.413   .     S
C487   H502    1.084   .     S
C488   H503    1.084   .     S
C488   C489    1.398   .     A
C488   C133    1.369   1_565 S
C490   N511    1.357   .     A
C490   H504    1.082   .     S
C490   C373    1.411   1_655 S
C491   N510    1.385   .     A
C491   O523    1.373   .     S
C492   N510    1.367   .     A
C492   H505    1.082   .     S
C493   N511    1.367   .     A
C493   H506    1.080   .     S
C493   C374    1.418   1_655 S
C494   O517    1.283   .     A
C494   O516    1.284   .     A
C495   C497    1.460   .     S
C495   O519    1.292   .     A
C495   O518    1.298   .     A
C496   C1008   1.407   1_554 S
C496   H1038   1.084   1_554 S
C498   H509    1.084   .     S
C498   C499    1.387   .     A
C499   C1031   1.403   .     S
C499   Cl1059  1.762   .     S
C500   Cl527   1.775   .     S
C500   C1005   1.434   1_554 S
C500   C1030   1.403   1_554 S
H507   C1027   1.084   .     S
N510   Zn520   2.015   .     S
N511   Zn521   2.015   .     S
O512   Zn520   1.992   .     S
O513   Zn521   1.997   .     S
O514   Zn520   1.967   .     S
O515   Zn521   1.915   .     S
O516   Zn520   1.997   .     S
O517   Zn521   1.992   .     S
O518   Zn520   1.915   .     S
O519   Zn521   1.967   .     S
O523   H524    0.982   .     S
O525   H526    0.987   .     S
Cl528  C1030   1.762   1_554 S
O530   H531    0.992   .     S
C532   O572    1.284   .     A
C532   C548    1.418   .     S
C532   O571    1.285   .     A
C533   C534    1.413   .     A
C533   C4      1.414   1_556 S
C533   C28     1.434   1_556 S
C534   C541    1.408   .     A
C534   C538    1.422   .     A
C535   C539    1.387   .     A
C536   C537    1.399   .     A
C536   C4      1.417   1_556 S
C536   C24     1.407   1_556 S
C537   C538    1.408   .     A
C537   O584    1.384   .     S
C538   Cl588   1.775   .     S
C539   C556    1.392   .     A
C539   H567    1.078   .     S
C540   C556    1.410   .     A
C540   C555    1.394   .     A
C540   Cl581   1.763   .     S
C541   C557    1.397   .     A
C541   C543    1.458   .     S
C542   O589    1.383   .     S
C542   C548    1.405   .     A
C542   C721    1.383   .     S
C543   O574    1.296   .     A
C543   O573    1.292   .     A
C544   H560    1.084   .     S
C544   C545    1.395   .     A
C544   C896    1.383   1_545 S
C545   C546    1.392   .     A
C545   C553    1.413   .     S
C546   H561    1.084   .     S
C546   C901    1.369   1_545 S
C547   H562    1.084   .     S
C547   C548    1.398   .     A
C547   C723    1.369   .     S
C549   N570    1.357   .     A
C549   H563    1.082   .     S
C549   C609    1.411   .     S
C550   N569    1.385   .     A
C550   O582    1.373   .     S
C550   C667    1.411   1_455 S
C551   N569    1.367   .     A
C551   H564    1.082   .     S
C551   C670    1.418   1_455 S
C552   N570    1.367   .     A
C552   H565    1.080   .     S
C552   C610    1.418   .     S
C553   O576    1.283   .     A
C553   O575    1.284   .     A
C554   C556    1.460   .     S
C554   O578    1.292   .     A
C554   O577    1.298   .     A
C557   H568    1.084   .     S
C557   C558    1.387   .     A
C558   C28     1.403   1_556 S
C558   Cl56    1.762   1_556 S
C559   Cl586   1.775   .     S
H566   C24     1.084   1_556 S
N569   Zn579   2.015   .     S
N570   Zn580   2.015   .     S
O571   Zn579   1.992   .     S
O572   Zn580   1.997   .     S
O573   Zn579   1.967   .     S
O574   Zn580   1.915   .     S
O575   Zn579   1.997   .     S
O576   Zn580   1.992   .     S
O577   Zn579   1.915   .     S
O578   Zn580   1.967   .     S
O582   H583    0.982   .     S
O584   H585    0.987   .     S
O589   H590    0.992   .     S
C591   O631    1.284   .     A
C591   C607    1.418   .     S
C591   O630    1.285   .     A
C592   C593    1.413   .     A
C592   C63     1.414   1_556 S
C592   C87     1.434   1_556 S
C593   C600    1.408   .     A
C593   C597    1.422   .     A
C594   C598    1.387   .     A
C595   C596    1.399   .     A
C595   C63     1.417   1_556 S
C595   C83     1.407   1_556 S
C596   C597    1.408   .     A
C596   O643    1.384   .     S
C597   Cl647   1.775   .     S
C598   C615    1.392   .     A
C598   H626    1.078   .     S
C599   C615    1.410   .     A
C599   C614    1.394   .     A
C599   Cl640   1.763   .     S
C600   C616    1.397   .     A
C600   C602    1.458   .     S
C601   O648    1.383   .     S
C601   C607    1.405   .     A
C601   C780    1.383   .     S
C602   O633    1.296   .     A
C602   O632    1.292   .     A
C603   H619    1.084   .     S
C603   C604    1.395   .     A
C603   C955    1.383   1_545 S
C604   C605    1.392   .     A
C604   C612    1.413   .     S
C605   H620    1.084   .     S
C605   C960    1.369   1_545 S
C606   H621    1.084   .     S
C606   C607    1.398   .     A
C606   C782    1.369   .     S
C608   N629    1.357   .     A
C608   H622    1.082   .     S
C608   C668    1.411   .     S
C609   N628    1.385   .     A
C609   O641    1.373   .     S
C610   N628    1.367   .     A
C610   H623    1.082   .     S
C611   N629    1.367   .     A
C611   H624    1.080   .     S
C611   C669    1.418   .     S
C612   O635    1.283   .     A
C612   O634    1.284   .     A
C613   C615    1.460   .     S
C613   O637    1.292   .     A
C613   O636    1.298   .     A
C616   H627    1.084   .     S
C616   C617    1.387   .     A
C617   C87     1.403   1_556 S
C617   Cl115   1.762   1_556 S
C618   Cl645   1.775   .     S
H625   C83     1.084   1_556 S
N628   Zn638   2.015   .     S
N629   Zn639   2.015   .     S
O630   Zn638   1.992   .     S
O631   Zn639   1.997   .     S
O632   Zn638   1.967   .     S
O633   Zn639   1.915   .     S
O634   Zn638   1.997   .     S
O635   Zn639   1.992   .     S
O636   Zn638   1.915   .     S
O637   Zn639   1.967   .     S
O641   H642    0.982   .     S
O643   H644    0.987   .     S
O648   H649    0.992   .     S
C650   O690    1.284   .     A
C650   C666    1.418   .     S
C650   O689    1.285   .     A
C651   C652    1.413   .     A
C651   C122    1.414   1_556 S
C651   C146    1.434   1_556 S
C652   C659    1.408   .     A
C652   C656    1.422   .     A
C653   C657    1.387   .     A
C654   C655    1.399   .     A
C654   C122    1.417   1_556 S
C654   C142    1.407   1_556 S
C655   C656    1.408   .     A
C655   O702    1.384   .     S
C656   Cl706   1.775   .     S
C657   C674    1.392   .     A
C657   H685    1.078   .     S
C658   C674    1.410   .     A
C658   C673    1.394   .     A
C658   Cl699   1.763   .     S
C659   C675    1.397   .     A
C659   C661    1.458   .     S
C660   O707    1.383   .     S
C660   C666    1.405   .     A
C660   C839    1.383   .     S
C661   O692    1.296   .     A
C661   O691    1.292   .     A
C662   H678    1.084   .     S
C662   C663    1.395   .     A
C662   C1014   1.383   1_545 S
C663   C664    1.392   .     A
C663   C671    1.413   .     S
C664   H679    1.084   .     S
C664   C1019   1.369   1_545 S
C665   H680    1.084   .     S
C665   C666    1.398   .     A
C665   C841    1.369   .     S
C667   N688    1.357   .     A
C667   H681    1.082   .     S
C667   C550    1.411   1_655 S
C668   N687    1.385   .     A
C668   O700    1.373   .     S
C669   N687    1.367   .     A
C669   H682    1.082   .     S
C670   N688    1.367   .     A
C670   H683    1.080   .     S
C670   C551    1.418   1_655 S
C671   O694    1.283   .     A
C671   O693    1.284   .     A
C672   C674    1.460   .     S
C672   O696    1.292   .     A
C672   O695    1.298   .     A
C675   H686    1.084   .     S
C675   C676    1.387   .     A
C676   C146    1.403   1_556 S
C676   Cl174   1.762   1_556 S
C677   Cl704   1.775   .     S
H684   C142    1.084   1_556 S
N687   Zn697   2.015   .     S
N688   Zn698   2.015   .     S
O689   Zn697   1.992   .     S
O690   Zn698   1.997   .     S
O691   Zn697   1.967   .     S
O692   Zn698   1.915   .     S
O693   Zn697   1.997   .     S
O694   Zn698   1.992   .     S
O695   Zn697   1.915   .     S
O696   Zn698   1.967   .     S
O700   H701    0.982   .     S
O702   H703    0.987   .     S
O707   H708    0.992   .     S
C709   O749    1.284   .     A
C709   C725    1.418   .     S
C709   O748    1.285   .     A
C710   C711    1.413   .     A
C710   C181    1.414   1_556 S
C710   C205    1.434   1_556 S
C711   C718    1.408   .     A
C711   C715    1.422   .     A
C712   C716    1.387   .     A
C713   C714    1.399   .     A
C713   C181    1.417   1_556 S
C713   C201    1.407   1_556 S
C714   C715    1.408   .     A
C714   O761    1.384   .     S
C715   Cl765   1.775   .     S
C716   C733    1.392   .     A
C716   H744    1.078   .     S
C717   C733    1.410   .     A
C717   C732    1.394   .     A
C717   Cl758   1.763   .     S
C718   C734    1.397   .     A
C718   C720    1.458   .     S
C719   O766    1.383   .     S
C719   C725    1.405   .     A
C719   C898    1.383   .     S
C720   O751    1.296   .     A
C720   O750    1.292   .     A
C721   H737    1.084   .     S
C721   C722    1.395   .     A
C722   C723    1.392   .     A
C722   C730    1.413   .     S
C723   H738    1.084   .     S
C724   H739    1.084   .     S
C724   C725    1.398   .     A
C724   C900    1.369   .     S
C726   N747    1.357   .     A
C726   H740    1.082   .     S
C726   C786    1.411   .     S
C727   N746    1.385   .     A
C727   O759    1.373   .     S
C727   C844    1.411   1_455 S
C728   N746    1.367   .     A
C728   H741    1.082   .     S
C728   C847    1.418   1_455 S
C729   N747    1.367   .     A
C729   H742    1.080   .     S
C729   C787    1.418   .     S
C730   O753    1.283   .     A
C730   O752    1.284   .     A
C731   C733    1.460   .     S
C731   O755    1.292   .     A
C731   O754    1.298   .     A
C734   H745    1.084   .     S
C734   C735    1.387   .     A
C735   C205    1.403   1_556 S
C735   Cl233   1.762   1_556 S
C736   Cl763   1.775   .     S
H743   C201    1.084   1_556 S
N746   Zn756   2.015   .     S
N747   Zn757   2.015   .     S
O748   Zn756   1.992   .     S
O749   Zn757   1.997   .     S
O750   Zn756   1.967   .     S
O751   Zn757   1.915   .     S
O752   Zn756   1.997   .     S
O753   Zn757   1.992   .     S
O754   Zn756   1.915   .     S
O755   Zn757   1.967   .     S
O759   H760    0.982   .     S
O761   H762    0.987   .     S
O766   H767    0.992   .     S
C768   O808    1.284   .     A
C768   C784    1.418   .     S
C768   O807    1.285   .     A
C769   C770    1.413   .     A
C769   C240    1.414   1_556 S
C769   C264    1.434   1_556 S
C770   C777    1.408   .     A
C770   C774    1.422   .     A
C771   C775    1.387   .     A
C772   C773    1.399   .     A
C772   C240    1.417   1_556 S
C772   C260    1.407   1_556 S
C773   C774    1.408   .     A
C773   O820    1.384   .     S
C774   Cl824   1.775   .     S
C775   C792    1.392   .     A
C775   H803    1.078   .     S
C776   C792    1.410   .     A
C776   C791    1.394   .     A
C776   Cl817   1.763   .     S
C777   C793    1.397   .     A
C777   C779    1.458   .     S
C778   O825    1.383   .     S
C778   C784    1.405   .     A
C778   C957    1.383   .     S
C779   O810    1.296   .     A
C779   O809    1.292   .     A
C780   H796    1.084   .     S
C780   C781    1.395   .     A
C781   C782    1.392   .     A
C781   C789    1.413   .     S
C782   H797    1.084   .     S
C783   H798    1.084   .     S
C783   C784    1.398   .     A
C783   C959    1.369   .     S
C785   N806    1.357   .     A
C785   H799    1.082   .     S
C785   C845    1.411   .     S
C786   N805    1.385   .     A
C786   O818    1.373   .     S
C787   N805    1.367   .     A
C787   H800    1.082   .     S
C788   N806    1.367   .     A
C788   H801    1.080   .     S
C788   C846    1.418   .     S
C789   O812    1.283   .     A
C789   O811    1.284   .     A
C790   C792    1.460   .     S
C790   O814    1.292   .     A
C790   O813    1.298   .     A
C793   H804    1.084   .     S
C793   C794    1.387   .     A
C794   C264    1.403   1_556 S
C794   Cl292   1.762   1_556 S
C795   Cl822   1.775   .     S
H802   C260    1.084   1_556 S
N805   Zn815   2.015   .     S
N806   Zn816   2.015   .     S
O807   Zn815   1.992   .     S
O808   Zn816   1.997   .     S
O809   Zn815   1.967   .     S
O810   Zn816   1.915   .     S
O811   Zn815   1.997   .     S
O812   Zn816   1.992   .     S
O813   Zn815   1.915   .     S
O814   Zn816   1.967   .     S
O818   H819    0.982   .     S
O820   H821    0.987   .     S
O825   H826    0.992   .     S
C827   O867    1.284   .     A
C827   C843    1.418   .     S
C827   O866    1.285   .     A
C828   C829    1.413   .     A
C828   C299    1.414   1_556 S
C828   C323    1.434   1_556 S
C829   C836    1.408   .     A
C829   C833    1.422   .     A
C830   C834    1.387   .     A
C831   C832    1.399   .     A
C831   C299    1.417   1_556 S
C831   C319    1.407   1_556 S
C832   C833    1.408   .     A
C832   O879    1.384   .     S
C833   Cl883   1.775   .     S
C834   C851    1.392   .     A
C834   H862    1.078   .     S
C835   C851    1.410   .     A
C835   C850    1.394   .     A
C835   Cl876   1.763   .     S
C836   C852    1.397   .     A
C836   C838    1.458   .     S
C837   O884    1.383   .     S
C837   C843    1.405   .     A
C837   C1016   1.383   .     S
C838   O869    1.296   .     A
C838   O868    1.292   .     A
C839   H855    1.084   .     S
C839   C840    1.395   .     A
C840   C841    1.392   .     A
C840   C848    1.413   .     S
C841   H856    1.084   .     S
C842   H857    1.084   .     S
C842   C843    1.398   .     A
C842   C1018   1.369   .     S
C844   N865    1.357   .     A
C844   H858    1.082   .     S
C844   C727    1.411   1_655 S
C845   N864    1.385   .     A
C845   O877    1.373   .     S
C846   N864    1.367   .     A
C846   H859    1.082   .     S
C847   N865    1.367   .     A
C847   H860    1.080   .     S
C847   C728    1.418   1_655 S
C848   O871    1.283   .     A
C848   O870    1.284   .     A
C849   C851    1.460   .     S
C849   O873    1.292   .     A
C849   O872    1.298   .     A
C852   H863    1.084   .     S
C852   C853    1.387   .     A
C853   C323    1.403   1_556 S
C853   Cl351   1.762   1_556 S
C854   Cl881   1.775   .     S
H861   C319    1.084   1_556 S
N864   Zn874   2.015   .     S
N865   Zn875   2.015   .     S
O866   Zn874   1.992   .     S
O867   Zn875   1.997   .     S
O868   Zn874   1.967   .     S
O869   Zn875   1.915   .     S
O870   Zn874   1.997   .     S
O871   Zn875   1.992   .     S
O872   Zn874   1.915   .     S
O873   Zn875   1.967   .     S
O877   H878    0.982   .     S
O879   H880    0.987   .     S
O884   H885    0.992   .     S
C886   O926    1.284   .     A
C886   C902    1.418   .     S
C886   O925    1.285   .     A
C887   C888    1.413   .     A
C887   C358    1.414   1_556 S
C887   C382    1.434   1_556 S
C888   C895    1.408   .     A
C888   C892    1.422   .     A
C889   C893    1.387   .     A
C890   C891    1.399   .     A
C890   C358    1.417   1_556 S
C890   C378    1.407   1_556 S
C891   C892    1.408   .     A
C891   O938    1.384   .     S
C892   Cl942   1.775   .     S
C893   C910    1.392   .     A
C893   H921    1.078   .     S
C894   C910    1.410   .     A
C894   C909    1.394   .     A
C894   Cl935   1.763   .     S
C895   C911    1.397   .     A
C895   C897    1.458   .     S
C896   O943    1.383   .     S
C896   C902    1.405   .     A
C896   C544    1.383   1_565 S
C897   O928    1.296   .     A
C897   O927    1.292   .     A
C898   H914    1.084   .     S
C898   C899    1.395   .     A
C899   C900    1.392   .     A
C899   C907    1.413   .     S
C900   H915    1.084   .     S
C901   H916    1.084   .     S
C901   C902    1.398   .     A
C901   C546    1.369   1_565 S
C903   N924    1.357   .     A
C903   H917    1.082   .     S
C903   C963    1.411   .     S
C904   N923    1.385   .     A
C904   O936    1.373   .     S
C904   C1021   1.411   1_455 S
C905   N923    1.367   .     A
C905   H918    1.082   .     S
C905   C1024   1.418   1_455 S
C906   N924    1.367   .     A
C906   H919    1.080   .     S
C906   C964    1.418   .     S
C907   O930    1.283   .     A
C907   O929    1.284   .     A
C908   C910    1.460   .     S
C908   O932    1.292   .     A
C908   O931    1.298   .     A
C911   H922    1.084   .     S
C911   C912    1.387   .     A
C912   C382    1.403   1_556 S
C912   Cl410   1.762   1_556 S
C913   Cl940   1.775   .     S
H920   C378    1.084   1_556 S
N923   Zn933   2.015   .     S
N924   Zn934   2.015   .     S
O925   Zn933   1.992   .     S
O926   Zn934   1.997   .     S
O927   Zn933   1.967   .     S
O928   Zn934   1.915   .     S
O929   Zn933   1.997   .     S
O930   Zn934   1.992   .     S
O931   Zn933   1.915   .     S
O932   Zn934   1.967   .     S
O936   H937    0.982   .     S
O938   H939    0.987   .     S
O943   H944    0.992   .     S
C945   O985    1.284   .     A
C945   C961    1.418   .     S
C945   O984    1.285   .     A
C946   C947    1.413   .     A
C946   C417    1.414   1_556 S
C946   C441    1.434   1_556 S
C947   C954    1.408   .     A
C947   C951    1.422   .     A
C948   C952    1.387   .     A
C949   C950    1.399   .     A
C949   C417    1.417   1_556 S
C949   C437    1.407   1_556 S
C950   C951    1.408   .     A
C950   O997    1.384   .     S
C951   Cl1001  1.775   .     S
C952   C969    1.392   .     A
C952   H980    1.078   .     S
C953   C969    1.410   .     A
C953   C968    1.394   .     A
C953   Cl994   1.763   .     S
C954   C970    1.397   .     A
C954   C956    1.458   .     S
C955   O1002   1.383   .     S
C955   C961    1.405   .     A
C955   C603    1.383   1_565 S
C956   O987    1.296   .     A
C956   O986    1.292   .     A
C957   H973    1.084   .     S
C957   C958    1.395   .     A
C958   C959    1.392   .     A
C958   C966    1.413   .     S
C959   H974    1.084   .     S
C960   H975    1.084   .     S
C960   C961    1.398   .     A
C960   C605    1.369   1_565 S
C962   N983    1.357   .     A
C962   H976    1.082   .     S
C962   C1022   1.411   .     S
C963   N982    1.385   .     A
C963   O995    1.373   .     S
C964   N982    1.367   .     A
C964   H977    1.082   .     S
C965   N983    1.367   .     A
C965   H978    1.080   .     S
C965   C1023   1.418   .     S
C966   O989    1.283   .     A
C966   O988    1.284   .     A
C967   C969    1.460   .     S
C967   O991    1.292   .     A
C967   O990    1.298   .     A
C970   H981    1.084   .     S
C970   C971    1.387   .     A
C971   C441    1.403   1_556 S
C971   Cl469   1.762   1_556 S
C972   Cl999   1.775   .     S
H979   C437    1.084   1_556 S
N982   Zn992   2.015   .     S
N983   Zn993   2.015   .     S
O984   Zn992   1.992   .     S
O985   Zn993   1.997   .     S
O986   Zn992   1.967   .     S
O987   Zn993   1.915   .     S
O988   Zn992   1.997   .     S
O989   Zn993   1.992   .     S
O990   Zn992   1.915   .     S
O991   Zn993   1.967   .     S
O995   H996    0.982   .     S
O997   H998    0.987   .     S
O1002  H1003   0.992   .     S
C1004  O1044   1.284   .     A
C1004  C1020   1.418   .     S
C1004  O1043   1.285   .     A
C1005  C1006   1.413   .     A
C1005  C476    1.414   1_556 S
C1005  C500    1.434   1_556 S
C1006  C1013   1.408   .     A
C1006  C1010   1.422   .     A
C1007  C1011   1.387   .     A
C1008  C1009   1.399   .     A
C1008  C476    1.417   1_556 S
C1008  C496    1.407   1_556 S
C1009  C1010   1.408   .     A
C1009  O1056   1.384   .     S
C1010  Cl1060  1.775   .     S
C1011  C1028   1.392   .     A
C1011  H1039   1.078   .     S
C1012  C1028   1.410   .     A
C1012  C1027   1.394   .     A
C1012  Cl1053  1.763   .     S
C1013  C1029   1.397   .     A
C1013  C1015   1.458   .     S
C1014  O1061   1.383   .     S
C1014  C1020   1.405   .     A
C1014  C662    1.383   1_565 S
C1015  O1046   1.296   .     A
C1015  O1045   1.292   .     A
C1016  H1032   1.084   .     S
C1016  C1017   1.395   .     A
C1017  C1018   1.392   .     A
C1017  C1025   1.413   .     S
C1018  H1033   1.084   .     S
C1019  H1034   1.084   .     S
C1019  C1020   1.398   .     A
C1019  C664    1.369   1_565 S
C1021  N1042   1.357   .     A
C1021  H1035   1.082   .     S
C1021  C904    1.411   1_655 S
C1022  N1041   1.385   .     A
C1022  O1054   1.373   .     S
C1023  N1041   1.367   .     A
C1023  H1036   1.082   .     S
C1024  N1042   1.367   .     A
C1024  H1037   1.080   .     S
C1024  C905    1.418   1_655 S
C1025  O1048   1.283   .     A
C1025  O1047   1.284   .     A
C1026  C1028   1.460   .     S
C1026  O1050   1.292   .     A
C1026  O1049   1.298   .     A
C1029  H1040   1.084   .     S
C1029  C1030   1.387   .     A
C1030  C500    1.403   1_556 S
C1030  Cl528   1.762   1_556 S
C1031  Cl1058  1.775   .     S
H1038  C496    1.084   1_556 S
N1041  Zn1051  2.015   .     S
N1042  Zn1052  2.015   .     S
O1043  Zn1051  1.992   .     S
O1044  Zn1052  1.997   .     S
O1045  Zn1051  1.967   .     S
O1046  Zn1052  1.915   .     S
O1047  Zn1051  1.997   .     S
O1048  Zn1052  1.992   .     S
O1049  Zn1051  1.915   .     S
O1050  Zn1052  1.967   .     S
O1054  H1055   0.982   .     S
O1056  H1057   0.987   .     S
O1061  H1062   0.992   .     S
