data_str_m3_o1_o10_pcu_sym.158
_audit_creation_date              2020-01-03
_audit_creation_method            'Materials Studio'
_symmetry_space_group_name_H-M    'P1'
_symmetry_Int_Tables_number       1
_symmetry_cell_setting            triclinic
loop_
_symmetry_equiv_pos_as_xyz
  x,y,z
_cell_length_a                    25.9664
_cell_length_b                    32.2390
_cell_length_c                    29.7379
_cell_angle_alpha                 88.2047
_cell_angle_beta                  99.0320
_cell_angle_gamma                 93.0332
loop_
_atom_site_label
_atom_site_type_symbol
_atom_site_fract_x
_atom_site_fract_y
_atom_site_fract_z
_atom_site_U_iso_or_equiv
_atom_site_adp_type
_atom_site_occupancy
C1     C     0.16885   0.08681   0.16795   0.00000  Uiso   1.00
C2     C     0.16747   0.24673   0.16606   0.00000  Uiso   1.00
C3     C     0.06726   0.16629   0.15486   0.00000  Uiso   1.00
C4     C     0.26602   0.16628   0.17855   0.00000  Uiso   1.00
C5     C     0.01241   0.16058   0.14958   0.00000  Uiso   1.00
C6     C     0.32090   0.17102   0.18421   0.00000  Uiso   1.00
C7     C     0.20352   0.02486   0.14164   0.00000  Uiso   1.00
C8     C     0.14301   0.31042   0.19673   0.00000  Uiso   1.00
C9     C     0.20213   0.31486   0.13879   0.00000  Uiso   1.00
C10    C     0.15342   0.01872   0.20470   0.00000  Uiso   1.00
C11    C     0.16936   0.29124   0.16540   0.00000  Uiso   1.00
C12    C     0.17499   0.04284   0.17143   0.00000  Uiso   1.00
C13    C     0.20314   0.18966   0.02882   0.00000  Uiso   1.00
C14    C     0.13057   0.14307   0.30465   0.00000  Uiso   1.00
C15    C     0.20302   0.19091   0.31437   0.00000  Uiso   1.00
C16    C     0.13093   0.14184   0.01914   0.00000  Uiso   1.00
H17    H     0.23283   0.20651   0.05144   0.00000  Uiso   1.00
H18    H     0.10160   0.12471   0.28255   0.00000  Uiso   1.00
N19    N     0.16665   0.16666   0.28573   0.00000  Uiso   1.00
N20    N     0.16668   0.16668   0.04760   0.00000  Uiso   1.00
O21    O     0.16666   0.10558   0.20487   0.00000  Uiso   1.00
O22    O     0.16667   0.22775   0.12846   0.00000  Uiso   1.00
O23    O     0.16666   0.10559   0.12843   0.00000  Uiso   1.00
O24    O     0.16667   0.22774   0.20490   0.00000  Uiso   1.00
O25    O     0.09058   0.16666   0.19595   0.00000  Uiso   1.00
O26    O     0.24275   0.16667   0.13739   0.00000  Uiso   1.00
O27    O     0.09058   0.16667   0.11950   0.00000  Uiso   1.00
O28    O     0.24275   0.16666   0.21383   0.00000  Uiso   1.00
Zn29   Zn    0.16667   0.16666   0.21771   0.00000  Uiso   1.00
Zn30   Zn    0.16667   0.16667   0.11563   0.00000  Uiso   1.00
N31    N     0.31955   0.13991   0.10938   0.00000  Uiso   1.00
H32    H     0.00280   0.11127   0.10755   0.00000  Uiso   1.00
H33    H     0.32598   0.15794   0.08076   0.00000  Uiso   1.00
N34    N     0.01383   0.19104   0.22481   0.00000  Uiso   1.00
H35    H     0.00712   0.17267   0.25311   0.00000  Uiso   1.00
H36    H     0.33116   0.21983   0.22713   0.00000  Uiso   1.00
N37    N     0.23798   0.05130   0.11867   0.00000  Uiso   1.00
H38    H     0.22665   0.04917   0.08364   0.00000  Uiso   1.00
H39    H     0.27635   0.04228   0.12792   0.00000  Uiso   1.00
N40    N     0.10642   0.28822   0.22161   0.00000  Uiso   1.00
H41    H     0.08194   0.26801   0.20020   0.00000  Uiso   1.00
H42    H     0.12642   0.27173   0.24915   0.00000  Uiso   1.00
C43    C     0.23773   0.29517   0.10993   0.00000  Uiso   1.00
C44    C     0.28672   0.27938   0.13980   0.00000  Uiso   1.00
C45    C     0.32541   0.26427   0.11093   0.00000  Uiso   1.00
H46    H     0.30804   0.23750   0.09042   0.00000  Uiso   1.00
H47    H     0.00374   0.28965   0.08791   0.00000  Uiso   1.00
H48    H     0.02755   0.25400   0.13325   0.00000  Uiso   1.00
H49    H     0.30631   0.30486   0.16153   0.00000  Uiso   1.00
H50    H     0.27562   0.25363   0.16249   0.00000  Uiso   1.00
H51    H     0.21693   0.27043   0.08835   0.00000  Uiso   1.00
H52    H     0.25037   0.31753   0.08434   0.00000  Uiso   1.00
C53    C     0.15452   0.03355   0.25306   0.00000  Uiso   1.00
C54    C     0.21184   0.04225   0.27484   0.00000  Uiso   1.00
C55    C     0.21775   0.04880   0.32570   0.00000  Uiso   1.00
H56    H     0.19968   0.07792   0.33224   0.00000  Uiso   1.00
H57    H     0.19963   0.02186   0.00932   0.00000  Uiso   1.00
H58    H     0.25979   0.05174   0.00678   0.00000  Uiso   1.00
H59    H     0.23475   0.01546   0.26905   0.00000  Uiso   1.00
H60    H     0.22961   0.06988   0.25894   0.00000  Uiso   1.00
H61    H     0.13033   0.06064   0.25400   0.00000  Uiso   1.00
H62    H     0.13728   0.00953   0.27456   0.00000  Uiso   1.00
C63    C     0.24653   0.21694   0.29717   0.00000  Uiso   1.00
C64    C     0.25231   0.26203   0.31341   0.00000  Uiso   1.00
C65    C     0.29948   0.28475   0.29722   0.00000  Uiso   1.00
H66    H     0.30567   0.31611   0.31207   0.00000  Uiso   1.00
H67    H     0.00204   0.26753   0.30853   0.00000  Uiso   1.00
H68    H     0.29310   0.28799   0.25946   0.00000  Uiso   1.00
H69    H     0.25833   0.26336   0.01765   0.00000  Uiso   1.00
H70    H     0.21637   0.27847   0.29993   0.00000  Uiso   1.00
H71    H     0.28370   0.20133   0.30841   0.00000  Uiso   1.00
H72    H     0.24024   0.21947   0.26015   0.00000  Uiso   1.00
C73    C     0.09047   0.11259   0.03664   0.00000  Uiso   1.00
C74    C     0.09854   0.06675   0.02868   0.00000  Uiso   1.00
C75    C     0.05806   0.03818   0.04785   0.00000  Uiso   1.00
H76    H     0.06138   0.04178   0.08526   0.00000  Uiso   1.00
H77    H     0.01812   0.04550   0.03139   0.00000  Uiso   1.00
H78    H     0.06469   0.00536   0.04110   0.00000  Uiso   1.00
H79    H     0.09562   0.06108   0.32511   0.00000  Uiso   1.00
H80    H     0.13768   0.05859   0.04624   0.00000  Uiso   1.00
H81    H     0.09148   0.11491   0.07307   0.00000  Uiso   1.00
H82    H     0.05093   0.12095   0.01980   0.00000  Uiso   1.00
C83    C     0.50218   0.08681   0.16795   0.00000  Uiso   1.00
C84    C     0.50080   0.24673   0.16606   0.00000  Uiso   1.00
C85    C     0.40059   0.16629   0.15486   0.00000  Uiso   1.00
C86    C     0.59935   0.16628   0.17855   0.00000  Uiso   1.00
C87    C     0.34575   0.16058   0.14958   0.00000  Uiso   1.00
C88    C     0.65424   0.17102   0.18421   0.00000  Uiso   1.00
C89    C     0.53685   0.02486   0.14164   0.00000  Uiso   1.00
C90    C     0.47634   0.31042   0.19673   0.00000  Uiso   1.00
C91    C     0.53547   0.31486   0.13879   0.00000  Uiso   1.00
C92    C     0.48675   0.01872   0.20470   0.00000  Uiso   1.00
C93    C     0.50269   0.29124   0.16540   0.00000  Uiso   1.00
C94    C     0.50832   0.04284   0.17143   0.00000  Uiso   1.00
C95    C     0.53647   0.18966   0.02882   0.00000  Uiso   1.00
C96    C     0.46390   0.14307   0.30465   0.00000  Uiso   1.00
C97    C     0.53635   0.19091   0.31437   0.00000  Uiso   1.00
C98    C     0.46426   0.14184   0.01914   0.00000  Uiso   1.00
H99    H     0.56616   0.20651   0.05144   0.00000  Uiso   1.00
H100   H     0.43493   0.12471   0.28255   0.00000  Uiso   1.00
N101   N     0.49999   0.16666   0.28573   0.00000  Uiso   1.00
N102   N     0.50001   0.16668   0.04760   0.00000  Uiso   1.00
O103   O     0.50000   0.10558   0.20487   0.00000  Uiso   1.00
O104   O     0.50000   0.22775   0.12846   0.00000  Uiso   1.00
O105   O     0.50000   0.10559   0.12843   0.00000  Uiso   1.00
O106   O     0.50000   0.22774   0.20490   0.00000  Uiso   1.00
O107   O     0.42392   0.16666   0.19595   0.00000  Uiso   1.00
O108   O     0.57608   0.16667   0.13739   0.00000  Uiso   1.00
O109   O     0.42392   0.16667   0.11950   0.00000  Uiso   1.00
O110   O     0.57608   0.16666   0.21383   0.00000  Uiso   1.00
Zn111  Zn    0.50000   0.16666   0.21771   0.00000  Uiso   1.00
Zn112  Zn    0.50000   0.16667   0.11563   0.00000  Uiso   1.00
N113   N     0.65289   0.13991   0.10938   0.00000  Uiso   1.00
H114   H     0.33614   0.11127   0.10755   0.00000  Uiso   1.00
H115   H     0.65931   0.15794   0.08076   0.00000  Uiso   1.00
N116   N     0.34716   0.19104   0.22481   0.00000  Uiso   1.00
H117   H     0.34046   0.17267   0.25311   0.00000  Uiso   1.00
H118   H     0.66449   0.21983   0.22713   0.00000  Uiso   1.00
N119   N     0.57131   0.05130   0.11867   0.00000  Uiso   1.00
H120   H     0.55999   0.04917   0.08364   0.00000  Uiso   1.00
H121   H     0.60969   0.04228   0.12792   0.00000  Uiso   1.00
N122   N     0.43975   0.28822   0.22161   0.00000  Uiso   1.00
H123   H     0.41527   0.26801   0.20020   0.00000  Uiso   1.00
H124   H     0.45976   0.27173   0.24915   0.00000  Uiso   1.00
C125   C     0.57107   0.29517   0.10993   0.00000  Uiso   1.00
C126   C     0.62005   0.27938   0.13980   0.00000  Uiso   1.00
C127   C     0.65874   0.26427   0.11093   0.00000  Uiso   1.00
H128   H     0.64137   0.23750   0.09042   0.00000  Uiso   1.00
H129   H     0.33708   0.28965   0.08791   0.00000  Uiso   1.00
H130   H     0.36088   0.25400   0.13325   0.00000  Uiso   1.00
H131   H     0.63964   0.30486   0.16153   0.00000  Uiso   1.00
H132   H     0.60895   0.25363   0.16249   0.00000  Uiso   1.00
H133   H     0.55026   0.27043   0.08835   0.00000  Uiso   1.00
H134   H     0.58371   0.31753   0.08434   0.00000  Uiso   1.00
C135   C     0.48785   0.03355   0.25306   0.00000  Uiso   1.00
C136   C     0.54517   0.04225   0.27484   0.00000  Uiso   1.00
C137   C     0.55108   0.04880   0.32570   0.00000  Uiso   1.00
H138   H     0.53301   0.07792   0.33224   0.00000  Uiso   1.00
H139   H     0.53296   0.02186   0.00932   0.00000  Uiso   1.00
H140   H     0.59313   0.05174   0.00678   0.00000  Uiso   1.00
H141   H     0.56808   0.01546   0.26905   0.00000  Uiso   1.00
H142   H     0.56294   0.06988   0.25894   0.00000  Uiso   1.00
H143   H     0.46367   0.06064   0.25400   0.00000  Uiso   1.00
H144   H     0.47061   0.00953   0.27456   0.00000  Uiso   1.00
C145   C     0.57987   0.21694   0.29717   0.00000  Uiso   1.00
C146   C     0.58564   0.26203   0.31341   0.00000  Uiso   1.00
C147   C     0.63282   0.28475   0.29722   0.00000  Uiso   1.00
H148   H     0.63900   0.31611   0.31207   0.00000  Uiso   1.00
H149   H     0.33537   0.26753   0.30853   0.00000  Uiso   1.00
H150   H     0.62643   0.28799   0.25946   0.00000  Uiso   1.00
H151   H     0.59166   0.26336   0.01765   0.00000  Uiso   1.00
H152   H     0.54970   0.27847   0.29993   0.00000  Uiso   1.00
H153   H     0.61703   0.20133   0.30841   0.00000  Uiso   1.00
H154   H     0.57358   0.21947   0.26015   0.00000  Uiso   1.00
C155   C     0.42380   0.11259   0.03664   0.00000  Uiso   1.00
C156   C     0.43188   0.06675   0.02868   0.00000  Uiso   1.00
C157   C     0.39139   0.03818   0.04785   0.00000  Uiso   1.00
H158   H     0.39472   0.04178   0.08526   0.00000  Uiso   1.00
H159   H     0.35146   0.04550   0.03139   0.00000  Uiso   1.00
H160   H     0.39802   0.00536   0.04110   0.00000  Uiso   1.00
H161   H     0.42896   0.06108   0.32511   0.00000  Uiso   1.00
H162   H     0.47102   0.05859   0.04624   0.00000  Uiso   1.00
H163   H     0.42482   0.11491   0.07307   0.00000  Uiso   1.00
H164   H     0.38427   0.12095   0.01980   0.00000  Uiso   1.00
C165   C     0.83552   0.08681   0.16795   0.00000  Uiso   1.00
C166   C     0.83414   0.24673   0.16606   0.00000  Uiso   1.00
C167   C     0.73393   0.16629   0.15486   0.00000  Uiso   1.00
C168   C     0.93269   0.16628   0.17855   0.00000  Uiso   1.00
C169   C     0.67908   0.16058   0.14958   0.00000  Uiso   1.00
C170   C     0.98757   0.17102   0.18421   0.00000  Uiso   1.00
C171   C     0.87019   0.02486   0.14164   0.00000  Uiso   1.00
C172   C     0.80967   0.31042   0.19673   0.00000  Uiso   1.00
C173   C     0.86880   0.31486   0.13879   0.00000  Uiso   1.00
C174   C     0.82009   0.01872   0.20470   0.00000  Uiso   1.00
C175   C     0.83602   0.29124   0.16540   0.00000  Uiso   1.00
C176   C     0.84166   0.04284   0.17143   0.00000  Uiso   1.00
C177   C     0.86981   0.18966   0.02882   0.00000  Uiso   1.00
C178   C     0.79724   0.14307   0.30465   0.00000  Uiso   1.00
C179   C     0.86968   0.19091   0.31437   0.00000  Uiso   1.00
C180   C     0.79759   0.14184   0.01914   0.00000  Uiso   1.00
H181   H     0.89950   0.20651   0.05144   0.00000  Uiso   1.00
H182   H     0.76827   0.12471   0.28255   0.00000  Uiso   1.00
N183   N     0.83332   0.16666   0.28573   0.00000  Uiso   1.00
N184   N     0.83335   0.16668   0.04760   0.00000  Uiso   1.00
O185   O     0.83333   0.10558   0.20487   0.00000  Uiso   1.00
O186   O     0.83334   0.22775   0.12846   0.00000  Uiso   1.00
O187   O     0.83333   0.10559   0.12843   0.00000  Uiso   1.00
O188   O     0.83334   0.22774   0.20490   0.00000  Uiso   1.00
O189   O     0.75725   0.16666   0.19595   0.00000  Uiso   1.00
O190   O     0.90942   0.16667   0.13739   0.00000  Uiso   1.00
O191   O     0.75725   0.16667   0.11950   0.00000  Uiso   1.00
O192   O     0.90942   0.16666   0.21383   0.00000  Uiso   1.00
Zn193  Zn    0.83333   0.16666   0.21771   0.00000  Uiso   1.00
Zn194  Zn    0.83333   0.16667   0.11563   0.00000  Uiso   1.00
N195   N     0.98622   0.13991   0.10938   0.00000  Uiso   1.00
H196   H     0.66947   0.11127   0.10755   0.00000  Uiso   1.00
H197   H     0.99264   0.15794   0.08076   0.00000  Uiso   1.00
N198   N     0.68050   0.19104   0.22481   0.00000  Uiso   1.00
H199   H     0.67379   0.17267   0.25311   0.00000  Uiso   1.00
H200   H     0.99782   0.21983   0.22713   0.00000  Uiso   1.00
N201   N     0.90465   0.05130   0.11867   0.00000  Uiso   1.00
H202   H     0.89332   0.04917   0.08364   0.00000  Uiso   1.00
H203   H     0.94302   0.04228   0.12792   0.00000  Uiso   1.00
N204   N     0.77309   0.28822   0.22161   0.00000  Uiso   1.00
H205   H     0.74860   0.26801   0.20020   0.00000  Uiso   1.00
H206   H     0.79309   0.27173   0.24915   0.00000  Uiso   1.00
C207   C     0.90440   0.29517   0.10993   0.00000  Uiso   1.00
C208   C     0.95338   0.27938   0.13980   0.00000  Uiso   1.00
C209   C     0.99207   0.26427   0.11093   0.00000  Uiso   1.00
H210   H     0.97470   0.23750   0.09042   0.00000  Uiso   1.00
H211   H     0.67041   0.28965   0.08791   0.00000  Uiso   1.00
H212   H     0.69422   0.25400   0.13325   0.00000  Uiso   1.00
H213   H     0.97297   0.30486   0.16153   0.00000  Uiso   1.00
H214   H     0.94229   0.25363   0.16249   0.00000  Uiso   1.00
H215   H     0.88359   0.27043   0.08835   0.00000  Uiso   1.00
H216   H     0.91704   0.31753   0.08434   0.00000  Uiso   1.00
C217   C     0.82118   0.03355   0.25306   0.00000  Uiso   1.00
C218   C     0.87850   0.04225   0.27484   0.00000  Uiso   1.00
C219   C     0.88442   0.04880   0.32570   0.00000  Uiso   1.00
H220   H     0.86634   0.07792   0.33224   0.00000  Uiso   1.00
H221   H     0.86630   0.02186   0.00932   0.00000  Uiso   1.00
H222   H     0.92646   0.05174   0.00678   0.00000  Uiso   1.00
H223   H     0.90141   0.01546   0.26905   0.00000  Uiso   1.00
H224   H     0.89628   0.06988   0.25894   0.00000  Uiso   1.00
H225   H     0.79700   0.06064   0.25400   0.00000  Uiso   1.00
H226   H     0.80394   0.00953   0.27456   0.00000  Uiso   1.00
C227   C     0.91320   0.21694   0.29717   0.00000  Uiso   1.00
C228   C     0.91897   0.26203   0.31341   0.00000  Uiso   1.00
C229   C     0.96615   0.28475   0.29722   0.00000  Uiso   1.00
H230   H     0.97233   0.31611   0.31207   0.00000  Uiso   1.00
H231   H     0.66870   0.26753   0.30853   0.00000  Uiso   1.00
H232   H     0.95977   0.28799   0.25946   0.00000  Uiso   1.00
H233   H     0.92500   0.26336   0.01765   0.00000  Uiso   1.00
H234   H     0.88304   0.27847   0.29993   0.00000  Uiso   1.00
H235   H     0.95036   0.20133   0.30841   0.00000  Uiso   1.00
H236   H     0.90691   0.21947   0.26015   0.00000  Uiso   1.00
C237   C     0.75714   0.11259   0.03664   0.00000  Uiso   1.00
C238   C     0.76521   0.06675   0.02868   0.00000  Uiso   1.00
C239   C     0.72472   0.03818   0.04785   0.00000  Uiso   1.00
H240   H     0.72805   0.04178   0.08526   0.00000  Uiso   1.00
H241   H     0.68479   0.04550   0.03139   0.00000  Uiso   1.00
H242   H     0.73135   0.00536   0.04110   0.00000  Uiso   1.00
H243   H     0.76229   0.06108   0.32511   0.00000  Uiso   1.00
H244   H     0.80435   0.05859   0.04624   0.00000  Uiso   1.00
H245   H     0.75815   0.11491   0.07307   0.00000  Uiso   1.00
H246   H     0.71760   0.12095   0.01980   0.00000  Uiso   1.00
C247   C     0.16885   0.42014   0.16795   0.00000  Uiso   1.00
C248   C     0.16747   0.58006   0.16606   0.00000  Uiso   1.00
C249   C     0.06726   0.49963   0.15486   0.00000  Uiso   1.00
C250   C     0.26602   0.49961   0.17855   0.00000  Uiso   1.00
C251   C     0.01241   0.49392   0.14958   0.00000  Uiso   1.00
C252   C     0.32090   0.50435   0.18421   0.00000  Uiso   1.00
C253   C     0.20352   0.35819   0.14164   0.00000  Uiso   1.00
C254   C     0.14301   0.64375   0.19673   0.00000  Uiso   1.00
C255   C     0.20213   0.64819   0.13879   0.00000  Uiso   1.00
C256   C     0.15342   0.35205   0.20470   0.00000  Uiso   1.00
C257   C     0.16936   0.62458   0.16540   0.00000  Uiso   1.00
C258   C     0.17499   0.37617   0.17143   0.00000  Uiso   1.00
C259   C     0.20314   0.52300   0.02882   0.00000  Uiso   1.00
C260   C     0.13057   0.47641   0.30465   0.00000  Uiso   1.00
C261   C     0.20302   0.52424   0.31437   0.00000  Uiso   1.00
C262   C     0.13093   0.47517   0.01914   0.00000  Uiso   1.00
H263   H     0.23283   0.53985   0.05144   0.00000  Uiso   1.00
H264   H     0.10160   0.45804   0.28255   0.00000  Uiso   1.00
N265   N     0.16665   0.49999   0.28573   0.00000  Uiso   1.00
N266   N     0.16668   0.50001   0.04760   0.00000  Uiso   1.00
O267   O     0.16666   0.43892   0.20487   0.00000  Uiso   1.00
O268   O     0.16667   0.56108   0.12846   0.00000  Uiso   1.00
O269   O     0.16666   0.43893   0.12843   0.00000  Uiso   1.00
O270   O     0.16667   0.56107   0.20490   0.00000  Uiso   1.00
O271   O     0.09058   0.50000   0.19595   0.00000  Uiso   1.00
O272   O     0.24275   0.50000   0.13739   0.00000  Uiso   1.00
O273   O     0.09058   0.50000   0.11950   0.00000  Uiso   1.00
O274   O     0.24275   0.50000   0.21383   0.00000  Uiso   1.00
Zn275  Zn    0.16667   0.49999   0.21771   0.00000  Uiso   1.00
Zn276  Zn    0.16667   0.50001   0.11563   0.00000  Uiso   1.00
N277   N     0.31955   0.47325   0.10938   0.00000  Uiso   1.00
H278   H     0.00280   0.44460   0.10755   0.00000  Uiso   1.00
H279   H     0.32598   0.49128   0.08076   0.00000  Uiso   1.00
N280   N     0.01383   0.52438   0.22481   0.00000  Uiso   1.00
H281   H     0.00712   0.50600   0.25311   0.00000  Uiso   1.00
H282   H     0.33116   0.55316   0.22713   0.00000  Uiso   1.00
N283   N     0.23798   0.38463   0.11867   0.00000  Uiso   1.00
H284   H     0.22665   0.38250   0.08364   0.00000  Uiso   1.00
H285   H     0.27635   0.37561   0.12792   0.00000  Uiso   1.00
N286   N     0.10642   0.62155   0.22161   0.00000  Uiso   1.00
H287   H     0.08194   0.60135   0.20020   0.00000  Uiso   1.00
H288   H     0.12642   0.60506   0.24915   0.00000  Uiso   1.00
C289   C     0.23773   0.62850   0.10993   0.00000  Uiso   1.00
C290   C     0.28672   0.61272   0.13980   0.00000  Uiso   1.00
C291   C     0.32541   0.59761   0.11093   0.00000  Uiso   1.00
H292   H     0.30804   0.57083   0.09042   0.00000  Uiso   1.00
H293   H     0.00374   0.62298   0.08791   0.00000  Uiso   1.00
H294   H     0.02755   0.58733   0.13325   0.00000  Uiso   1.00
H295   H     0.30631   0.63819   0.16153   0.00000  Uiso   1.00
H296   H     0.27562   0.58697   0.16249   0.00000  Uiso   1.00
H297   H     0.21693   0.60377   0.08835   0.00000  Uiso   1.00
H298   H     0.25037   0.65087   0.08434   0.00000  Uiso   1.00
C299   C     0.15452   0.36688   0.25306   0.00000  Uiso   1.00
C300   C     0.21184   0.37558   0.27484   0.00000  Uiso   1.00
C301   C     0.21775   0.38214   0.32570   0.00000  Uiso   1.00
H302   H     0.19968   0.41125   0.33224   0.00000  Uiso   1.00
H303   H     0.19963   0.35520   0.00932   0.00000  Uiso   1.00
H304   H     0.25979   0.38507   0.00678   0.00000  Uiso   1.00
H305   H     0.23475   0.34879   0.26905   0.00000  Uiso   1.00
H306   H     0.22961   0.40321   0.25894   0.00000  Uiso   1.00
H307   H     0.13033   0.39397   0.25400   0.00000  Uiso   1.00
H308   H     0.13728   0.34286   0.27456   0.00000  Uiso   1.00
C309   C     0.24653   0.55028   0.29717   0.00000  Uiso   1.00
C310   C     0.25231   0.59536   0.31341   0.00000  Uiso   1.00
C311   C     0.29948   0.61808   0.29722   0.00000  Uiso   1.00
H312   H     0.30567   0.64944   0.31207   0.00000  Uiso   1.00
H313   H     0.00204   0.60086   0.30853   0.00000  Uiso   1.00
H314   H     0.29310   0.62132   0.25946   0.00000  Uiso   1.00
H315   H     0.25833   0.59670   0.01765   0.00000  Uiso   1.00
H316   H     0.21637   0.61181   0.29993   0.00000  Uiso   1.00
H317   H     0.28370   0.53466   0.30841   0.00000  Uiso   1.00
H318   H     0.24024   0.55281   0.26015   0.00000  Uiso   1.00
C319   C     0.09047   0.44592   0.03664   0.00000  Uiso   1.00
C320   C     0.09854   0.40008   0.02868   0.00000  Uiso   1.00
C321   C     0.05806   0.37152   0.04785   0.00000  Uiso   1.00
H322   H     0.06138   0.37512   0.08526   0.00000  Uiso   1.00
H323   H     0.01812   0.37883   0.03139   0.00000  Uiso   1.00
H324   H     0.06469   0.33869   0.04110   0.00000  Uiso   1.00
H325   H     0.09562   0.39441   0.32511   0.00000  Uiso   1.00
H326   H     0.13768   0.39193   0.04624   0.00000  Uiso   1.00
H327   H     0.09148   0.44824   0.07307   0.00000  Uiso   1.00
H328   H     0.05093   0.45428   0.01980   0.00000  Uiso   1.00
C329   C     0.50218   0.42014   0.16795   0.00000  Uiso   1.00
C330   C     0.50080   0.58006   0.16606   0.00000  Uiso   1.00
C331   C     0.40059   0.49963   0.15486   0.00000  Uiso   1.00
C332   C     0.59935   0.49961   0.17855   0.00000  Uiso   1.00
C333   C     0.34575   0.49392   0.14958   0.00000  Uiso   1.00
C334   C     0.65424   0.50435   0.18421   0.00000  Uiso   1.00
C335   C     0.53685   0.35819   0.14164   0.00000  Uiso   1.00
C336   C     0.47634   0.64375   0.19673   0.00000  Uiso   1.00
C337   C     0.53547   0.64819   0.13879   0.00000  Uiso   1.00
C338   C     0.48675   0.35205   0.20470   0.00000  Uiso   1.00
C339   C     0.50269   0.62458   0.16540   0.00000  Uiso   1.00
C340   C     0.50832   0.37617   0.17143   0.00000  Uiso   1.00
C341   C     0.53647   0.52300   0.02882   0.00000  Uiso   1.00
C342   C     0.46390   0.47641   0.30465   0.00000  Uiso   1.00
C343   C     0.53635   0.52424   0.31437   0.00000  Uiso   1.00
C344   C     0.46426   0.47517   0.01914   0.00000  Uiso   1.00
H345   H     0.56616   0.53985   0.05144   0.00000  Uiso   1.00
H346   H     0.43493   0.45804   0.28255   0.00000  Uiso   1.00
N347   N     0.49999   0.49999   0.28573   0.00000  Uiso   1.00
N348   N     0.50001   0.50001   0.04760   0.00000  Uiso   1.00
O349   O     0.50000   0.43892   0.20487   0.00000  Uiso   1.00
O350   O     0.50000   0.56108   0.12846   0.00000  Uiso   1.00
O351   O     0.50000   0.43893   0.12843   0.00000  Uiso   1.00
O352   O     0.50000   0.56107   0.20490   0.00000  Uiso   1.00
O353   O     0.42392   0.50000   0.19595   0.00000  Uiso   1.00
O354   O     0.57608   0.50000   0.13739   0.00000  Uiso   1.00
O355   O     0.42392   0.50000   0.11950   0.00000  Uiso   1.00
O356   O     0.57608   0.50000   0.21383   0.00000  Uiso   1.00
Zn357  Zn    0.50000   0.49999   0.21771   0.00000  Uiso   1.00
Zn358  Zn    0.50000   0.50001   0.11563   0.00000  Uiso   1.00
N359   N     0.65289   0.47325   0.10938   0.00000  Uiso   1.00
H360   H     0.33614   0.44460   0.10755   0.00000  Uiso   1.00
H361   H     0.65931   0.49128   0.08076   0.00000  Uiso   1.00
N362   N     0.34716   0.52438   0.22481   0.00000  Uiso   1.00
H363   H     0.34046   0.50600   0.25311   0.00000  Uiso   1.00
H364   H     0.66449   0.55316   0.22713   0.00000  Uiso   1.00
N365   N     0.57131   0.38463   0.11867   0.00000  Uiso   1.00
H366   H     0.55999   0.38250   0.08364   0.00000  Uiso   1.00
H367   H     0.60969   0.37561   0.12792   0.00000  Uiso   1.00
N368   N     0.43975   0.62155   0.22161   0.00000  Uiso   1.00
H369   H     0.41527   0.60135   0.20020   0.00000  Uiso   1.00
H370   H     0.45976   0.60506   0.24915   0.00000  Uiso   1.00
C371   C     0.57107   0.62850   0.10993   0.00000  Uiso   1.00
C372   C     0.62005   0.61272   0.13980   0.00000  Uiso   1.00
C373   C     0.65874   0.59761   0.11093   0.00000  Uiso   1.00
H374   H     0.64137   0.57083   0.09042   0.00000  Uiso   1.00
H375   H     0.33708   0.62298   0.08791   0.00000  Uiso   1.00
H376   H     0.36088   0.58733   0.13325   0.00000  Uiso   1.00
H377   H     0.63964   0.63819   0.16153   0.00000  Uiso   1.00
H378   H     0.60895   0.58697   0.16249   0.00000  Uiso   1.00
H379   H     0.55026   0.60377   0.08835   0.00000  Uiso   1.00
H380   H     0.58371   0.65087   0.08434   0.00000  Uiso   1.00
C381   C     0.48785   0.36688   0.25306   0.00000  Uiso   1.00
C382   C     0.54517   0.37558   0.27484   0.00000  Uiso   1.00
C383   C     0.55108   0.38214   0.32570   0.00000  Uiso   1.00
H384   H     0.53301   0.41125   0.33224   0.00000  Uiso   1.00
H385   H     0.53296   0.35520   0.00932   0.00000  Uiso   1.00
H386   H     0.59313   0.38507   0.00678   0.00000  Uiso   1.00
H387   H     0.56808   0.34879   0.26905   0.00000  Uiso   1.00
H388   H     0.56294   0.40321   0.25894   0.00000  Uiso   1.00
H389   H     0.46367   0.39397   0.25400   0.00000  Uiso   1.00
H390   H     0.47061   0.34286   0.27456   0.00000  Uiso   1.00
C391   C     0.57987   0.55028   0.29717   0.00000  Uiso   1.00
C392   C     0.58564   0.59536   0.31341   0.00000  Uiso   1.00
C393   C     0.63282   0.61808   0.29722   0.00000  Uiso   1.00
H394   H     0.63900   0.64944   0.31207   0.00000  Uiso   1.00
H395   H     0.33537   0.60086   0.30853   0.00000  Uiso   1.00
H396   H     0.62643   0.62132   0.25946   0.00000  Uiso   1.00
H397   H     0.59166   0.59670   0.01765   0.00000  Uiso   1.00
H398   H     0.54970   0.61181   0.29993   0.00000  Uiso   1.00
H399   H     0.61703   0.53466   0.30841   0.00000  Uiso   1.00
H400   H     0.57358   0.55281   0.26015   0.00000  Uiso   1.00
C401   C     0.42380   0.44592   0.03664   0.00000  Uiso   1.00
C402   C     0.43188   0.40008   0.02868   0.00000  Uiso   1.00
C403   C     0.39139   0.37152   0.04785   0.00000  Uiso   1.00
H404   H     0.39472   0.37512   0.08526   0.00000  Uiso   1.00
H405   H     0.35146   0.37883   0.03139   0.00000  Uiso   1.00
H406   H     0.39802   0.33869   0.04110   0.00000  Uiso   1.00
H407   H     0.42896   0.39441   0.32511   0.00000  Uiso   1.00
H408   H     0.47102   0.39193   0.04624   0.00000  Uiso   1.00
H409   H     0.42482   0.44824   0.07307   0.00000  Uiso   1.00
H410   H     0.38427   0.45428   0.01980   0.00000  Uiso   1.00
C411   C     0.83552   0.42014   0.16795   0.00000  Uiso   1.00
C412   C     0.83414   0.58006   0.16606   0.00000  Uiso   1.00
C413   C     0.73393   0.49963   0.15486   0.00000  Uiso   1.00
C414   C     0.93269   0.49961   0.17855   0.00000  Uiso   1.00
C415   C     0.67908   0.49392   0.14958   0.00000  Uiso   1.00
C416   C     0.98757   0.50435   0.18421   0.00000  Uiso   1.00
C417   C     0.87019   0.35819   0.14164   0.00000  Uiso   1.00
C418   C     0.80967   0.64375   0.19673   0.00000  Uiso   1.00
C419   C     0.86880   0.64819   0.13879   0.00000  Uiso   1.00
C420   C     0.82009   0.35205   0.20470   0.00000  Uiso   1.00
C421   C     0.83602   0.62458   0.16540   0.00000  Uiso   1.00
C422   C     0.84166   0.37617   0.17143   0.00000  Uiso   1.00
C423   C     0.86981   0.52300   0.02882   0.00000  Uiso   1.00
C424   C     0.79724   0.47641   0.30465   0.00000  Uiso   1.00
C425   C     0.86968   0.52424   0.31437   0.00000  Uiso   1.00
C426   C     0.79759   0.47517   0.01914   0.00000  Uiso   1.00
H427   H     0.89950   0.53985   0.05144   0.00000  Uiso   1.00
H428   H     0.76827   0.45804   0.28255   0.00000  Uiso   1.00
N429   N     0.83332   0.49999   0.28573   0.00000  Uiso   1.00
N430   N     0.83335   0.50001   0.04760   0.00000  Uiso   1.00
O431   O     0.83333   0.43892   0.20487   0.00000  Uiso   1.00
O432   O     0.83334   0.56108   0.12846   0.00000  Uiso   1.00
O433   O     0.83333   0.43893   0.12843   0.00000  Uiso   1.00
O434   O     0.83334   0.56107   0.20490   0.00000  Uiso   1.00
O435   O     0.75725   0.50000   0.19595   0.00000  Uiso   1.00
O436   O     0.90942   0.50000   0.13739   0.00000  Uiso   1.00
O437   O     0.75725   0.50000   0.11950   0.00000  Uiso   1.00
O438   O     0.90942   0.50000   0.21383   0.00000  Uiso   1.00
Zn439  Zn    0.83333   0.49999   0.21771   0.00000  Uiso   1.00
Zn440  Zn    0.83333   0.50001   0.11563   0.00000  Uiso   1.00
N441   N     0.98622   0.47325   0.10938   0.00000  Uiso   1.00
H442   H     0.66947   0.44460   0.10755   0.00000  Uiso   1.00
H443   H     0.99264   0.49128   0.08076   0.00000  Uiso   1.00
N444   N     0.68050   0.52438   0.22481   0.00000  Uiso   1.00
H445   H     0.67379   0.50600   0.25311   0.00000  Uiso   1.00
H446   H     0.99782   0.55316   0.22713   0.00000  Uiso   1.00
N447   N     0.90465   0.38463   0.11867   0.00000  Uiso   1.00
H448   H     0.89332   0.38250   0.08364   0.00000  Uiso   1.00
H449   H     0.94302   0.37561   0.12792   0.00000  Uiso   1.00
N450   N     0.77309   0.62155   0.22161   0.00000  Uiso   1.00
H451   H     0.74860   0.60135   0.20020   0.00000  Uiso   1.00
H452   H     0.79309   0.60506   0.24915   0.00000  Uiso   1.00
C453   C     0.90440   0.62850   0.10993   0.00000  Uiso   1.00
C454   C     0.95338   0.61272   0.13980   0.00000  Uiso   1.00
C455   C     0.99207   0.59761   0.11093   0.00000  Uiso   1.00
H456   H     0.97470   0.57083   0.09042   0.00000  Uiso   1.00
H457   H     0.67041   0.62298   0.08791   0.00000  Uiso   1.00
H458   H     0.69422   0.58733   0.13325   0.00000  Uiso   1.00
H459   H     0.97297   0.63819   0.16153   0.00000  Uiso   1.00
H460   H     0.94229   0.58697   0.16249   0.00000  Uiso   1.00
H461   H     0.88359   0.60377   0.08835   0.00000  Uiso   1.00
H462   H     0.91704   0.65087   0.08434   0.00000  Uiso   1.00
C463   C     0.82118   0.36688   0.25306   0.00000  Uiso   1.00
C464   C     0.87850   0.37558   0.27484   0.00000  Uiso   1.00
C465   C     0.88442   0.38214   0.32570   0.00000  Uiso   1.00
H466   H     0.86634   0.41125   0.33224   0.00000  Uiso   1.00
H467   H     0.86630   0.35520   0.00932   0.00000  Uiso   1.00
H468   H     0.92646   0.38507   0.00678   0.00000  Uiso   1.00
H469   H     0.90141   0.34879   0.26905   0.00000  Uiso   1.00
H470   H     0.89628   0.40321   0.25894   0.00000  Uiso   1.00
H471   H     0.79700   0.39397   0.25400   0.00000  Uiso   1.00
H472   H     0.80394   0.34286   0.27456   0.00000  Uiso   1.00
C473   C     0.91320   0.55028   0.29717   0.00000  Uiso   1.00
C474   C     0.91897   0.59536   0.31341   0.00000  Uiso   1.00
C475   C     0.96615   0.61808   0.29722   0.00000  Uiso   1.00
H476   H     0.97233   0.64944   0.31207   0.00000  Uiso   1.00
H477   H     0.66870   0.60086   0.30853   0.00000  Uiso   1.00
H478   H     0.95977   0.62132   0.25946   0.00000  Uiso   1.00
H479   H     0.92500   0.59670   0.01765   0.00000  Uiso   1.00
H480   H     0.88304   0.61181   0.29993   0.00000  Uiso   1.00
H481   H     0.95036   0.53466   0.30841   0.00000  Uiso   1.00
H482   H     0.90691   0.55281   0.26015   0.00000  Uiso   1.00
C483   C     0.75714   0.44592   0.03664   0.00000  Uiso   1.00
C484   C     0.76521   0.40008   0.02868   0.00000  Uiso   1.00
C485   C     0.72472   0.37152   0.04785   0.00000  Uiso   1.00
H486   H     0.72805   0.37512   0.08526   0.00000  Uiso   1.00
H487   H     0.68479   0.37883   0.03139   0.00000  Uiso   1.00
H488   H     0.73135   0.33869   0.04110   0.00000  Uiso   1.00
H489   H     0.76229   0.39441   0.32511   0.00000  Uiso   1.00
H490   H     0.80435   0.39193   0.04624   0.00000  Uiso   1.00
H491   H     0.75815   0.44824   0.07307   0.00000  Uiso   1.00
H492   H     0.71760   0.45428   0.01980   0.00000  Uiso   1.00
C493   C     0.16885   0.75347   0.16795   0.00000  Uiso   1.00
C494   C     0.16747   0.91339   0.16606   0.00000  Uiso   1.00
C495   C     0.06726   0.83296   0.15486   0.00000  Uiso   1.00
C496   C     0.26602   0.83295   0.17855   0.00000  Uiso   1.00
C497   C     0.01241   0.82725   0.14958   0.00000  Uiso   1.00
C498   C     0.32090   0.83768   0.18421   0.00000  Uiso   1.00
C499   C     0.20352   0.69153   0.14164   0.00000  Uiso   1.00
C500   C     0.14301   0.97708   0.19673   0.00000  Uiso   1.00
C501   C     0.20213   0.98152   0.13879   0.00000  Uiso   1.00
C502   C     0.15342   0.68539   0.20470   0.00000  Uiso   1.00
C503   C     0.16936   0.95791   0.16540   0.00000  Uiso   1.00
C504   C     0.17499   0.70951   0.17143   0.00000  Uiso   1.00
C505   C     0.20314   0.85633   0.02882   0.00000  Uiso   1.00
C506   C     0.13057   0.80974   0.30465   0.00000  Uiso   1.00
C507   C     0.20302   0.85758   0.31437   0.00000  Uiso   1.00
C508   C     0.13093   0.80851   0.01914   0.00000  Uiso   1.00
H509   H     0.23283   0.87318   0.05144   0.00000  Uiso   1.00
H510   H     0.10160   0.79138   0.28255   0.00000  Uiso   1.00
N511   N     0.16665   0.83332   0.28573   0.00000  Uiso   1.00
N512   N     0.16668   0.83334   0.04760   0.00000  Uiso   1.00
O513   O     0.16666   0.77225   0.20487   0.00000  Uiso   1.00
O514   O     0.16667   0.89442   0.12846   0.00000  Uiso   1.00
O515   O     0.16666   0.77226   0.12843   0.00000  Uiso   1.00
O516   O     0.16667   0.89441   0.20490   0.00000  Uiso   1.00
O517   O     0.09058   0.83333   0.19595   0.00000  Uiso   1.00
O518   O     0.24275   0.83334   0.13739   0.00000  Uiso   1.00
O519   O     0.09058   0.83334   0.11950   0.00000  Uiso   1.00
O520   O     0.24275   0.83333   0.21383   0.00000  Uiso   1.00
Zn521  Zn    0.16667   0.83333   0.21771   0.00000  Uiso   1.00
Zn522  Zn    0.16667   0.83334   0.11563   0.00000  Uiso   1.00
N523   N     0.31955   0.80658   0.10938   0.00000  Uiso   1.00
H524   H     0.00280   0.77794   0.10755   0.00000  Uiso   1.00
H525   H     0.32598   0.82461   0.08076   0.00000  Uiso   1.00
N526   N     0.01383   0.85771   0.22481   0.00000  Uiso   1.00
H527   H     0.00712   0.83933   0.25311   0.00000  Uiso   1.00
H528   H     0.33116   0.88650   0.22713   0.00000  Uiso   1.00
N529   N     0.23798   0.71797   0.11867   0.00000  Uiso   1.00
H530   H     0.22665   0.71583   0.08364   0.00000  Uiso   1.00
H531   H     0.27635   0.70895   0.12792   0.00000  Uiso   1.00
N532   N     0.10642   0.95488   0.22161   0.00000  Uiso   1.00
H533   H     0.08194   0.93468   0.20020   0.00000  Uiso   1.00
H534   H     0.12642   0.93839   0.24915   0.00000  Uiso   1.00
C535   C     0.23773   0.96184   0.10993   0.00000  Uiso   1.00
C536   C     0.28672   0.94605   0.13980   0.00000  Uiso   1.00
C537   C     0.32541   0.93094   0.11093   0.00000  Uiso   1.00
H538   H     0.30804   0.90417   0.09042   0.00000  Uiso   1.00
H539   H     0.00374   0.95632   0.08791   0.00000  Uiso   1.00
H540   H     0.02755   0.92067   0.13325   0.00000  Uiso   1.00
H541   H     0.30631   0.97152   0.16153   0.00000  Uiso   1.00
H542   H     0.27562   0.92030   0.16249   0.00000  Uiso   1.00
H543   H     0.21693   0.93710   0.08835   0.00000  Uiso   1.00
H544   H     0.25037   0.98420   0.08434   0.00000  Uiso   1.00
C545   C     0.15452   0.70022   0.25306   0.00000  Uiso   1.00
C546   C     0.21184   0.70891   0.27484   0.00000  Uiso   1.00
C547   C     0.21775   0.71547   0.32570   0.00000  Uiso   1.00
H548   H     0.19968   0.74459   0.33224   0.00000  Uiso   1.00
H549   H     0.19963   0.68853   0.00932   0.00000  Uiso   1.00
H550   H     0.25979   0.71841   0.00678   0.00000  Uiso   1.00
H551   H     0.23475   0.68212   0.26905   0.00000  Uiso   1.00
H552   H     0.22961   0.73655   0.25894   0.00000  Uiso   1.00
H553   H     0.13033   0.72730   0.25400   0.00000  Uiso   1.00
H554   H     0.13728   0.67619   0.27456   0.00000  Uiso   1.00
C555   C     0.24653   0.88361   0.29717   0.00000  Uiso   1.00
C556   C     0.25231   0.92869   0.31341   0.00000  Uiso   1.00
C557   C     0.29948   0.95141   0.29722   0.00000  Uiso   1.00
H558   H     0.30567   0.98278   0.31207   0.00000  Uiso   1.00
H559   H     0.00204   0.93419   0.30853   0.00000  Uiso   1.00
H560   H     0.29310   0.95465   0.25946   0.00000  Uiso   1.00
H561   H     0.25833   0.93003   0.01765   0.00000  Uiso   1.00
H562   H     0.21637   0.94514   0.29993   0.00000  Uiso   1.00
H563   H     0.28370   0.86800   0.30841   0.00000  Uiso   1.00
H564   H     0.24024   0.88614   0.26015   0.00000  Uiso   1.00
C565   C     0.09047   0.77926   0.03664   0.00000  Uiso   1.00
C566   C     0.09854   0.73342   0.02868   0.00000  Uiso   1.00
C567   C     0.05806   0.70485   0.04785   0.00000  Uiso   1.00
H568   H     0.06138   0.70845   0.08526   0.00000  Uiso   1.00
H569   H     0.01812   0.71217   0.03139   0.00000  Uiso   1.00
H570   H     0.06469   0.67202   0.04110   0.00000  Uiso   1.00
H571   H     0.09562   0.72774   0.32511   0.00000  Uiso   1.00
H572   H     0.13768   0.72526   0.04624   0.00000  Uiso   1.00
H573   H     0.09148   0.78158   0.07307   0.00000  Uiso   1.00
H574   H     0.05093   0.78762   0.01980   0.00000  Uiso   1.00
C575   C     0.50218   0.75347   0.16795   0.00000  Uiso   1.00
C576   C     0.50080   0.91339   0.16606   0.00000  Uiso   1.00
C577   C     0.40059   0.83296   0.15486   0.00000  Uiso   1.00
C578   C     0.59935   0.83295   0.17855   0.00000  Uiso   1.00
C579   C     0.34575   0.82725   0.14958   0.00000  Uiso   1.00
C580   C     0.65424   0.83768   0.18421   0.00000  Uiso   1.00
C581   C     0.53685   0.69153   0.14164   0.00000  Uiso   1.00
C582   C     0.47634   0.97708   0.19673   0.00000  Uiso   1.00
C583   C     0.53547   0.98152   0.13879   0.00000  Uiso   1.00
C584   C     0.48675   0.68539   0.20470   0.00000  Uiso   1.00
C585   C     0.50269   0.95791   0.16540   0.00000  Uiso   1.00
C586   C     0.50832   0.70951   0.17143   0.00000  Uiso   1.00
C587   C     0.53647   0.85633   0.02882   0.00000  Uiso   1.00
C588   C     0.46390   0.80974   0.30465   0.00000  Uiso   1.00
C589   C     0.53635   0.85758   0.31437   0.00000  Uiso   1.00
C590   C     0.46426   0.80851   0.01914   0.00000  Uiso   1.00
H591   H     0.56616   0.87318   0.05144   0.00000  Uiso   1.00
H592   H     0.43493   0.79138   0.28255   0.00000  Uiso   1.00
N593   N     0.49999   0.83332   0.28573   0.00000  Uiso   1.00
N594   N     0.50001   0.83334   0.04760   0.00000  Uiso   1.00
O595   O     0.50000   0.77225   0.20487   0.00000  Uiso   1.00
O596   O     0.50000   0.89442   0.12846   0.00000  Uiso   1.00
O597   O     0.50000   0.77226   0.12843   0.00000  Uiso   1.00
O598   O     0.50000   0.89441   0.20490   0.00000  Uiso   1.00
O599   O     0.42392   0.83333   0.19595   0.00000  Uiso   1.00
O600   O     0.57608   0.83334   0.13739   0.00000  Uiso   1.00
O601   O     0.42392   0.83334   0.11950   0.00000  Uiso   1.00
O602   O     0.57608   0.83333   0.21383   0.00000  Uiso   1.00
Zn603  Zn    0.50000   0.83333   0.21771   0.00000  Uiso   1.00
Zn604  Zn    0.50000   0.83334   0.11563   0.00000  Uiso   1.00
N605   N     0.65289   0.80658   0.10938   0.00000  Uiso   1.00
H606   H     0.33614   0.77794   0.10755   0.00000  Uiso   1.00
H607   H     0.65931   0.82461   0.08076   0.00000  Uiso   1.00
N608   N     0.34716   0.85771   0.22481   0.00000  Uiso   1.00
H609   H     0.34046   0.83933   0.25311   0.00000  Uiso   1.00
H610   H     0.66449   0.88650   0.22713   0.00000  Uiso   1.00
N611   N     0.57131   0.71797   0.11867   0.00000  Uiso   1.00
H612   H     0.55999   0.71583   0.08364   0.00000  Uiso   1.00
H613   H     0.60969   0.70895   0.12792   0.00000  Uiso   1.00
N614   N     0.43975   0.95488   0.22161   0.00000  Uiso   1.00
H615   H     0.41527   0.93468   0.20020   0.00000  Uiso   1.00
H616   H     0.45976   0.93839   0.24915   0.00000  Uiso   1.00
C617   C     0.57107   0.96184   0.10993   0.00000  Uiso   1.00
C618   C     0.62005   0.94605   0.13980   0.00000  Uiso   1.00
C619   C     0.65874   0.93094   0.11093   0.00000  Uiso   1.00
H620   H     0.64137   0.90417   0.09042   0.00000  Uiso   1.00
H621   H     0.33708   0.95632   0.08791   0.00000  Uiso   1.00
H622   H     0.36088   0.92067   0.13325   0.00000  Uiso   1.00
H623   H     0.63964   0.97152   0.16153   0.00000  Uiso   1.00
H624   H     0.60895   0.92030   0.16249   0.00000  Uiso   1.00
H625   H     0.55026   0.93710   0.08835   0.00000  Uiso   1.00
H626   H     0.58371   0.98420   0.08434   0.00000  Uiso   1.00
C627   C     0.48785   0.70022   0.25306   0.00000  Uiso   1.00
C628   C     0.54517   0.70891   0.27484   0.00000  Uiso   1.00
C629   C     0.55108   0.71547   0.32570   0.00000  Uiso   1.00
H630   H     0.53301   0.74459   0.33224   0.00000  Uiso   1.00
H631   H     0.53296   0.68853   0.00932   0.00000  Uiso   1.00
H632   H     0.59313   0.71841   0.00678   0.00000  Uiso   1.00
H633   H     0.56808   0.68212   0.26905   0.00000  Uiso   1.00
H634   H     0.56294   0.73655   0.25894   0.00000  Uiso   1.00
H635   H     0.46367   0.72730   0.25400   0.00000  Uiso   1.00
H636   H     0.47061   0.67619   0.27456   0.00000  Uiso   1.00
C637   C     0.57987   0.88361   0.29717   0.00000  Uiso   1.00
C638   C     0.58564   0.92869   0.31341   0.00000  Uiso   1.00
C639   C     0.63282   0.95141   0.29722   0.00000  Uiso   1.00
H640   H     0.63900   0.98278   0.31207   0.00000  Uiso   1.00
H641   H     0.33537   0.93419   0.30853   0.00000  Uiso   1.00
H642   H     0.62643   0.95465   0.25946   0.00000  Uiso   1.00
H643   H     0.59166   0.93003   0.01765   0.00000  Uiso   1.00
H644   H     0.54970   0.94514   0.29993   0.00000  Uiso   1.00
H645   H     0.61703   0.86800   0.30841   0.00000  Uiso   1.00
H646   H     0.57358   0.88614   0.26015   0.00000  Uiso   1.00
C647   C     0.42380   0.77926   0.03664   0.00000  Uiso   1.00
C648   C     0.43188   0.73342   0.02868   0.00000  Uiso   1.00
C649   C     0.39139   0.70485   0.04785   0.00000  Uiso   1.00
H650   H     0.39472   0.70845   0.08526   0.00000  Uiso   1.00
H651   H     0.35146   0.71217   0.03139   0.00000  Uiso   1.00
H652   H     0.39802   0.67202   0.04110   0.00000  Uiso   1.00
H653   H     0.42896   0.72774   0.32511   0.00000  Uiso   1.00
H654   H     0.47102   0.72526   0.04624   0.00000  Uiso   1.00
H655   H     0.42482   0.78158   0.07307   0.00000  Uiso   1.00
H656   H     0.38427   0.78762   0.01980   0.00000  Uiso   1.00
C657   C     0.83552   0.75347   0.16795   0.00000  Uiso   1.00
C658   C     0.83414   0.91339   0.16606   0.00000  Uiso   1.00
C659   C     0.73393   0.83296   0.15486   0.00000  Uiso   1.00
C660   C     0.93269   0.83295   0.17855   0.00000  Uiso   1.00
C661   C     0.67908   0.82725   0.14958   0.00000  Uiso   1.00
C662   C     0.98757   0.83768   0.18421   0.00000  Uiso   1.00
C663   C     0.87019   0.69153   0.14164   0.00000  Uiso   1.00
C664   C     0.80967   0.97708   0.19673   0.00000  Uiso   1.00
C665   C     0.86880   0.98152   0.13879   0.00000  Uiso   1.00
C666   C     0.82009   0.68539   0.20470   0.00000  Uiso   1.00
C667   C     0.83602   0.95791   0.16540   0.00000  Uiso   1.00
C668   C     0.84166   0.70951   0.17143   0.00000  Uiso   1.00
C669   C     0.86981   0.85633   0.02882   0.00000  Uiso   1.00
C670   C     0.79724   0.80974   0.30465   0.00000  Uiso   1.00
C671   C     0.86968   0.85758   0.31437   0.00000  Uiso   1.00
C672   C     0.79759   0.80851   0.01914   0.00000  Uiso   1.00
H673   H     0.89950   0.87318   0.05144   0.00000  Uiso   1.00
H674   H     0.76827   0.79138   0.28255   0.00000  Uiso   1.00
N675   N     0.83332   0.83332   0.28573   0.00000  Uiso   1.00
N676   N     0.83335   0.83334   0.04760   0.00000  Uiso   1.00
O677   O     0.83333   0.77225   0.20487   0.00000  Uiso   1.00
O678   O     0.83334   0.89442   0.12846   0.00000  Uiso   1.00
O679   O     0.83333   0.77226   0.12843   0.00000  Uiso   1.00
O680   O     0.83334   0.89441   0.20490   0.00000  Uiso   1.00
O681   O     0.75725   0.83333   0.19595   0.00000  Uiso   1.00
O682   O     0.90942   0.83334   0.13739   0.00000  Uiso   1.00
O683   O     0.75725   0.83334   0.11950   0.00000  Uiso   1.00
O684   O     0.90942   0.83333   0.21383   0.00000  Uiso   1.00
Zn685  Zn    0.83333   0.83333   0.21771   0.00000  Uiso   1.00
Zn686  Zn    0.83333   0.83334   0.11563   0.00000  Uiso   1.00
N687   N     0.98622   0.80658   0.10938   0.00000  Uiso   1.00
H688   H     0.66947   0.77794   0.10755   0.00000  Uiso   1.00
H689   H     0.99264   0.82461   0.08076   0.00000  Uiso   1.00
N690   N     0.68050   0.85771   0.22481   0.00000  Uiso   1.00
H691   H     0.67379   0.83933   0.25311   0.00000  Uiso   1.00
H692   H     0.99782   0.88650   0.22713   0.00000  Uiso   1.00
N693   N     0.90465   0.71797   0.11867   0.00000  Uiso   1.00
H694   H     0.89332   0.71583   0.08364   0.00000  Uiso   1.00
H695   H     0.94302   0.70895   0.12792   0.00000  Uiso   1.00
N696   N     0.77309   0.95488   0.22161   0.00000  Uiso   1.00
H697   H     0.74860   0.93468   0.20020   0.00000  Uiso   1.00
H698   H     0.79309   0.93839   0.24915   0.00000  Uiso   1.00
C699   C     0.90440   0.96184   0.10993   0.00000  Uiso   1.00
C700   C     0.95338   0.94605   0.13980   0.00000  Uiso   1.00
C701   C     0.99207   0.93094   0.11093   0.00000  Uiso   1.00
H702   H     0.97470   0.90417   0.09042   0.00000  Uiso   1.00
H703   H     0.67041   0.95632   0.08791   0.00000  Uiso   1.00
H704   H     0.69422   0.92067   0.13325   0.00000  Uiso   1.00
H705   H     0.97297   0.97152   0.16153   0.00000  Uiso   1.00
H706   H     0.94229   0.92030   0.16249   0.00000  Uiso   1.00
H707   H     0.88359   0.93710   0.08835   0.00000  Uiso   1.00
H708   H     0.91704   0.98420   0.08434   0.00000  Uiso   1.00
C709   C     0.82118   0.70022   0.25306   0.00000  Uiso   1.00
C710   C     0.87850   0.70891   0.27484   0.00000  Uiso   1.00
C711   C     0.88442   0.71547   0.32570   0.00000  Uiso   1.00
H712   H     0.86634   0.74459   0.33224   0.00000  Uiso   1.00
H713   H     0.86630   0.68853   0.00932   0.00000  Uiso   1.00
H714   H     0.92646   0.71841   0.00678   0.00000  Uiso   1.00
H715   H     0.90141   0.68212   0.26905   0.00000  Uiso   1.00
H716   H     0.89628   0.73655   0.25894   0.00000  Uiso   1.00
H717   H     0.79700   0.72730   0.25400   0.00000  Uiso   1.00
H718   H     0.80394   0.67619   0.27456   0.00000  Uiso   1.00
C719   C     0.91320   0.88361   0.29717   0.00000  Uiso   1.00
C720   C     0.91897   0.92869   0.31341   0.00000  Uiso   1.00
C721   C     0.96615   0.95141   0.29722   0.00000  Uiso   1.00
H722   H     0.97233   0.98278   0.31207   0.00000  Uiso   1.00
H723   H     0.66870   0.93419   0.30853   0.00000  Uiso   1.00
H724   H     0.95977   0.95465   0.25946   0.00000  Uiso   1.00
H725   H     0.92500   0.93003   0.01765   0.00000  Uiso   1.00
H726   H     0.88304   0.94514   0.29993   0.00000  Uiso   1.00
H727   H     0.95036   0.86800   0.30841   0.00000  Uiso   1.00
H728   H     0.90691   0.88614   0.26015   0.00000  Uiso   1.00
C729   C     0.75714   0.77926   0.03664   0.00000  Uiso   1.00
C730   C     0.76521   0.73342   0.02868   0.00000  Uiso   1.00
C731   C     0.72472   0.70485   0.04785   0.00000  Uiso   1.00
H732   H     0.72805   0.70845   0.08526   0.00000  Uiso   1.00
H733   H     0.68479   0.71217   0.03139   0.00000  Uiso   1.00
H734   H     0.73135   0.67202   0.04110   0.00000  Uiso   1.00
H735   H     0.76229   0.72774   0.32511   0.00000  Uiso   1.00
H736   H     0.80435   0.72526   0.04624   0.00000  Uiso   1.00
H737   H     0.75815   0.78158   0.07307   0.00000  Uiso   1.00
H738   H     0.71760   0.78762   0.01980   0.00000  Uiso   1.00
C739   C     0.16885   0.08681   0.50128   0.00000  Uiso   1.00
C740   C     0.16747   0.24673   0.49940   0.00000  Uiso   1.00
C741   C     0.06726   0.16629   0.48820   0.00000  Uiso   1.00
C742   C     0.26602   0.16628   0.51188   0.00000  Uiso   1.00
C743   C     0.01241   0.16058   0.48291   0.00000  Uiso   1.00
C744   C     0.32090   0.17102   0.51754   0.00000  Uiso   1.00
C745   C     0.20352   0.02486   0.47497   0.00000  Uiso   1.00
C746   C     0.14301   0.31042   0.53006   0.00000  Uiso   1.00
C747   C     0.20213   0.31486   0.47212   0.00000  Uiso   1.00
C748   C     0.15342   0.01872   0.53804   0.00000  Uiso   1.00
C749   C     0.16936   0.29124   0.49874   0.00000  Uiso   1.00
C750   C     0.17499   0.04284   0.50476   0.00000  Uiso   1.00
C751   C     0.20314   0.18966   0.36216   0.00000  Uiso   1.00
C752   C     0.13057   0.14307   0.63799   0.00000  Uiso   1.00
C753   C     0.20302   0.19091   0.64770   0.00000  Uiso   1.00
C754   C     0.13093   0.14184   0.35247   0.00000  Uiso   1.00
H755   H     0.23283   0.20651   0.38478   0.00000  Uiso   1.00
H756   H     0.10160   0.12471   0.61589   0.00000  Uiso   1.00
N757   N     0.16665   0.16666   0.61907   0.00000  Uiso   1.00
N758   N     0.16668   0.16668   0.38093   0.00000  Uiso   1.00
O759   O     0.16666   0.10558   0.53821   0.00000  Uiso   1.00
O760   O     0.16667   0.22775   0.46179   0.00000  Uiso   1.00
O761   O     0.16666   0.10559   0.46176   0.00000  Uiso   1.00
O762   O     0.16667   0.22774   0.53824   0.00000  Uiso   1.00
O763   O     0.09058   0.16666   0.52928   0.00000  Uiso   1.00
O764   O     0.24275   0.16667   0.47072   0.00000  Uiso   1.00
O765   O     0.09058   0.16667   0.45284   0.00000  Uiso   1.00
O766   O     0.24275   0.16666   0.54716   0.00000  Uiso   1.00
Zn767  Zn    0.16667   0.16666   0.55104   0.00000  Uiso   1.00
Zn768  Zn    0.16667   0.16667   0.44896   0.00000  Uiso   1.00
N769   N     0.31955   0.13991   0.44272   0.00000  Uiso   1.00
H770   H     0.00280   0.11127   0.44088   0.00000  Uiso   1.00
H771   H     0.32598   0.15794   0.41409   0.00000  Uiso   1.00
N772   N     0.01383   0.19104   0.55815   0.00000  Uiso   1.00
H773   H     0.00712   0.17267   0.58644   0.00000  Uiso   1.00
H774   H     0.33116   0.21983   0.56046   0.00000  Uiso   1.00
N775   N     0.23798   0.05130   0.45200   0.00000  Uiso   1.00
H776   H     0.22665   0.04917   0.41698   0.00000  Uiso   1.00
H777   H     0.27635   0.04228   0.46126   0.00000  Uiso   1.00
N778   N     0.10642   0.28822   0.55494   0.00000  Uiso   1.00
H779   H     0.08194   0.26801   0.53353   0.00000  Uiso   1.00
H780   H     0.12642   0.27173   0.58248   0.00000  Uiso   1.00
C781   C     0.23773   0.29517   0.44326   0.00000  Uiso   1.00
C782   C     0.28672   0.27938   0.47314   0.00000  Uiso   1.00
C783   C     0.32541   0.26427   0.44426   0.00000  Uiso   1.00
H784   H     0.30804   0.23750   0.42375   0.00000  Uiso   1.00
H785   H     0.00374   0.28965   0.42124   0.00000  Uiso   1.00
H786   H     0.02755   0.25400   0.46658   0.00000  Uiso   1.00
H787   H     0.30631   0.30486   0.49486   0.00000  Uiso   1.00
H788   H     0.27562   0.25363   0.49582   0.00000  Uiso   1.00
H789   H     0.21693   0.27043   0.42169   0.00000  Uiso   1.00
H790   H     0.25037   0.31753   0.41767   0.00000  Uiso   1.00
C791   C     0.15452   0.03355   0.58639   0.00000  Uiso   1.00
C792   C     0.21184   0.04225   0.60818   0.00000  Uiso   1.00
C793   C     0.21775   0.04880   0.65903   0.00000  Uiso   1.00
H794   H     0.19968   0.07792   0.66557   0.00000  Uiso   1.00
H795   H     0.19963   0.02186   0.34265   0.00000  Uiso   1.00
H796   H     0.25979   0.05174   0.34011   0.00000  Uiso   1.00
H797   H     0.23475   0.01546   0.60238   0.00000  Uiso   1.00
H798   H     0.22961   0.06988   0.59227   0.00000  Uiso   1.00
H799   H     0.13033   0.06064   0.58734   0.00000  Uiso   1.00
H800   H     0.13728   0.00953   0.60790   0.00000  Uiso   1.00
C801   C     0.24653   0.21694   0.63051   0.00000  Uiso   1.00
C802   C     0.25231   0.26203   0.64674   0.00000  Uiso   1.00
C803   C     0.29948   0.28475   0.63055   0.00000  Uiso   1.00
H804   H     0.30567   0.31611   0.64540   0.00000  Uiso   1.00
H805   H     0.00204   0.26753   0.64187   0.00000  Uiso   1.00
H806   H     0.29310   0.28799   0.59280   0.00000  Uiso   1.00
H807   H     0.25833   0.26336   0.35098   0.00000  Uiso   1.00
H808   H     0.21637   0.27847   0.63326   0.00000  Uiso   1.00
H809   H     0.28370   0.20133   0.64174   0.00000  Uiso   1.00
H810   H     0.24024   0.21947   0.59348   0.00000  Uiso   1.00
C811   C     0.09047   0.11259   0.36997   0.00000  Uiso   1.00
C812   C     0.09854   0.06675   0.36202   0.00000  Uiso   1.00
C813   C     0.05806   0.03818   0.38119   0.00000  Uiso   1.00
H814   H     0.06138   0.04178   0.41859   0.00000  Uiso   1.00
H815   H     0.01812   0.04550   0.36472   0.00000  Uiso   1.00
H816   H     0.06469   0.00536   0.37443   0.00000  Uiso   1.00
H817   H     0.09562   0.06108   0.65844   0.00000  Uiso   1.00
H818   H     0.13768   0.05859   0.37957   0.00000  Uiso   1.00
H819   H     0.09148   0.11491   0.40640   0.00000  Uiso   1.00
H820   H     0.05093   0.12095   0.35313   0.00000  Uiso   1.00
C821   C     0.50218   0.08681   0.50128   0.00000  Uiso   1.00
C822   C     0.50080   0.24673   0.49940   0.00000  Uiso   1.00
C823   C     0.40059   0.16629   0.48820   0.00000  Uiso   1.00
C824   C     0.59935   0.16628   0.51188   0.00000  Uiso   1.00
C825   C     0.34575   0.16058   0.48291   0.00000  Uiso   1.00
C826   C     0.65424   0.17102   0.51754   0.00000  Uiso   1.00
C827   C     0.53685   0.02486   0.47497   0.00000  Uiso   1.00
C828   C     0.47634   0.31042   0.53006   0.00000  Uiso   1.00
C829   C     0.53547   0.31486   0.47212   0.00000  Uiso   1.00
C830   C     0.48675   0.01872   0.53804   0.00000  Uiso   1.00
C831   C     0.50269   0.29124   0.49874   0.00000  Uiso   1.00
C832   C     0.50832   0.04284   0.50476   0.00000  Uiso   1.00
C833   C     0.53647   0.18966   0.36216   0.00000  Uiso   1.00
C834   C     0.46390   0.14307   0.63799   0.00000  Uiso   1.00
C835   C     0.53635   0.19091   0.64770   0.00000  Uiso   1.00
C836   C     0.46426   0.14184   0.35247   0.00000  Uiso   1.00
H837   H     0.56616   0.20651   0.38478   0.00000  Uiso   1.00
H838   H     0.43493   0.12471   0.61589   0.00000  Uiso   1.00
N839   N     0.49999   0.16666   0.61907   0.00000  Uiso   1.00
N840   N     0.50001   0.16668   0.38093   0.00000  Uiso   1.00
O841   O     0.50000   0.10558   0.53821   0.00000  Uiso   1.00
O842   O     0.50000   0.22775   0.46179   0.00000  Uiso   1.00
O843   O     0.50000   0.10559   0.46176   0.00000  Uiso   1.00
O844   O     0.50000   0.22774   0.53824   0.00000  Uiso   1.00
O845   O     0.42392   0.16666   0.52928   0.00000  Uiso   1.00
O846   O     0.57608   0.16667   0.47072   0.00000  Uiso   1.00
O847   O     0.42392   0.16667   0.45284   0.00000  Uiso   1.00
O848   O     0.57608   0.16666   0.54716   0.00000  Uiso   1.00
Zn849  Zn    0.50000   0.16666   0.55104   0.00000  Uiso   1.00
Zn850  Zn    0.50000   0.16667   0.44896   0.00000  Uiso   1.00
N851   N     0.65289   0.13991   0.44272   0.00000  Uiso   1.00
H852   H     0.33614   0.11127   0.44088   0.00000  Uiso   1.00
H853   H     0.65931   0.15794   0.41409   0.00000  Uiso   1.00
N854   N     0.34716   0.19104   0.55815   0.00000  Uiso   1.00
H855   H     0.34046   0.17267   0.58644   0.00000  Uiso   1.00
H856   H     0.66449   0.21983   0.56046   0.00000  Uiso   1.00
N857   N     0.57131   0.05130   0.45200   0.00000  Uiso   1.00
H858   H     0.55999   0.04917   0.41698   0.00000  Uiso   1.00
H859   H     0.60969   0.04228   0.46126   0.00000  Uiso   1.00
N860   N     0.43975   0.28822   0.55494   0.00000  Uiso   1.00
H861   H     0.41527   0.26801   0.53353   0.00000  Uiso   1.00
H862   H     0.45976   0.27173   0.58248   0.00000  Uiso   1.00
C863   C     0.57107   0.29517   0.44326   0.00000  Uiso   1.00
C864   C     0.62005   0.27938   0.47314   0.00000  Uiso   1.00
C865   C     0.65874   0.26427   0.44426   0.00000  Uiso   1.00
H866   H     0.64137   0.23750   0.42375   0.00000  Uiso   1.00
H867   H     0.33708   0.28965   0.42124   0.00000  Uiso   1.00
H868   H     0.36088   0.25400   0.46658   0.00000  Uiso   1.00
H869   H     0.63964   0.30486   0.49486   0.00000  Uiso   1.00
H870   H     0.60895   0.25363   0.49582   0.00000  Uiso   1.00
H871   H     0.55026   0.27043   0.42169   0.00000  Uiso   1.00
H872   H     0.58371   0.31753   0.41767   0.00000  Uiso   1.00
C873   C     0.48785   0.03355   0.58639   0.00000  Uiso   1.00
C874   C     0.54517   0.04225   0.60818   0.00000  Uiso   1.00
C875   C     0.55108   0.04880   0.65903   0.00000  Uiso   1.00
H876   H     0.53301   0.07792   0.66557   0.00000  Uiso   1.00
H877   H     0.53296   0.02186   0.34265   0.00000  Uiso   1.00
H878   H     0.59313   0.05174   0.34011   0.00000  Uiso   1.00
H879   H     0.56808   0.01546   0.60238   0.00000  Uiso   1.00
H880   H     0.56294   0.06988   0.59227   0.00000  Uiso   1.00
H881   H     0.46367   0.06064   0.58734   0.00000  Uiso   1.00
H882   H     0.47061   0.00953   0.60790   0.00000  Uiso   1.00
C883   C     0.57987   0.21694   0.63051   0.00000  Uiso   1.00
C884   C     0.58564   0.26203   0.64674   0.00000  Uiso   1.00
C885   C     0.63282   0.28475   0.63055   0.00000  Uiso   1.00
H886   H     0.63900   0.31611   0.64540   0.00000  Uiso   1.00
H887   H     0.33537   0.26753   0.64187   0.00000  Uiso   1.00
H888   H     0.62643   0.28799   0.59280   0.00000  Uiso   1.00
H889   H     0.59166   0.26336   0.35098   0.00000  Uiso   1.00
H890   H     0.54970   0.27847   0.63326   0.00000  Uiso   1.00
H891   H     0.61703   0.20133   0.64174   0.00000  Uiso   1.00
H892   H     0.57358   0.21947   0.59348   0.00000  Uiso   1.00
C893   C     0.42380   0.11259   0.36997   0.00000  Uiso   1.00
C894   C     0.43188   0.06675   0.36202   0.00000  Uiso   1.00
C895   C     0.39139   0.03818   0.38119   0.00000  Uiso   1.00
H896   H     0.39472   0.04178   0.41859   0.00000  Uiso   1.00
H897   H     0.35146   0.04550   0.36472   0.00000  Uiso   1.00
H898   H     0.39802   0.00536   0.37443   0.00000  Uiso   1.00
H899   H     0.42896   0.06108   0.65844   0.00000  Uiso   1.00
H900   H     0.47102   0.05859   0.37957   0.00000  Uiso   1.00
H901   H     0.42482   0.11491   0.40640   0.00000  Uiso   1.00
H902   H     0.38427   0.12095   0.35313   0.00000  Uiso   1.00
C903   C     0.83552   0.08681   0.50128   0.00000  Uiso   1.00
C904   C     0.83414   0.24673   0.49940   0.00000  Uiso   1.00
C905   C     0.73393   0.16629   0.48820   0.00000  Uiso   1.00
C906   C     0.93269   0.16628   0.51188   0.00000  Uiso   1.00
C907   C     0.67908   0.16058   0.48291   0.00000  Uiso   1.00
C908   C     0.98757   0.17102   0.51754   0.00000  Uiso   1.00
C909   C     0.87019   0.02486   0.47497   0.00000  Uiso   1.00
C910   C     0.80967   0.31042   0.53006   0.00000  Uiso   1.00
C911   C     0.86880   0.31486   0.47212   0.00000  Uiso   1.00
C912   C     0.82009   0.01872   0.53804   0.00000  Uiso   1.00
C913   C     0.83602   0.29124   0.49874   0.00000  Uiso   1.00
C914   C     0.84166   0.04284   0.50476   0.00000  Uiso   1.00
C915   C     0.86981   0.18966   0.36216   0.00000  Uiso   1.00
C916   C     0.79724   0.14307   0.63799   0.00000  Uiso   1.00
C917   C     0.86968   0.19091   0.64770   0.00000  Uiso   1.00
C918   C     0.79759   0.14184   0.35247   0.00000  Uiso   1.00
H919   H     0.89950   0.20651   0.38478   0.00000  Uiso   1.00
H920   H     0.76827   0.12471   0.61589   0.00000  Uiso   1.00
N921   N     0.83332   0.16666   0.61907   0.00000  Uiso   1.00
N922   N     0.83335   0.16668   0.38093   0.00000  Uiso   1.00
O923   O     0.83333   0.10558   0.53821   0.00000  Uiso   1.00
O924   O     0.83334   0.22775   0.46179   0.00000  Uiso   1.00
O925   O     0.83333   0.10559   0.46176   0.00000  Uiso   1.00
O926   O     0.83334   0.22774   0.53824   0.00000  Uiso   1.00
O927   O     0.75725   0.16666   0.52928   0.00000  Uiso   1.00
O928   O     0.90942   0.16667   0.47072   0.00000  Uiso   1.00
O929   O     0.75725   0.16667   0.45284   0.00000  Uiso   1.00
O930   O     0.90942   0.16666   0.54716   0.00000  Uiso   1.00
Zn931  Zn    0.83333   0.16666   0.55104   0.00000  Uiso   1.00
Zn932  Zn    0.83333   0.16667   0.44896   0.00000  Uiso   1.00
N933   N     0.98622   0.13991   0.44272   0.00000  Uiso   1.00
H934   H     0.66947   0.11127   0.44088   0.00000  Uiso   1.00
H935   H     0.99264   0.15794   0.41409   0.00000  Uiso   1.00
N936   N     0.68050   0.19104   0.55815   0.00000  Uiso   1.00
H937   H     0.67379   0.17267   0.58644   0.00000  Uiso   1.00
H938   H     0.99782   0.21983   0.56046   0.00000  Uiso   1.00
N939   N     0.90465   0.05130   0.45200   0.00000  Uiso   1.00
H940   H     0.89332   0.04917   0.41698   0.00000  Uiso   1.00
H941   H     0.94302   0.04228   0.46126   0.00000  Uiso   1.00
N942   N     0.77309   0.28822   0.55494   0.00000  Uiso   1.00
H943   H     0.74860   0.26801   0.53353   0.00000  Uiso   1.00
H944   H     0.79309   0.27173   0.58248   0.00000  Uiso   1.00
C945   C     0.90440   0.29517   0.44326   0.00000  Uiso   1.00
C946   C     0.95338   0.27938   0.47314   0.00000  Uiso   1.00
C947   C     0.99207   0.26427   0.44426   0.00000  Uiso   1.00
H948   H     0.97470   0.23750   0.42375   0.00000  Uiso   1.00
H949   H     0.67041   0.28965   0.42124   0.00000  Uiso   1.00
H950   H     0.69422   0.25400   0.46658   0.00000  Uiso   1.00
H951   H     0.97297   0.30486   0.49486   0.00000  Uiso   1.00
H952   H     0.94229   0.25363   0.49582   0.00000  Uiso   1.00
H953   H     0.88359   0.27043   0.42169   0.00000  Uiso   1.00
H954   H     0.91704   0.31753   0.41767   0.00000  Uiso   1.00
C955   C     0.82118   0.03355   0.58639   0.00000  Uiso   1.00
C956   C     0.87850   0.04225   0.60818   0.00000  Uiso   1.00
C957   C     0.88442   0.04880   0.65903   0.00000  Uiso   1.00
H958   H     0.86634   0.07792   0.66557   0.00000  Uiso   1.00
H959   H     0.86630   0.02186   0.34265   0.00000  Uiso   1.00
H960   H     0.92646   0.05174   0.34011   0.00000  Uiso   1.00
H961   H     0.90141   0.01546   0.60238   0.00000  Uiso   1.00
H962   H     0.89628   0.06988   0.59227   0.00000  Uiso   1.00
H963   H     0.79700   0.06064   0.58734   0.00000  Uiso   1.00
H964   H     0.80394   0.00953   0.60790   0.00000  Uiso   1.00
C965   C     0.91320   0.21694   0.63051   0.00000  Uiso   1.00
C966   C     0.91897   0.26203   0.64674   0.00000  Uiso   1.00
C967   C     0.96615   0.28475   0.63055   0.00000  Uiso   1.00
H968   H     0.97233   0.31611   0.64540   0.00000  Uiso   1.00
H969   H     0.66870   0.26753   0.64187   0.00000  Uiso   1.00
H970   H     0.95977   0.28799   0.59280   0.00000  Uiso   1.00
H971   H     0.92500   0.26336   0.35098   0.00000  Uiso   1.00
H972   H     0.88304   0.27847   0.63326   0.00000  Uiso   1.00
H973   H     0.95036   0.20133   0.64174   0.00000  Uiso   1.00
H974   H     0.90691   0.21947   0.59348   0.00000  Uiso   1.00
C975   C     0.75714   0.11259   0.36997   0.00000  Uiso   1.00
C976   C     0.76521   0.06675   0.36202   0.00000  Uiso   1.00
C977   C     0.72472   0.03818   0.38119   0.00000  Uiso   1.00
H978   H     0.72805   0.04178   0.41859   0.00000  Uiso   1.00
H979   H     0.68479   0.04550   0.36472   0.00000  Uiso   1.00
H980   H     0.73135   0.00536   0.37443   0.00000  Uiso   1.00
H981   H     0.76229   0.06108   0.65844   0.00000  Uiso   1.00
H982   H     0.80435   0.05859   0.37957   0.00000  Uiso   1.00
H983   H     0.75815   0.11491   0.40640   0.00000  Uiso   1.00
H984   H     0.71760   0.12095   0.35313   0.00000  Uiso   1.00
C985   C     0.16885   0.42014   0.50128   0.00000  Uiso   1.00
C986   C     0.16747   0.58006   0.49940   0.00000  Uiso   1.00
C987   C     0.06726   0.49963   0.48820   0.00000  Uiso   1.00
C988   C     0.26602   0.49961   0.51188   0.00000  Uiso   1.00
C989   C     0.01241   0.49392   0.48291   0.00000  Uiso   1.00
C990   C     0.32090   0.50435   0.51754   0.00000  Uiso   1.00
C991   C     0.20352   0.35819   0.47497   0.00000  Uiso   1.00
C992   C     0.14301   0.64375   0.53006   0.00000  Uiso   1.00
C993   C     0.20213   0.64819   0.47212   0.00000  Uiso   1.00
C994   C     0.15342   0.35205   0.53804   0.00000  Uiso   1.00
C995   C     0.16936   0.62458   0.49874   0.00000  Uiso   1.00
C996   C     0.17499   0.37617   0.50476   0.00000  Uiso   1.00
C997   C     0.20314   0.52300   0.36216   0.00000  Uiso   1.00
C998   C     0.13057   0.47641   0.63799   0.00000  Uiso   1.00
C999   C     0.20302   0.52424   0.64770   0.00000  Uiso   1.00
C1000  C     0.13093   0.47517   0.35247   0.00000  Uiso   1.00
H1001  H     0.23283   0.53985   0.38478   0.00000  Uiso   1.00
H1002  H     0.10160   0.45804   0.61589   0.00000  Uiso   1.00
N1003  N     0.16665   0.49999   0.61907   0.00000  Uiso   1.00
N1004  N     0.16668   0.50001   0.38093   0.00000  Uiso   1.00
O1005  O     0.16666   0.43892   0.53821   0.00000  Uiso   1.00
O1006  O     0.16667   0.56108   0.46179   0.00000  Uiso   1.00
O1007  O     0.16666   0.43893   0.46176   0.00000  Uiso   1.00
O1008  O     0.16667   0.56107   0.53824   0.00000  Uiso   1.00
O1009  O     0.09058   0.50000   0.52928   0.00000  Uiso   1.00
O1010  O     0.24275   0.50000   0.47072   0.00000  Uiso   1.00
O1011  O     0.09058   0.50000   0.45284   0.00000  Uiso   1.00
O1012  O     0.24275   0.50000   0.54716   0.00000  Uiso   1.00
Zn1013 Zn    0.16667   0.49999   0.55104   0.00000  Uiso   1.00
Zn1014 Zn    0.16667   0.50001   0.44896   0.00000  Uiso   1.00
N1015  N     0.31955   0.47325   0.44272   0.00000  Uiso   1.00
H1016  H     0.00280   0.44460   0.44088   0.00000  Uiso   1.00
H1017  H     0.32598   0.49128   0.41409   0.00000  Uiso   1.00
N1018  N     0.01383   0.52438   0.55815   0.00000  Uiso   1.00
H1019  H     0.00712   0.50600   0.58644   0.00000  Uiso   1.00
H1020  H     0.33116   0.55316   0.56046   0.00000  Uiso   1.00
N1021  N     0.23798   0.38463   0.45200   0.00000  Uiso   1.00
H1022  H     0.22665   0.38250   0.41698   0.00000  Uiso   1.00
H1023  H     0.27635   0.37561   0.46126   0.00000  Uiso   1.00
N1024  N     0.10642   0.62155   0.55494   0.00000  Uiso   1.00
H1025  H     0.08194   0.60135   0.53353   0.00000  Uiso   1.00
H1026  H     0.12642   0.60506   0.58248   0.00000  Uiso   1.00
C1027  C     0.23773   0.62850   0.44326   0.00000  Uiso   1.00
C1028  C     0.28672   0.61272   0.47314   0.00000  Uiso   1.00
C1029  C     0.32541   0.59761   0.44426   0.00000  Uiso   1.00
H1030  H     0.30804   0.57083   0.42375   0.00000  Uiso   1.00
H1031  H     0.00374   0.62298   0.42124   0.00000  Uiso   1.00
H1032  H     0.02755   0.58733   0.46658   0.00000  Uiso   1.00
H1033  H     0.30631   0.63819   0.49486   0.00000  Uiso   1.00
H1034  H     0.27562   0.58697   0.49582   0.00000  Uiso   1.00
H1035  H     0.21693   0.60377   0.42169   0.00000  Uiso   1.00
H1036  H     0.25037   0.65087   0.41767   0.00000  Uiso   1.00
C1037  C     0.15452   0.36688   0.58639   0.00000  Uiso   1.00
C1038  C     0.21184   0.37558   0.60818   0.00000  Uiso   1.00
C1039  C     0.21775   0.38214   0.65903   0.00000  Uiso   1.00
H1040  H     0.19968   0.41125   0.66557   0.00000  Uiso   1.00
H1041  H     0.19963   0.35520   0.34265   0.00000  Uiso   1.00
H1042  H     0.25979   0.38507   0.34011   0.00000  Uiso   1.00
H1043  H     0.23475   0.34879   0.60238   0.00000  Uiso   1.00
H1044  H     0.22961   0.40321   0.59227   0.00000  Uiso   1.00
H1045  H     0.13033   0.39397   0.58734   0.00000  Uiso   1.00
H1046  H     0.13728   0.34286   0.60790   0.00000  Uiso   1.00
C1047  C     0.24653   0.55028   0.63051   0.00000  Uiso   1.00
C1048  C     0.25231   0.59536   0.64674   0.00000  Uiso   1.00
C1049  C     0.29948   0.61808   0.63055   0.00000  Uiso   1.00
H1050  H     0.30567   0.64944   0.64540   0.00000  Uiso   1.00
H1051  H     0.00204   0.60086   0.64187   0.00000  Uiso   1.00
H1052  H     0.29310   0.62132   0.59280   0.00000  Uiso   1.00
H1053  H     0.25833   0.59670   0.35098   0.00000  Uiso   1.00
H1054  H     0.21637   0.61181   0.63326   0.00000  Uiso   1.00
H1055  H     0.28370   0.53466   0.64174   0.00000  Uiso   1.00
H1056  H     0.24024   0.55281   0.59348   0.00000  Uiso   1.00
C1057  C     0.09047   0.44592   0.36997   0.00000  Uiso   1.00
C1058  C     0.09854   0.40008   0.36202   0.00000  Uiso   1.00
C1059  C     0.05806   0.37152   0.38119   0.00000  Uiso   1.00
H1060  H     0.06138   0.37512   0.41859   0.00000  Uiso   1.00
H1061  H     0.01812   0.37883   0.36472   0.00000  Uiso   1.00
H1062  H     0.06469   0.33869   0.37443   0.00000  Uiso   1.00
H1063  H     0.09562   0.39441   0.65844   0.00000  Uiso   1.00
H1064  H     0.13768   0.39193   0.37957   0.00000  Uiso   1.00
H1065  H     0.09148   0.44824   0.40640   0.00000  Uiso   1.00
H1066  H     0.05093   0.45428   0.35313   0.00000  Uiso   1.00
C1067  C     0.50218   0.42014   0.50128   0.00000  Uiso   1.00
C1068  C     0.50080   0.58006   0.49940   0.00000  Uiso   1.00
C1069  C     0.40059   0.49963   0.48820   0.00000  Uiso   1.00
C1070  C     0.59935   0.49961   0.51188   0.00000  Uiso   1.00
C1071  C     0.34575   0.49392   0.48291   0.00000  Uiso   1.00
C1072  C     0.65424   0.50435   0.51754   0.00000  Uiso   1.00
C1073  C     0.53685   0.35819   0.47497   0.00000  Uiso   1.00
C1074  C     0.47634   0.64375   0.53006   0.00000  Uiso   1.00
C1075  C     0.53547   0.64819   0.47212   0.00000  Uiso   1.00
C1076  C     0.48675   0.35205   0.53804   0.00000  Uiso   1.00
C1077  C     0.50269   0.62458   0.49874   0.00000  Uiso   1.00
C1078  C     0.50832   0.37617   0.50476   0.00000  Uiso   1.00
C1079  C     0.53647   0.52300   0.36216   0.00000  Uiso   1.00
C1080  C     0.46390   0.47641   0.63799   0.00000  Uiso   1.00
C1081  C     0.53635   0.52424   0.64770   0.00000  Uiso   1.00
C1082  C     0.46426   0.47517   0.35247   0.00000  Uiso   1.00
H1083  H     0.56616   0.53985   0.38478   0.00000  Uiso   1.00
H1084  H     0.43493   0.45804   0.61589   0.00000  Uiso   1.00
N1085  N     0.49999   0.49999   0.61907   0.00000  Uiso   1.00
N1086  N     0.50001   0.50001   0.38093   0.00000  Uiso   1.00
O1087  O     0.50000   0.43892   0.53821   0.00000  Uiso   1.00
O1088  O     0.50000   0.56108   0.46179   0.00000  Uiso   1.00
O1089  O     0.50000   0.43893   0.46176   0.00000  Uiso   1.00
O1090  O     0.50000   0.56107   0.53824   0.00000  Uiso   1.00
O1091  O     0.42392   0.50000   0.52928   0.00000  Uiso   1.00
O1092  O     0.57608   0.50000   0.47072   0.00000  Uiso   1.00
O1093  O     0.42392   0.50000   0.45284   0.00000  Uiso   1.00
O1094  O     0.57608   0.50000   0.54716   0.00000  Uiso   1.00
Zn1095 Zn    0.50000   0.49999   0.55104   0.00000  Uiso   1.00
Zn1096 Zn    0.50000   0.50001   0.44896   0.00000  Uiso   1.00
N1097  N     0.65289   0.47325   0.44272   0.00000  Uiso   1.00
H1098  H     0.33614   0.44460   0.44088   0.00000  Uiso   1.00
H1099  H     0.65931   0.49128   0.41409   0.00000  Uiso   1.00
N1100  N     0.34716   0.52438   0.55815   0.00000  Uiso   1.00
H1101  H     0.34046   0.50600   0.58644   0.00000  Uiso   1.00
H1102  H     0.66449   0.55316   0.56046   0.00000  Uiso   1.00
N1103  N     0.57131   0.38463   0.45200   0.00000  Uiso   1.00
H1104  H     0.55999   0.38250   0.41698   0.00000  Uiso   1.00
H1105  H     0.60969   0.37561   0.46126   0.00000  Uiso   1.00
N1106  N     0.43975   0.62155   0.55494   0.00000  Uiso   1.00
H1107  H     0.41527   0.60135   0.53353   0.00000  Uiso   1.00
H1108  H     0.45976   0.60506   0.58248   0.00000  Uiso   1.00
C1109  C     0.57107   0.62850   0.44326   0.00000  Uiso   1.00
C1110  C     0.62005   0.61272   0.47314   0.00000  Uiso   1.00
C1111  C     0.65874   0.59761   0.44426   0.00000  Uiso   1.00
H1112  H     0.64137   0.57083   0.42375   0.00000  Uiso   1.00
H1113  H     0.33708   0.62298   0.42124   0.00000  Uiso   1.00
H1114  H     0.36088   0.58733   0.46658   0.00000  Uiso   1.00
H1115  H     0.63964   0.63819   0.49486   0.00000  Uiso   1.00
H1116  H     0.60895   0.58697   0.49582   0.00000  Uiso   1.00
H1117  H     0.55026   0.60377   0.42169   0.00000  Uiso   1.00
H1118  H     0.58371   0.65087   0.41767   0.00000  Uiso   1.00
C1119  C     0.48785   0.36688   0.58639   0.00000  Uiso   1.00
C1120  C     0.54517   0.37558   0.60818   0.00000  Uiso   1.00
C1121  C     0.55108   0.38214   0.65903   0.00000  Uiso   1.00
H1122  H     0.53301   0.41125   0.66557   0.00000  Uiso   1.00
H1123  H     0.53296   0.35520   0.34265   0.00000  Uiso   1.00
H1124  H     0.59313   0.38507   0.34011   0.00000  Uiso   1.00
H1125  H     0.56808   0.34879   0.60238   0.00000  Uiso   1.00
H1126  H     0.56294   0.40321   0.59227   0.00000  Uiso   1.00
H1127  H     0.46367   0.39397   0.58734   0.00000  Uiso   1.00
H1128  H     0.47061   0.34286   0.60790   0.00000  Uiso   1.00
C1129  C     0.57987   0.55028   0.63051   0.00000  Uiso   1.00
C1130  C     0.58564   0.59536   0.64674   0.00000  Uiso   1.00
C1131  C     0.63282   0.61808   0.63055   0.00000  Uiso   1.00
H1132  H     0.63900   0.64944   0.64540   0.00000  Uiso   1.00
H1133  H     0.33537   0.60086   0.64187   0.00000  Uiso   1.00
H1134  H     0.62643   0.62132   0.59280   0.00000  Uiso   1.00
H1135  H     0.59166   0.59670   0.35098   0.00000  Uiso   1.00
H1136  H     0.54970   0.61181   0.63326   0.00000  Uiso   1.00
H1137  H     0.61703   0.53466   0.64174   0.00000  Uiso   1.00
H1138  H     0.57358   0.55281   0.59348   0.00000  Uiso   1.00
C1139  C     0.42380   0.44592   0.36997   0.00000  Uiso   1.00
C1140  C     0.43188   0.40008   0.36202   0.00000  Uiso   1.00
C1141  C     0.39139   0.37152   0.38119   0.00000  Uiso   1.00
H1142  H     0.39472   0.37512   0.41859   0.00000  Uiso   1.00
H1143  H     0.35146   0.37883   0.36472   0.00000  Uiso   1.00
H1144  H     0.39802   0.33869   0.37443   0.00000  Uiso   1.00
H1145  H     0.42896   0.39441   0.65844   0.00000  Uiso   1.00
H1146  H     0.47102   0.39193   0.37957   0.00000  Uiso   1.00
H1147  H     0.42482   0.44824   0.40640   0.00000  Uiso   1.00
H1148  H     0.38427   0.45428   0.35313   0.00000  Uiso   1.00
C1149  C     0.83552   0.42014   0.50128   0.00000  Uiso   1.00
C1150  C     0.83414   0.58006   0.49940   0.00000  Uiso   1.00
C1151  C     0.73393   0.49963   0.48820   0.00000  Uiso   1.00
C1152  C     0.93269   0.49961   0.51188   0.00000  Uiso   1.00
C1153  C     0.67908   0.49392   0.48291   0.00000  Uiso   1.00
C1154  C     0.98757   0.50435   0.51754   0.00000  Uiso   1.00
C1155  C     0.87019   0.35819   0.47497   0.00000  Uiso   1.00
C1156  C     0.80967   0.64375   0.53006   0.00000  Uiso   1.00
C1157  C     0.86880   0.64819   0.47212   0.00000  Uiso   1.00
C1158  C     0.82009   0.35205   0.53804   0.00000  Uiso   1.00
C1159  C     0.83602   0.62458   0.49874   0.00000  Uiso   1.00
C1160  C     0.84166   0.37617   0.50476   0.00000  Uiso   1.00
C1161  C     0.86981   0.52300   0.36216   0.00000  Uiso   1.00
C1162  C     0.79724   0.47641   0.63799   0.00000  Uiso   1.00
C1163  C     0.86968   0.52424   0.64770   0.00000  Uiso   1.00
C1164  C     0.79759   0.47517   0.35247   0.00000  Uiso   1.00
H1165  H     0.89950   0.53985   0.38478   0.00000  Uiso   1.00
H1166  H     0.76827   0.45804   0.61589   0.00000  Uiso   1.00
N1167  N     0.83332   0.49999   0.61907   0.00000  Uiso   1.00
N1168  N     0.83335   0.50001   0.38093   0.00000  Uiso   1.00
O1169  O     0.83333   0.43892   0.53821   0.00000  Uiso   1.00
O1170  O     0.83334   0.56108   0.46179   0.00000  Uiso   1.00
O1171  O     0.83333   0.43893   0.46176   0.00000  Uiso   1.00
O1172  O     0.83334   0.56107   0.53824   0.00000  Uiso   1.00
O1173  O     0.75725   0.50000   0.52928   0.00000  Uiso   1.00
O1174  O     0.90942   0.50000   0.47072   0.00000  Uiso   1.00
O1175  O     0.75725   0.50000   0.45284   0.00000  Uiso   1.00
O1176  O     0.90942   0.50000   0.54716   0.00000  Uiso   1.00
Zn1177 Zn    0.83333   0.49999   0.55104   0.00000  Uiso   1.00
Zn1178 Zn    0.83333   0.50001   0.44896   0.00000  Uiso   1.00
N1179  N     0.98622   0.47325   0.44272   0.00000  Uiso   1.00
H1180  H     0.66947   0.44460   0.44088   0.00000  Uiso   1.00
H1181  H     0.99264   0.49128   0.41409   0.00000  Uiso   1.00
N1182  N     0.68050   0.52438   0.55815   0.00000  Uiso   1.00
H1183  H     0.67379   0.50600   0.58644   0.00000  Uiso   1.00
H1184  H     0.99782   0.55316   0.56046   0.00000  Uiso   1.00
N1185  N     0.90465   0.38463   0.45200   0.00000  Uiso   1.00
H1186  H     0.89332   0.38250   0.41698   0.00000  Uiso   1.00
H1187  H     0.94302   0.37561   0.46126   0.00000  Uiso   1.00
N1188  N     0.77309   0.62155   0.55494   0.00000  Uiso   1.00
H1189  H     0.74860   0.60135   0.53353   0.00000  Uiso   1.00
H1190  H     0.79309   0.60506   0.58248   0.00000  Uiso   1.00
C1191  C     0.90440   0.62850   0.44326   0.00000  Uiso   1.00
C1192  C     0.95338   0.61272   0.47314   0.00000  Uiso   1.00
C1193  C     0.99207   0.59761   0.44426   0.00000  Uiso   1.00
H1194  H     0.97470   0.57083   0.42375   0.00000  Uiso   1.00
H1195  H     0.67041   0.62298   0.42124   0.00000  Uiso   1.00
H1196  H     0.69422   0.58733   0.46658   0.00000  Uiso   1.00
H1197  H     0.97297   0.63819   0.49486   0.00000  Uiso   1.00
H1198  H     0.94229   0.58697   0.49582   0.00000  Uiso   1.00
H1199  H     0.88359   0.60377   0.42169   0.00000  Uiso   1.00
H1200  H     0.91704   0.65087   0.41767   0.00000  Uiso   1.00
C1201  C     0.82118   0.36688   0.58639   0.00000  Uiso   1.00
C1202  C     0.87850   0.37558   0.60818   0.00000  Uiso   1.00
C1203  C     0.88442   0.38214   0.65903   0.00000  Uiso   1.00
H1204  H     0.86634   0.41125   0.66557   0.00000  Uiso   1.00
H1205  H     0.86630   0.35520   0.34265   0.00000  Uiso   1.00
H1206  H     0.92646   0.38507   0.34011   0.00000  Uiso   1.00
H1207  H     0.90141   0.34879   0.60238   0.00000  Uiso   1.00
H1208  H     0.89628   0.40321   0.59227   0.00000  Uiso   1.00
H1209  H     0.79700   0.39397   0.58734   0.00000  Uiso   1.00
H1210  H     0.80394   0.34286   0.60790   0.00000  Uiso   1.00
C1211  C     0.91320   0.55028   0.63051   0.00000  Uiso   1.00
C1212  C     0.91897   0.59536   0.64674   0.00000  Uiso   1.00
C1213  C     0.96615   0.61808   0.63055   0.00000  Uiso   1.00
H1214  H     0.97233   0.64944   0.64540   0.00000  Uiso   1.00
H1215  H     0.66870   0.60086   0.64187   0.00000  Uiso   1.00
H1216  H     0.95977   0.62132   0.59280   0.00000  Uiso   1.00
H1217  H     0.92500   0.59670   0.35098   0.00000  Uiso   1.00
H1218  H     0.88304   0.61181   0.63326   0.00000  Uiso   1.00
H1219  H     0.95036   0.53466   0.64174   0.00000  Uiso   1.00
H1220  H     0.90691   0.55281   0.59348   0.00000  Uiso   1.00
C1221  C     0.75714   0.44592   0.36997   0.00000  Uiso   1.00
C1222  C     0.76521   0.40008   0.36202   0.00000  Uiso   1.00
C1223  C     0.72472   0.37152   0.38119   0.00000  Uiso   1.00
H1224  H     0.72805   0.37512   0.41859   0.00000  Uiso   1.00
H1225  H     0.68479   0.37883   0.36472   0.00000  Uiso   1.00
H1226  H     0.73135   0.33869   0.37443   0.00000  Uiso   1.00
H1227  H     0.76229   0.39441   0.65844   0.00000  Uiso   1.00
H1228  H     0.80435   0.39193   0.37957   0.00000  Uiso   1.00
H1229  H     0.75815   0.44824   0.40640   0.00000  Uiso   1.00
H1230  H     0.71760   0.45428   0.35313   0.00000  Uiso   1.00
C1231  C     0.16885   0.75347   0.50128   0.00000  Uiso   1.00
C1232  C     0.16747   0.91339   0.49940   0.00000  Uiso   1.00
C1233  C     0.06726   0.83296   0.48820   0.00000  Uiso   1.00
C1234  C     0.26602   0.83295   0.51188   0.00000  Uiso   1.00
C1235  C     0.01241   0.82725   0.48291   0.00000  Uiso   1.00
C1236  C     0.32090   0.83768   0.51754   0.00000  Uiso   1.00
C1237  C     0.20352   0.69153   0.47497   0.00000  Uiso   1.00
C1238  C     0.14301   0.97708   0.53006   0.00000  Uiso   1.00
C1239  C     0.20213   0.98152   0.47212   0.00000  Uiso   1.00
C1240  C     0.15342   0.68539   0.53804   0.00000  Uiso   1.00
C1241  C     0.16936   0.95791   0.49874   0.00000  Uiso   1.00
C1242  C     0.17499   0.70951   0.50476   0.00000  Uiso   1.00
C1243  C     0.20314   0.85633   0.36216   0.00000  Uiso   1.00
C1244  C     0.13057   0.80974   0.63799   0.00000  Uiso   1.00
C1245  C     0.20302   0.85758   0.64770   0.00000  Uiso   1.00
C1246  C     0.13093   0.80851   0.35247   0.00000  Uiso   1.00
H1247  H     0.23283   0.87318   0.38478   0.00000  Uiso   1.00
H1248  H     0.10160   0.79138   0.61589   0.00000  Uiso   1.00
N1249  N     0.16665   0.83332   0.61907   0.00000  Uiso   1.00
N1250  N     0.16668   0.83334   0.38093   0.00000  Uiso   1.00
O1251  O     0.16666   0.77225   0.53821   0.00000  Uiso   1.00
O1252  O     0.16667   0.89442   0.46179   0.00000  Uiso   1.00
O1253  O     0.16666   0.77226   0.46176   0.00000  Uiso   1.00
O1254  O     0.16667   0.89441   0.53824   0.00000  Uiso   1.00
O1255  O     0.09058   0.83333   0.52928   0.00000  Uiso   1.00
O1256  O     0.24275   0.83334   0.47072   0.00000  Uiso   1.00
O1257  O     0.09058   0.83334   0.45284   0.00000  Uiso   1.00
O1258  O     0.24275   0.83333   0.54716   0.00000  Uiso   1.00
Zn1259 Zn    0.16667   0.83333   0.55104   0.00000  Uiso   1.00
Zn1260 Zn    0.16667   0.83334   0.44896   0.00000  Uiso   1.00
N1261  N     0.31955   0.80658   0.44272   0.00000  Uiso   1.00
H1262  H     0.00280   0.77794   0.44088   0.00000  Uiso   1.00
H1263  H     0.32598   0.82461   0.41409   0.00000  Uiso   1.00
N1264  N     0.01383   0.85771   0.55815   0.00000  Uiso   1.00
H1265  H     0.00712   0.83933   0.58644   0.00000  Uiso   1.00
H1266  H     0.33116   0.88650   0.56046   0.00000  Uiso   1.00
N1267  N     0.23798   0.71797   0.45200   0.00000  Uiso   1.00
H1268  H     0.22665   0.71583   0.41698   0.00000  Uiso   1.00
H1269  H     0.27635   0.70895   0.46126   0.00000  Uiso   1.00
N1270  N     0.10642   0.95488   0.55494   0.00000  Uiso   1.00
H1271  H     0.08194   0.93468   0.53353   0.00000  Uiso   1.00
H1272  H     0.12642   0.93839   0.58248   0.00000  Uiso   1.00
C1273  C     0.23773   0.96184   0.44326   0.00000  Uiso   1.00
C1274  C     0.28672   0.94605   0.47314   0.00000  Uiso   1.00
C1275  C     0.32541   0.93094   0.44426   0.00000  Uiso   1.00
H1276  H     0.30804   0.90417   0.42375   0.00000  Uiso   1.00
H1277  H     0.00374   0.95632   0.42124   0.00000  Uiso   1.00
H1278  H     0.02755   0.92067   0.46658   0.00000  Uiso   1.00
H1279  H     0.30631   0.97152   0.49486   0.00000  Uiso   1.00
H1280  H     0.27562   0.92030   0.49582   0.00000  Uiso   1.00
H1281  H     0.21693   0.93710   0.42169   0.00000  Uiso   1.00
H1282  H     0.25037   0.98420   0.41767   0.00000  Uiso   1.00
C1283  C     0.15452   0.70022   0.58639   0.00000  Uiso   1.00
C1284  C     0.21184   0.70891   0.60818   0.00000  Uiso   1.00
C1285  C     0.21775   0.71547   0.65903   0.00000  Uiso   1.00
H1286  H     0.19968   0.74459   0.66557   0.00000  Uiso   1.00
H1287  H     0.19963   0.68853   0.34265   0.00000  Uiso   1.00
H1288  H     0.25979   0.71841   0.34011   0.00000  Uiso   1.00
H1289  H     0.23475   0.68212   0.60238   0.00000  Uiso   1.00
H1290  H     0.22961   0.73655   0.59227   0.00000  Uiso   1.00
H1291  H     0.13033   0.72730   0.58734   0.00000  Uiso   1.00
H1292  H     0.13728   0.67619   0.60790   0.00000  Uiso   1.00
C1293  C     0.24653   0.88361   0.63051   0.00000  Uiso   1.00
C1294  C     0.25231   0.92869   0.64674   0.00000  Uiso   1.00
C1295  C     0.29948   0.95141   0.63055   0.00000  Uiso   1.00
H1296  H     0.30567   0.98278   0.64540   0.00000  Uiso   1.00
H1297  H     0.00204   0.93419   0.64187   0.00000  Uiso   1.00
H1298  H     0.29310   0.95465   0.59280   0.00000  Uiso   1.00
H1299  H     0.25833   0.93003   0.35098   0.00000  Uiso   1.00
H1300  H     0.21637   0.94514   0.63326   0.00000  Uiso   1.00
H1301  H     0.28370   0.86800   0.64174   0.00000  Uiso   1.00
H1302  H     0.24024   0.88614   0.59348   0.00000  Uiso   1.00
C1303  C     0.09047   0.77926   0.36997   0.00000  Uiso   1.00
C1304  C     0.09854   0.73342   0.36202   0.00000  Uiso   1.00
C1305  C     0.05806   0.70485   0.38119   0.00000  Uiso   1.00
H1306  H     0.06138   0.70845   0.41859   0.00000  Uiso   1.00
H1307  H     0.01812   0.71217   0.36472   0.00000  Uiso   1.00
H1308  H     0.06469   0.67202   0.37443   0.00000  Uiso   1.00
H1309  H     0.09562   0.72774   0.65844   0.00000  Uiso   1.00
H1310  H     0.13768   0.72526   0.37957   0.00000  Uiso   1.00
H1311  H     0.09148   0.78158   0.40640   0.00000  Uiso   1.00
H1312  H     0.05093   0.78762   0.35313   0.00000  Uiso   1.00
C1313  C     0.50218   0.75347   0.50128   0.00000  Uiso   1.00
C1314  C     0.50080   0.91339   0.49940   0.00000  Uiso   1.00
C1315  C     0.40059   0.83296   0.48820   0.00000  Uiso   1.00
C1316  C     0.59935   0.83295   0.51188   0.00000  Uiso   1.00
C1317  C     0.34575   0.82725   0.48291   0.00000  Uiso   1.00
C1318  C     0.65424   0.83768   0.51754   0.00000  Uiso   1.00
C1319  C     0.53685   0.69153   0.47497   0.00000  Uiso   1.00
C1320  C     0.47634   0.97708   0.53006   0.00000  Uiso   1.00
C1321  C     0.53547   0.98152   0.47212   0.00000  Uiso   1.00
C1322  C     0.48675   0.68539   0.53804   0.00000  Uiso   1.00
C1323  C     0.50269   0.95791   0.49874   0.00000  Uiso   1.00
C1324  C     0.50832   0.70951   0.50476   0.00000  Uiso   1.00
C1325  C     0.53647   0.85633   0.36216   0.00000  Uiso   1.00
C1326  C     0.46390   0.80974   0.63799   0.00000  Uiso   1.00
C1327  C     0.53635   0.85758   0.64770   0.00000  Uiso   1.00
C1328  C     0.46426   0.80851   0.35247   0.00000  Uiso   1.00
H1329  H     0.56616   0.87318   0.38478   0.00000  Uiso   1.00
H1330  H     0.43493   0.79138   0.61589   0.00000  Uiso   1.00
N1331  N     0.49999   0.83332   0.61907   0.00000  Uiso   1.00
N1332  N     0.50001   0.83334   0.38093   0.00000  Uiso   1.00
O1333  O     0.50000   0.77225   0.53821   0.00000  Uiso   1.00
O1334  O     0.50000   0.89442   0.46179   0.00000  Uiso   1.00
O1335  O     0.50000   0.77226   0.46176   0.00000  Uiso   1.00
O1336  O     0.50000   0.89441   0.53824   0.00000  Uiso   1.00
O1337  O     0.42392   0.83333   0.52928   0.00000  Uiso   1.00
O1338  O     0.57608   0.83334   0.47072   0.00000  Uiso   1.00
O1339  O     0.42392   0.83334   0.45284   0.00000  Uiso   1.00
O1340  O     0.57608   0.83333   0.54716   0.00000  Uiso   1.00
Zn1341 Zn    0.50000   0.83333   0.55104   0.00000  Uiso   1.00
Zn1342 Zn    0.50000   0.83334   0.44896   0.00000  Uiso   1.00
N1343  N     0.65289   0.80658   0.44272   0.00000  Uiso   1.00
H1344  H     0.33614   0.77794   0.44088   0.00000  Uiso   1.00
H1345  H     0.65931   0.82461   0.41409   0.00000  Uiso   1.00
N1346  N     0.34716   0.85771   0.55815   0.00000  Uiso   1.00
H1347  H     0.34046   0.83933   0.58644   0.00000  Uiso   1.00
H1348  H     0.66449   0.88650   0.56046   0.00000  Uiso   1.00
N1349  N     0.57131   0.71797   0.45200   0.00000  Uiso   1.00
H1350  H     0.55999   0.71583   0.41698   0.00000  Uiso   1.00
H1351  H     0.60969   0.70895   0.46126   0.00000  Uiso   1.00
N1352  N     0.43975   0.95488   0.55494   0.00000  Uiso   1.00
H1353  H     0.41527   0.93468   0.53353   0.00000  Uiso   1.00
H1354  H     0.45976   0.93839   0.58248   0.00000  Uiso   1.00
C1355  C     0.57107   0.96184   0.44326   0.00000  Uiso   1.00
C1356  C     0.62005   0.94605   0.47314   0.00000  Uiso   1.00
C1357  C     0.65874   0.93094   0.44426   0.00000  Uiso   1.00
H1358  H     0.64137   0.90417   0.42375   0.00000  Uiso   1.00
H1359  H     0.33708   0.95632   0.42124   0.00000  Uiso   1.00
H1360  H     0.36088   0.92067   0.46658   0.00000  Uiso   1.00
H1361  H     0.63964   0.97152   0.49486   0.00000  Uiso   1.00
H1362  H     0.60895   0.92030   0.49582   0.00000  Uiso   1.00
H1363  H     0.55026   0.93710   0.42169   0.00000  Uiso   1.00
H1364  H     0.58371   0.98420   0.41767   0.00000  Uiso   1.00
C1365  C     0.48785   0.70022   0.58639   0.00000  Uiso   1.00
C1366  C     0.54517   0.70891   0.60818   0.00000  Uiso   1.00
C1367  C     0.55108   0.71547   0.65903   0.00000  Uiso   1.00
H1368  H     0.53301   0.74459   0.66557   0.00000  Uiso   1.00
H1369  H     0.53296   0.68853   0.34265   0.00000  Uiso   1.00
H1370  H     0.59313   0.71841   0.34011   0.00000  Uiso   1.00
H1371  H     0.56808   0.68212   0.60238   0.00000  Uiso   1.00
H1372  H     0.56294   0.73655   0.59227   0.00000  Uiso   1.00
H1373  H     0.46367   0.72730   0.58734   0.00000  Uiso   1.00
H1374  H     0.47061   0.67619   0.60790   0.00000  Uiso   1.00
C1375  C     0.57987   0.88361   0.63051   0.00000  Uiso   1.00
C1376  C     0.58564   0.92869   0.64674   0.00000  Uiso   1.00
C1377  C     0.63282   0.95141   0.63055   0.00000  Uiso   1.00
H1378  H     0.63900   0.98278   0.64540   0.00000  Uiso   1.00
H1379  H     0.33537   0.93419   0.64187   0.00000  Uiso   1.00
H1380  H     0.62643   0.95465   0.59280   0.00000  Uiso   1.00
H1381  H     0.59166   0.93003   0.35098   0.00000  Uiso   1.00
H1382  H     0.54970   0.94514   0.63326   0.00000  Uiso   1.00
H1383  H     0.61703   0.86800   0.64174   0.00000  Uiso   1.00
H1384  H     0.57358   0.88614   0.59348   0.00000  Uiso   1.00
C1385  C     0.42380   0.77926   0.36997   0.00000  Uiso   1.00
C1386  C     0.43188   0.73342   0.36202   0.00000  Uiso   1.00
C1387  C     0.39139   0.70485   0.38119   0.00000  Uiso   1.00
H1388  H     0.39472   0.70845   0.41859   0.00000  Uiso   1.00
H1389  H     0.35146   0.71217   0.36472   0.00000  Uiso   1.00
H1390  H     0.39802   0.67202   0.37443   0.00000  Uiso   1.00
H1391  H     0.42896   0.72774   0.65844   0.00000  Uiso   1.00
H1392  H     0.47102   0.72526   0.37957   0.00000  Uiso   1.00
H1393  H     0.42482   0.78158   0.40640   0.00000  Uiso   1.00
H1394  H     0.38427   0.78762   0.35313   0.00000  Uiso   1.00
C1395  C     0.83552   0.75347   0.50128   0.00000  Uiso   1.00
C1396  C     0.83414   0.91339   0.49940   0.00000  Uiso   1.00
C1397  C     0.73393   0.83296   0.48820   0.00000  Uiso   1.00
C1398  C     0.93269   0.83295   0.51188   0.00000  Uiso   1.00
C1399  C     0.67908   0.82725   0.48291   0.00000  Uiso   1.00
C1400  C     0.98757   0.83768   0.51754   0.00000  Uiso   1.00
C1401  C     0.87019   0.69153   0.47497   0.00000  Uiso   1.00
C1402  C     0.80967   0.97708   0.53006   0.00000  Uiso   1.00
C1403  C     0.86880   0.98152   0.47212   0.00000  Uiso   1.00
C1404  C     0.82009   0.68539   0.53804   0.00000  Uiso   1.00
C1405  C     0.83602   0.95791   0.49874   0.00000  Uiso   1.00
C1406  C     0.84166   0.70951   0.50476   0.00000  Uiso   1.00
C1407  C     0.86981   0.85633   0.36216   0.00000  Uiso   1.00
C1408  C     0.79724   0.80974   0.63799   0.00000  Uiso   1.00
C1409  C     0.86968   0.85758   0.64770   0.00000  Uiso   1.00
C1410  C     0.79759   0.80851   0.35247   0.00000  Uiso   1.00
H1411  H     0.89950   0.87318   0.38478   0.00000  Uiso   1.00
H1412  H     0.76827   0.79138   0.61589   0.00000  Uiso   1.00
N1413  N     0.83332   0.83332   0.61907   0.00000  Uiso   1.00
N1414  N     0.83335   0.83334   0.38093   0.00000  Uiso   1.00
O1415  O     0.83333   0.77225   0.53821   0.00000  Uiso   1.00
O1416  O     0.83334   0.89442   0.46179   0.00000  Uiso   1.00
O1417  O     0.83333   0.77226   0.46176   0.00000  Uiso   1.00
O1418  O     0.83334   0.89441   0.53824   0.00000  Uiso   1.00
O1419  O     0.75725   0.83333   0.52928   0.00000  Uiso   1.00
O1420  O     0.90942   0.83334   0.47072   0.00000  Uiso   1.00
O1421  O     0.75725   0.83334   0.45284   0.00000  Uiso   1.00
O1422  O     0.90942   0.83333   0.54716   0.00000  Uiso   1.00
Zn1423 Zn    0.83333   0.83333   0.55104   0.00000  Uiso   1.00
Zn1424 Zn    0.83333   0.83334   0.44896   0.00000  Uiso   1.00
N1425  N     0.98622   0.80658   0.44272   0.00000  Uiso   1.00
H1426  H     0.66947   0.77794   0.44088   0.00000  Uiso   1.00
H1427  H     0.99264   0.82461   0.41409   0.00000  Uiso   1.00
N1428  N     0.68050   0.85771   0.55815   0.00000  Uiso   1.00
H1429  H     0.67379   0.83933   0.58644   0.00000  Uiso   1.00
H1430  H     0.99782   0.88650   0.56046   0.00000  Uiso   1.00
N1431  N     0.90465   0.71797   0.45200   0.00000  Uiso   1.00
H1432  H     0.89332   0.71583   0.41698   0.00000  Uiso   1.00
H1433  H     0.94302   0.70895   0.46126   0.00000  Uiso   1.00
N1434  N     0.77309   0.95488   0.55494   0.00000  Uiso   1.00
H1435  H     0.74860   0.93468   0.53353   0.00000  Uiso   1.00
H1436  H     0.79309   0.93839   0.58248   0.00000  Uiso   1.00
C1437  C     0.90440   0.96184   0.44326   0.00000  Uiso   1.00
C1438  C     0.95338   0.94605   0.47314   0.00000  Uiso   1.00
C1439  C     0.99207   0.93094   0.44426   0.00000  Uiso   1.00
H1440  H     0.97470   0.90417   0.42375   0.00000  Uiso   1.00
H1441  H     0.67041   0.95632   0.42124   0.00000  Uiso   1.00
H1442  H     0.69422   0.92067   0.46658   0.00000  Uiso   1.00
H1443  H     0.97297   0.97152   0.49486   0.00000  Uiso   1.00
H1444  H     0.94229   0.92030   0.49582   0.00000  Uiso   1.00
H1445  H     0.88359   0.93710   0.42169   0.00000  Uiso   1.00
H1446  H     0.91704   0.98420   0.41767   0.00000  Uiso   1.00
C1447  C     0.82118   0.70022   0.58639   0.00000  Uiso   1.00
C1448  C     0.87850   0.70891   0.60818   0.00000  Uiso   1.00
C1449  C     0.88442   0.71547   0.65903   0.00000  Uiso   1.00
H1450  H     0.86634   0.74459   0.66557   0.00000  Uiso   1.00
H1451  H     0.86630   0.68853   0.34265   0.00000  Uiso   1.00
H1452  H     0.92646   0.71841   0.34011   0.00000  Uiso   1.00
H1453  H     0.90141   0.68212   0.60238   0.00000  Uiso   1.00
H1454  H     0.89628   0.73655   0.59227   0.00000  Uiso   1.00
H1455  H     0.79700   0.72730   0.58734   0.00000  Uiso   1.00
H1456  H     0.80394   0.67619   0.60790   0.00000  Uiso   1.00
C1457  C     0.91320   0.88361   0.63051   0.00000  Uiso   1.00
C1458  C     0.91897   0.92869   0.64674   0.00000  Uiso   1.00
C1459  C     0.96615   0.95141   0.63055   0.00000  Uiso   1.00
H1460  H     0.97233   0.98278   0.64540   0.00000  Uiso   1.00
H1461  H     0.66870   0.93419   0.64187   0.00000  Uiso   1.00
H1462  H     0.95977   0.95465   0.59280   0.00000  Uiso   1.00
H1463  H     0.92500   0.93003   0.35098   0.00000  Uiso   1.00
H1464  H     0.88304   0.94514   0.63326   0.00000  Uiso   1.00
H1465  H     0.95036   0.86800   0.64174   0.00000  Uiso   1.00
H1466  H     0.90691   0.88614   0.59348   0.00000  Uiso   1.00
C1467  C     0.75714   0.77926   0.36997   0.00000  Uiso   1.00
C1468  C     0.76521   0.73342   0.36202   0.00000  Uiso   1.00
C1469  C     0.72472   0.70485   0.38119   0.00000  Uiso   1.00
H1470  H     0.72805   0.70845   0.41859   0.00000  Uiso   1.00
H1471  H     0.68479   0.71217   0.36472   0.00000  Uiso   1.00
H1472  H     0.73135   0.67202   0.37443   0.00000  Uiso   1.00
H1473  H     0.76229   0.72774   0.65844   0.00000  Uiso   1.00
H1474  H     0.80435   0.72526   0.37957   0.00000  Uiso   1.00
H1475  H     0.75815   0.78158   0.40640   0.00000  Uiso   1.00
H1476  H     0.71760   0.78762   0.35313   0.00000  Uiso   1.00
C1477  C     0.16885   0.08681   0.83462   0.00000  Uiso   1.00
C1478  C     0.16747   0.24673   0.83273   0.00000  Uiso   1.00
C1479  C     0.06726   0.16629   0.82153   0.00000  Uiso   1.00
C1480  C     0.26602   0.16628   0.84521   0.00000  Uiso   1.00
C1481  C     0.01241   0.16058   0.81624   0.00000  Uiso   1.00
C1482  C     0.32090   0.17102   0.85088   0.00000  Uiso   1.00
C1483  C     0.20352   0.02486   0.80830   0.00000  Uiso   1.00
C1484  C     0.14301   0.31042   0.86339   0.00000  Uiso   1.00
C1485  C     0.20213   0.31486   0.80545   0.00000  Uiso   1.00
C1486  C     0.15342   0.01872   0.87137   0.00000  Uiso   1.00
C1487  C     0.16936   0.29124   0.83207   0.00000  Uiso   1.00
C1488  C     0.17499   0.04284   0.83809   0.00000  Uiso   1.00
C1489  C     0.20314   0.18966   0.69549   0.00000  Uiso   1.00
C1490  C     0.13057   0.14307   0.97132   0.00000  Uiso   1.00
C1491  C     0.20302   0.19091   0.98103   0.00000  Uiso   1.00
C1492  C     0.13093   0.14184   0.68580   0.00000  Uiso   1.00
H1493  H     0.23283   0.20651   0.71811   0.00000  Uiso   1.00
H1494  H     0.10160   0.12471   0.94922   0.00000  Uiso   1.00
N1495  N     0.16665   0.16666   0.95240   0.00000  Uiso   1.00
N1496  N     0.16668   0.16668   0.71427   0.00000  Uiso   1.00
O1497  O     0.16666   0.10558   0.87154   0.00000  Uiso   1.00
O1498  O     0.16667   0.22775   0.79513   0.00000  Uiso   1.00
O1499  O     0.16666   0.10559   0.79510   0.00000  Uiso   1.00
O1500  O     0.16667   0.22774   0.87157   0.00000  Uiso   1.00
O1501  O     0.09058   0.16666   0.86261   0.00000  Uiso   1.00
O1502  O     0.24275   0.16667   0.80405   0.00000  Uiso   1.00
O1503  O     0.09058   0.16667   0.78617   0.00000  Uiso   1.00
O1504  O     0.24275   0.16666   0.88050   0.00000  Uiso   1.00
Zn1505 Zn    0.16667   0.16666   0.88437   0.00000  Uiso   1.00
Zn1506 Zn    0.16667   0.16667   0.78229   0.00000  Uiso   1.00
N1507  N     0.31955   0.13991   0.77605   0.00000  Uiso   1.00
H1508  H     0.00280   0.11127   0.77422   0.00000  Uiso   1.00
H1509  H     0.32598   0.15794   0.74742   0.00000  Uiso   1.00
N1510  N     0.01383   0.19104   0.89148   0.00000  Uiso   1.00
H1511  H     0.00712   0.17267   0.91978   0.00000  Uiso   1.00
H1512  H     0.33116   0.21983   0.89380   0.00000  Uiso   1.00
N1513  N     0.23798   0.05130   0.78533   0.00000  Uiso   1.00
H1514  H     0.22665   0.04917   0.75031   0.00000  Uiso   1.00
H1515  H     0.27635   0.04228   0.79459   0.00000  Uiso   1.00
N1516  N     0.10642   0.28822   0.88828   0.00000  Uiso   1.00
H1517  H     0.08194   0.26801   0.86686   0.00000  Uiso   1.00
H1518  H     0.12642   0.27173   0.91581   0.00000  Uiso   1.00
C1519  C     0.23773   0.29517   0.77659   0.00000  Uiso   1.00
C1520  C     0.28672   0.27938   0.80647   0.00000  Uiso   1.00
C1521  C     0.32541   0.26427   0.77759   0.00000  Uiso   1.00
H1522  H     0.30804   0.23750   0.75709   0.00000  Uiso   1.00
H1523  H     0.00374   0.28965   0.75458   0.00000  Uiso   1.00
H1524  H     0.02755   0.25400   0.79992   0.00000  Uiso   1.00
H1525  H     0.30631   0.30486   0.82819   0.00000  Uiso   1.00
H1526  H     0.27562   0.25363   0.82915   0.00000  Uiso   1.00
H1527  H     0.21693   0.27043   0.75502   0.00000  Uiso   1.00
H1528  H     0.25037   0.31753   0.75100   0.00000  Uiso   1.00
C1529  C     0.15452   0.03355   0.91972   0.00000  Uiso   1.00
C1530  C     0.21184   0.04225   0.94151   0.00000  Uiso   1.00
C1531  C     0.21775   0.04880   0.99237   0.00000  Uiso   1.00
H1532  H     0.19968   0.07792   0.99891   0.00000  Uiso   1.00
H1533  H     0.19963   0.02186   0.67599   0.00000  Uiso   1.00
H1534  H     0.25979   0.05174   0.67344   0.00000  Uiso   1.00
H1535  H     0.23475   0.01546   0.93572   0.00000  Uiso   1.00
H1536  H     0.22961   0.06988   0.92560   0.00000  Uiso   1.00
H1537  H     0.13033   0.06064   0.92067   0.00000  Uiso   1.00
H1538  H     0.13728   0.00953   0.94123   0.00000  Uiso   1.00
C1539  C     0.24653   0.21694   0.96384   0.00000  Uiso   1.00
C1540  C     0.25231   0.26203   0.98008   0.00000  Uiso   1.00
C1541  C     0.29948   0.28475   0.96388   0.00000  Uiso   1.00
H1542  H     0.30567   0.31611   0.97874   0.00000  Uiso   1.00
H1543  H     0.00204   0.26753   0.97520   0.00000  Uiso   1.00
H1544  H     0.29310   0.28799   0.92613   0.00000  Uiso   1.00
H1545  H     0.25833   0.26336   0.68431   0.00000  Uiso   1.00
H1546  H     0.21637   0.27847   0.96659   0.00000  Uiso   1.00
H1547  H     0.28370   0.20133   0.97508   0.00000  Uiso   1.00
H1548  H     0.24024   0.21947   0.92682   0.00000  Uiso   1.00
C1549  C     0.09047   0.11259   0.70331   0.00000  Uiso   1.00
C1550  C     0.09854   0.06675   0.69535   0.00000  Uiso   1.00
C1551  C     0.05806   0.03818   0.71452   0.00000  Uiso   1.00
H1552  H     0.06138   0.04178   0.75193   0.00000  Uiso   1.00
H1553  H     0.01812   0.04550   0.69805   0.00000  Uiso   1.00
H1554  H     0.06469   0.00536   0.70777   0.00000  Uiso   1.00
H1555  H     0.09562   0.06108   0.99177   0.00000  Uiso   1.00
H1556  H     0.13768   0.05859   0.71291   0.00000  Uiso   1.00
H1557  H     0.09148   0.11491   0.73974   0.00000  Uiso   1.00
H1558  H     0.05093   0.12095   0.68646   0.00000  Uiso   1.00
C1559  C     0.50218   0.08681   0.83462   0.00000  Uiso   1.00
C1560  C     0.50080   0.24673   0.83273   0.00000  Uiso   1.00
C1561  C     0.40059   0.16629   0.82153   0.00000  Uiso   1.00
C1562  C     0.59935   0.16628   0.84521   0.00000  Uiso   1.00
C1563  C     0.34575   0.16058   0.81624   0.00000  Uiso   1.00
C1564  C     0.65424   0.17102   0.85088   0.00000  Uiso   1.00
C1565  C     0.53685   0.02486   0.80830   0.00000  Uiso   1.00
C1566  C     0.47634   0.31042   0.86339   0.00000  Uiso   1.00
C1567  C     0.53547   0.31486   0.80545   0.00000  Uiso   1.00
C1568  C     0.48675   0.01872   0.87137   0.00000  Uiso   1.00
C1569  C     0.50269   0.29124   0.83207   0.00000  Uiso   1.00
C1570  C     0.50832   0.04284   0.83809   0.00000  Uiso   1.00
C1571  C     0.53647   0.18966   0.69549   0.00000  Uiso   1.00
C1572  C     0.46390   0.14307   0.97132   0.00000  Uiso   1.00
C1573  C     0.53635   0.19091   0.98103   0.00000  Uiso   1.00
C1574  C     0.46426   0.14184   0.68580   0.00000  Uiso   1.00
H1575  H     0.56616   0.20651   0.71811   0.00000  Uiso   1.00
H1576  H     0.43493   0.12471   0.94922   0.00000  Uiso   1.00
N1577  N     0.49999   0.16666   0.95240   0.00000  Uiso   1.00
N1578  N     0.50001   0.16668   0.71427   0.00000  Uiso   1.00
O1579  O     0.50000   0.10558   0.87154   0.00000  Uiso   1.00
O1580  O     0.50000   0.22775   0.79513   0.00000  Uiso   1.00
O1581  O     0.50000   0.10559   0.79510   0.00000  Uiso   1.00
O1582  O     0.50000   0.22774   0.87157   0.00000  Uiso   1.00
O1583  O     0.42392   0.16666   0.86261   0.00000  Uiso   1.00
O1584  O     0.57608   0.16667   0.80405   0.00000  Uiso   1.00
O1585  O     0.42392   0.16667   0.78617   0.00000  Uiso   1.00
O1586  O     0.57608   0.16666   0.88050   0.00000  Uiso   1.00
Zn1587 Zn    0.50000   0.16666   0.88437   0.00000  Uiso   1.00
Zn1588 Zn    0.50000   0.16667   0.78229   0.00000  Uiso   1.00
N1589  N     0.65289   0.13991   0.77605   0.00000  Uiso   1.00
H1590  H     0.33614   0.11127   0.77422   0.00000  Uiso   1.00
H1591  H     0.65931   0.15794   0.74742   0.00000  Uiso   1.00
N1592  N     0.34716   0.19104   0.89148   0.00000  Uiso   1.00
H1593  H     0.34046   0.17267   0.91978   0.00000  Uiso   1.00
H1594  H     0.66449   0.21983   0.89380   0.00000  Uiso   1.00
N1595  N     0.57131   0.05130   0.78533   0.00000  Uiso   1.00
H1596  H     0.55999   0.04917   0.75031   0.00000  Uiso   1.00
H1597  H     0.60969   0.04228   0.79459   0.00000  Uiso   1.00
N1598  N     0.43975   0.28822   0.88828   0.00000  Uiso   1.00
H1599  H     0.41527   0.26801   0.86686   0.00000  Uiso   1.00
H1600  H     0.45976   0.27173   0.91581   0.00000  Uiso   1.00
C1601  C     0.57107   0.29517   0.77659   0.00000  Uiso   1.00
C1602  C     0.62005   0.27938   0.80647   0.00000  Uiso   1.00
C1603  C     0.65874   0.26427   0.77759   0.00000  Uiso   1.00
H1604  H     0.64137   0.23750   0.75709   0.00000  Uiso   1.00
H1605  H     0.33708   0.28965   0.75458   0.00000  Uiso   1.00
H1606  H     0.36088   0.25400   0.79992   0.00000  Uiso   1.00
H1607  H     0.63964   0.30486   0.82819   0.00000  Uiso   1.00
H1608  H     0.60895   0.25363   0.82915   0.00000  Uiso   1.00
H1609  H     0.55026   0.27043   0.75502   0.00000  Uiso   1.00
H1610  H     0.58371   0.31753   0.75100   0.00000  Uiso   1.00
C1611  C     0.48785   0.03355   0.91972   0.00000  Uiso   1.00
C1612  C     0.54517   0.04225   0.94151   0.00000  Uiso   1.00
C1613  C     0.55108   0.04880   0.99237   0.00000  Uiso   1.00
H1614  H     0.53301   0.07792   0.99891   0.00000  Uiso   1.00
H1615  H     0.53296   0.02186   0.67599   0.00000  Uiso   1.00
H1616  H     0.59313   0.05174   0.67344   0.00000  Uiso   1.00
H1617  H     0.56808   0.01546   0.93572   0.00000  Uiso   1.00
H1618  H     0.56294   0.06988   0.92560   0.00000  Uiso   1.00
H1619  H     0.46367   0.06064   0.92067   0.00000  Uiso   1.00
H1620  H     0.47061   0.00953   0.94123   0.00000  Uiso   1.00
C1621  C     0.57987   0.21694   0.96384   0.00000  Uiso   1.00
C1622  C     0.58564   0.26203   0.98008   0.00000  Uiso   1.00
C1623  C     0.63282   0.28475   0.96388   0.00000  Uiso   1.00
H1624  H     0.63900   0.31611   0.97874   0.00000  Uiso   1.00
H1625  H     0.33537   0.26753   0.97520   0.00000  Uiso   1.00
H1626  H     0.62643   0.28799   0.92613   0.00000  Uiso   1.00
H1627  H     0.59166   0.26336   0.68431   0.00000  Uiso   1.00
H1628  H     0.54970   0.27847   0.96659   0.00000  Uiso   1.00
H1629  H     0.61703   0.20133   0.97508   0.00000  Uiso   1.00
H1630  H     0.57358   0.21947   0.92682   0.00000  Uiso   1.00
C1631  C     0.42380   0.11259   0.70331   0.00000  Uiso   1.00
C1632  C     0.43188   0.06675   0.69535   0.00000  Uiso   1.00
C1633  C     0.39139   0.03818   0.71452   0.00000  Uiso   1.00
H1634  H     0.39472   0.04178   0.75193   0.00000  Uiso   1.00
H1635  H     0.35146   0.04550   0.69805   0.00000  Uiso   1.00
H1636  H     0.39802   0.00536   0.70777   0.00000  Uiso   1.00
H1637  H     0.42896   0.06108   0.99177   0.00000  Uiso   1.00
H1638  H     0.47102   0.05859   0.71291   0.00000  Uiso   1.00
H1639  H     0.42482   0.11491   0.73974   0.00000  Uiso   1.00
H1640  H     0.38427   0.12095   0.68646   0.00000  Uiso   1.00
C1641  C     0.83552   0.08681   0.83462   0.00000  Uiso   1.00
C1642  C     0.83414   0.24673   0.83273   0.00000  Uiso   1.00
C1643  C     0.73393   0.16629   0.82153   0.00000  Uiso   1.00
C1644  C     0.93269   0.16628   0.84521   0.00000  Uiso   1.00
C1645  C     0.67908   0.16058   0.81624   0.00000  Uiso   1.00
C1646  C     0.98757   0.17102   0.85088   0.00000  Uiso   1.00
C1647  C     0.87019   0.02486   0.80830   0.00000  Uiso   1.00
C1648  C     0.80967   0.31042   0.86339   0.00000  Uiso   1.00
C1649  C     0.86880   0.31486   0.80545   0.00000  Uiso   1.00
C1650  C     0.82009   0.01872   0.87137   0.00000  Uiso   1.00
C1651  C     0.83602   0.29124   0.83207   0.00000  Uiso   1.00
C1652  C     0.84166   0.04284   0.83809   0.00000  Uiso   1.00
C1653  C     0.86981   0.18966   0.69549   0.00000  Uiso   1.00
C1654  C     0.79724   0.14307   0.97132   0.00000  Uiso   1.00
C1655  C     0.86968   0.19091   0.98103   0.00000  Uiso   1.00
C1656  C     0.79759   0.14184   0.68580   0.00000  Uiso   1.00
H1657  H     0.89950   0.20651   0.71811   0.00000  Uiso   1.00
H1658  H     0.76827   0.12471   0.94922   0.00000  Uiso   1.00
N1659  N     0.83332   0.16666   0.95240   0.00000  Uiso   1.00
N1660  N     0.83335   0.16668   0.71427   0.00000  Uiso   1.00
O1661  O     0.83333   0.10558   0.87154   0.00000  Uiso   1.00
O1662  O     0.83334   0.22775   0.79513   0.00000  Uiso   1.00
O1663  O     0.83333   0.10559   0.79510   0.00000  Uiso   1.00
O1664  O     0.83334   0.22774   0.87157   0.00000  Uiso   1.00
O1665  O     0.75725   0.16666   0.86261   0.00000  Uiso   1.00
O1666  O     0.90942   0.16667   0.80405   0.00000  Uiso   1.00
O1667  O     0.75725   0.16667   0.78617   0.00000  Uiso   1.00
O1668  O     0.90942   0.16666   0.88050   0.00000  Uiso   1.00
Zn1669 Zn    0.83333   0.16666   0.88437   0.00000  Uiso   1.00
Zn1670 Zn    0.83333   0.16667   0.78229   0.00000  Uiso   1.00
N1671  N     0.98622   0.13991   0.77605   0.00000  Uiso   1.00
H1672  H     0.66947   0.11127   0.77422   0.00000  Uiso   1.00
H1673  H     0.99264   0.15794   0.74742   0.00000  Uiso   1.00
N1674  N     0.68050   0.19104   0.89148   0.00000  Uiso   1.00
H1675  H     0.67379   0.17267   0.91978   0.00000  Uiso   1.00
H1676  H     0.99782   0.21983   0.89380   0.00000  Uiso   1.00
N1677  N     0.90465   0.05130   0.78533   0.00000  Uiso   1.00
H1678  H     0.89332   0.04917   0.75031   0.00000  Uiso   1.00
H1679  H     0.94302   0.04228   0.79459   0.00000  Uiso   1.00
N1680  N     0.77309   0.28822   0.88828   0.00000  Uiso   1.00
H1681  H     0.74860   0.26801   0.86686   0.00000  Uiso   1.00
H1682  H     0.79309   0.27173   0.91581   0.00000  Uiso   1.00
C1683  C     0.90440   0.29517   0.77659   0.00000  Uiso   1.00
C1684  C     0.95338   0.27938   0.80647   0.00000  Uiso   1.00
C1685  C     0.99207   0.26427   0.77759   0.00000  Uiso   1.00
H1686  H     0.97470   0.23750   0.75709   0.00000  Uiso   1.00
H1687  H     0.67041   0.28965   0.75458   0.00000  Uiso   1.00
H1688  H     0.69422   0.25400   0.79992   0.00000  Uiso   1.00
H1689  H     0.97297   0.30486   0.82819   0.00000  Uiso   1.00
H1690  H     0.94229   0.25363   0.82915   0.00000  Uiso   1.00
H1691  H     0.88359   0.27043   0.75502   0.00000  Uiso   1.00
H1692  H     0.91704   0.31753   0.75100   0.00000  Uiso   1.00
C1693  C     0.82118   0.03355   0.91972   0.00000  Uiso   1.00
C1694  C     0.87850   0.04225   0.94151   0.00000  Uiso   1.00
C1695  C     0.88442   0.04880   0.99237   0.00000  Uiso   1.00
H1696  H     0.86634   0.07792   0.99891   0.00000  Uiso   1.00
H1697  H     0.86630   0.02186   0.67599   0.00000  Uiso   1.00
H1698  H     0.92646   0.05174   0.67344   0.00000  Uiso   1.00
H1699  H     0.90141   0.01546   0.93572   0.00000  Uiso   1.00
H1700  H     0.89628   0.06988   0.92560   0.00000  Uiso   1.00
H1701  H     0.79700   0.06064   0.92067   0.00000  Uiso   1.00
H1702  H     0.80394   0.00953   0.94123   0.00000  Uiso   1.00
C1703  C     0.91320   0.21694   0.96384   0.00000  Uiso   1.00
C1704  C     0.91897   0.26203   0.98008   0.00000  Uiso   1.00
C1705  C     0.96615   0.28475   0.96388   0.00000  Uiso   1.00
H1706  H     0.97233   0.31611   0.97874   0.00000  Uiso   1.00
H1707  H     0.66870   0.26753   0.97520   0.00000  Uiso   1.00
H1708  H     0.95977   0.28799   0.92613   0.00000  Uiso   1.00
H1709  H     0.92500   0.26336   0.68431   0.00000  Uiso   1.00
H1710  H     0.88304   0.27847   0.96659   0.00000  Uiso   1.00
H1711  H     0.95036   0.20133   0.97508   0.00000  Uiso   1.00
H1712  H     0.90691   0.21947   0.92682   0.00000  Uiso   1.00
C1713  C     0.75714   0.11259   0.70331   0.00000  Uiso   1.00
C1714  C     0.76521   0.06675   0.69535   0.00000  Uiso   1.00
C1715  C     0.72472   0.03818   0.71452   0.00000  Uiso   1.00
H1716  H     0.72805   0.04178   0.75193   0.00000  Uiso   1.00
H1717  H     0.68479   0.04550   0.69805   0.00000  Uiso   1.00
H1718  H     0.73135   0.00536   0.70777   0.00000  Uiso   1.00
H1719  H     0.76229   0.06108   0.99177   0.00000  Uiso   1.00
H1720  H     0.80435   0.05859   0.71291   0.00000  Uiso   1.00
H1721  H     0.75815   0.11491   0.73974   0.00000  Uiso   1.00
H1722  H     0.71760   0.12095   0.68646   0.00000  Uiso   1.00
C1723  C     0.16885   0.42014   0.83462   0.00000  Uiso   1.00
C1724  C     0.16747   0.58006   0.83273   0.00000  Uiso   1.00
C1725  C     0.06726   0.49963   0.82153   0.00000  Uiso   1.00
C1726  C     0.26602   0.49961   0.84521   0.00000  Uiso   1.00
C1727  C     0.01241   0.49392   0.81624   0.00000  Uiso   1.00
C1728  C     0.32090   0.50435   0.85088   0.00000  Uiso   1.00
C1729  C     0.20352   0.35819   0.80830   0.00000  Uiso   1.00
C1730  C     0.14301   0.64375   0.86339   0.00000  Uiso   1.00
C1731  C     0.20213   0.64819   0.80545   0.00000  Uiso   1.00
C1732  C     0.15342   0.35205   0.87137   0.00000  Uiso   1.00
C1733  C     0.16936   0.62458   0.83207   0.00000  Uiso   1.00
C1734  C     0.17499   0.37617   0.83809   0.00000  Uiso   1.00
C1735  C     0.20314   0.52300   0.69549   0.00000  Uiso   1.00
C1736  C     0.13057   0.47641   0.97132   0.00000  Uiso   1.00
C1737  C     0.20302   0.52424   0.98103   0.00000  Uiso   1.00
C1738  C     0.13093   0.47517   0.68580   0.00000  Uiso   1.00
H1739  H     0.23283   0.53985   0.71811   0.00000  Uiso   1.00
H1740  H     0.10160   0.45804   0.94922   0.00000  Uiso   1.00
N1741  N     0.16665   0.49999   0.95240   0.00000  Uiso   1.00
N1742  N     0.16668   0.50001   0.71427   0.00000  Uiso   1.00
O1743  O     0.16666   0.43892   0.87154   0.00000  Uiso   1.00
O1744  O     0.16667   0.56108   0.79513   0.00000  Uiso   1.00
O1745  O     0.16666   0.43893   0.79510   0.00000  Uiso   1.00
O1746  O     0.16667   0.56107   0.87157   0.00000  Uiso   1.00
O1747  O     0.09058   0.50000   0.86261   0.00000  Uiso   1.00
O1748  O     0.24275   0.50000   0.80405   0.00000  Uiso   1.00
O1749  O     0.09058   0.50000   0.78617   0.00000  Uiso   1.00
O1750  O     0.24275   0.50000   0.88050   0.00000  Uiso   1.00
Zn1751 Zn    0.16667   0.49999   0.88437   0.00000  Uiso   1.00
Zn1752 Zn    0.16667   0.50001   0.78229   0.00000  Uiso   1.00
N1753  N     0.31955   0.47325   0.77605   0.00000  Uiso   1.00
H1754  H     0.00280   0.44460   0.77422   0.00000  Uiso   1.00
H1755  H     0.32598   0.49128   0.74742   0.00000  Uiso   1.00
N1756  N     0.01383   0.52438   0.89148   0.00000  Uiso   1.00
H1757  H     0.00712   0.50600   0.91978   0.00000  Uiso   1.00
H1758  H     0.33116   0.55316   0.89380   0.00000  Uiso   1.00
N1759  N     0.23798   0.38463   0.78533   0.00000  Uiso   1.00
H1760  H     0.22665   0.38250   0.75031   0.00000  Uiso   1.00
H1761  H     0.27635   0.37561   0.79459   0.00000  Uiso   1.00
N1762  N     0.10642   0.62155   0.88828   0.00000  Uiso   1.00
H1763  H     0.08194   0.60135   0.86686   0.00000  Uiso   1.00
H1764  H     0.12642   0.60506   0.91581   0.00000  Uiso   1.00
C1765  C     0.23773   0.62850   0.77659   0.00000  Uiso   1.00
C1766  C     0.28672   0.61272   0.80647   0.00000  Uiso   1.00
C1767  C     0.32541   0.59761   0.77759   0.00000  Uiso   1.00
H1768  H     0.30804   0.57083   0.75709   0.00000  Uiso   1.00
H1769  H     0.00374   0.62298   0.75458   0.00000  Uiso   1.00
H1770  H     0.02755   0.58733   0.79992   0.00000  Uiso   1.00
H1771  H     0.30631   0.63819   0.82819   0.00000  Uiso   1.00
H1772  H     0.27562   0.58697   0.82915   0.00000  Uiso   1.00
H1773  H     0.21693   0.60377   0.75502   0.00000  Uiso   1.00
H1774  H     0.25037   0.65087   0.75100   0.00000  Uiso   1.00
C1775  C     0.15452   0.36688   0.91972   0.00000  Uiso   1.00
C1776  C     0.21184   0.37558   0.94151   0.00000  Uiso   1.00
C1777  C     0.21775   0.38214   0.99237   0.00000  Uiso   1.00
H1778  H     0.19968   0.41125   0.99891   0.00000  Uiso   1.00
H1779  H     0.19963   0.35520   0.67599   0.00000  Uiso   1.00
H1780  H     0.25979   0.38507   0.67344   0.00000  Uiso   1.00
H1781  H     0.23475   0.34879   0.93572   0.00000  Uiso   1.00
H1782  H     0.22961   0.40321   0.92560   0.00000  Uiso   1.00
H1783  H     0.13033   0.39397   0.92067   0.00000  Uiso   1.00
H1784  H     0.13728   0.34286   0.94123   0.00000  Uiso   1.00
C1785  C     0.24653   0.55028   0.96384   0.00000  Uiso   1.00
C1786  C     0.25231   0.59536   0.98008   0.00000  Uiso   1.00
C1787  C     0.29948   0.61808   0.96388   0.00000  Uiso   1.00
H1788  H     0.30567   0.64944   0.97874   0.00000  Uiso   1.00
H1789  H     0.00204   0.60086   0.97520   0.00000  Uiso   1.00
H1790  H     0.29310   0.62132   0.92613   0.00000  Uiso   1.00
H1791  H     0.25833   0.59670   0.68431   0.00000  Uiso   1.00
H1792  H     0.21637   0.61181   0.96659   0.00000  Uiso   1.00
H1793  H     0.28370   0.53466   0.97508   0.00000  Uiso   1.00
H1794  H     0.24024   0.55281   0.92682   0.00000  Uiso   1.00
C1795  C     0.09047   0.44592   0.70331   0.00000  Uiso   1.00
C1796  C     0.09854   0.40008   0.69535   0.00000  Uiso   1.00
C1797  C     0.05806   0.37152   0.71452   0.00000  Uiso   1.00
H1798  H     0.06138   0.37512   0.75193   0.00000  Uiso   1.00
H1799  H     0.01812   0.37883   0.69805   0.00000  Uiso   1.00
H1800  H     0.06469   0.33869   0.70777   0.00000  Uiso   1.00
H1801  H     0.09562   0.39441   0.99177   0.00000  Uiso   1.00
H1802  H     0.13768   0.39193   0.71291   0.00000  Uiso   1.00
H1803  H     0.09148   0.44824   0.73974   0.00000  Uiso   1.00
H1804  H     0.05093   0.45428   0.68646   0.00000  Uiso   1.00
C1805  C     0.50218   0.42014   0.83462   0.00000  Uiso   1.00
C1806  C     0.50080   0.58006   0.83273   0.00000  Uiso   1.00
C1807  C     0.40059   0.49963   0.82153   0.00000  Uiso   1.00
C1808  C     0.59935   0.49961   0.84521   0.00000  Uiso   1.00
C1809  C     0.34575   0.49392   0.81624   0.00000  Uiso   1.00
C1810  C     0.65424   0.50435   0.85088   0.00000  Uiso   1.00
C1811  C     0.53685   0.35819   0.80830   0.00000  Uiso   1.00
C1812  C     0.47634   0.64375   0.86339   0.00000  Uiso   1.00
C1813  C     0.53547   0.64819   0.80545   0.00000  Uiso   1.00
C1814  C     0.48675   0.35205   0.87137   0.00000  Uiso   1.00
C1815  C     0.50269   0.62458   0.83207   0.00000  Uiso   1.00
C1816  C     0.50832   0.37617   0.83809   0.00000  Uiso   1.00
C1817  C     0.53647   0.52300   0.69549   0.00000  Uiso   1.00
C1818  C     0.46390   0.47641   0.97132   0.00000  Uiso   1.00
C1819  C     0.53635   0.52424   0.98103   0.00000  Uiso   1.00
C1820  C     0.46426   0.47517   0.68580   0.00000  Uiso   1.00
H1821  H     0.56616   0.53985   0.71811   0.00000  Uiso   1.00
H1822  H     0.43493   0.45804   0.94922   0.00000  Uiso   1.00
N1823  N     0.49999   0.49999   0.95240   0.00000  Uiso   1.00
N1824  N     0.50001   0.50001   0.71427   0.00000  Uiso   1.00
O1825  O     0.50000   0.43892   0.87154   0.00000  Uiso   1.00
O1826  O     0.50000   0.56108   0.79513   0.00000  Uiso   1.00
O1827  O     0.50000   0.43893   0.79510   0.00000  Uiso   1.00
O1828  O     0.50000   0.56107   0.87157   0.00000  Uiso   1.00
O1829  O     0.42392   0.50000   0.86261   0.00000  Uiso   1.00
O1830  O     0.57608   0.50000   0.80405   0.00000  Uiso   1.00
O1831  O     0.42392   0.50000   0.78617   0.00000  Uiso   1.00
O1832  O     0.57608   0.50000   0.88050   0.00000  Uiso   1.00
Zn1833 Zn    0.50000   0.49999   0.88437   0.00000  Uiso   1.00
Zn1834 Zn    0.50000   0.50001   0.78229   0.00000  Uiso   1.00
N1835  N     0.65289   0.47325   0.77605   0.00000  Uiso   1.00
H1836  H     0.33614   0.44460   0.77422   0.00000  Uiso   1.00
H1837  H     0.65931   0.49128   0.74742   0.00000  Uiso   1.00
N1838  N     0.34716   0.52438   0.89148   0.00000  Uiso   1.00
H1839  H     0.34046   0.50600   0.91978   0.00000  Uiso   1.00
H1840  H     0.66449   0.55316   0.89380   0.00000  Uiso   1.00
N1841  N     0.57131   0.38463   0.78533   0.00000  Uiso   1.00
H1842  H     0.55999   0.38250   0.75031   0.00000  Uiso   1.00
H1843  H     0.60969   0.37561   0.79459   0.00000  Uiso   1.00
N1844  N     0.43975   0.62155   0.88828   0.00000  Uiso   1.00
H1845  H     0.41527   0.60135   0.86686   0.00000  Uiso   1.00
H1846  H     0.45976   0.60506   0.91581   0.00000  Uiso   1.00
C1847  C     0.57107   0.62850   0.77659   0.00000  Uiso   1.00
C1848  C     0.62005   0.61272   0.80647   0.00000  Uiso   1.00
C1849  C     0.65874   0.59761   0.77759   0.00000  Uiso   1.00
H1850  H     0.64137   0.57083   0.75709   0.00000  Uiso   1.00
H1851  H     0.33708   0.62298   0.75458   0.00000  Uiso   1.00
H1852  H     0.36088   0.58733   0.79992   0.00000  Uiso   1.00
H1853  H     0.63964   0.63819   0.82819   0.00000  Uiso   1.00
H1854  H     0.60895   0.58697   0.82915   0.00000  Uiso   1.00
H1855  H     0.55026   0.60377   0.75502   0.00000  Uiso   1.00
H1856  H     0.58371   0.65087   0.75100   0.00000  Uiso   1.00
C1857  C     0.48785   0.36688   0.91972   0.00000  Uiso   1.00
C1858  C     0.54517   0.37558   0.94151   0.00000  Uiso   1.00
C1859  C     0.55108   0.38214   0.99237   0.00000  Uiso   1.00
H1860  H     0.53301   0.41125   0.99891   0.00000  Uiso   1.00
H1861  H     0.53296   0.35520   0.67599   0.00000  Uiso   1.00
H1862  H     0.59313   0.38507   0.67344   0.00000  Uiso   1.00
H1863  H     0.56808   0.34879   0.93572   0.00000  Uiso   1.00
H1864  H     0.56294   0.40321   0.92560   0.00000  Uiso   1.00
H1865  H     0.46367   0.39397   0.92067   0.00000  Uiso   1.00
H1866  H     0.47061   0.34286   0.94123   0.00000  Uiso   1.00
C1867  C     0.57987   0.55028   0.96384   0.00000  Uiso   1.00
C1868  C     0.58564   0.59536   0.98008   0.00000  Uiso   1.00
C1869  C     0.63282   0.61808   0.96388   0.00000  Uiso   1.00
H1870  H     0.63900   0.64944   0.97874   0.00000  Uiso   1.00
H1871  H     0.33537   0.60086   0.97520   0.00000  Uiso   1.00
H1872  H     0.62643   0.62132   0.92613   0.00000  Uiso   1.00
H1873  H     0.59166   0.59670   0.68431   0.00000  Uiso   1.00
H1874  H     0.54970   0.61181   0.96659   0.00000  Uiso   1.00
H1875  H     0.61703   0.53466   0.97508   0.00000  Uiso   1.00
H1876  H     0.57358   0.55281   0.92682   0.00000  Uiso   1.00
C1877  C     0.42380   0.44592   0.70331   0.00000  Uiso   1.00
C1878  C     0.43188   0.40008   0.69535   0.00000  Uiso   1.00
C1879  C     0.39139   0.37152   0.71452   0.00000  Uiso   1.00
H1880  H     0.39472   0.37512   0.75193   0.00000  Uiso   1.00
H1881  H     0.35146   0.37883   0.69805   0.00000  Uiso   1.00
H1882  H     0.39802   0.33869   0.70777   0.00000  Uiso   1.00
H1883  H     0.42896   0.39441   0.99177   0.00000  Uiso   1.00
H1884  H     0.47102   0.39193   0.71291   0.00000  Uiso   1.00
H1885  H     0.42482   0.44824   0.73974   0.00000  Uiso   1.00
H1886  H     0.38427   0.45428   0.68646   0.00000  Uiso   1.00
C1887  C     0.83552   0.42014   0.83462   0.00000  Uiso   1.00
C1888  C     0.83414   0.58006   0.83273   0.00000  Uiso   1.00
C1889  C     0.73393   0.49963   0.82153   0.00000  Uiso   1.00
C1890  C     0.93269   0.49961   0.84521   0.00000  Uiso   1.00
C1891  C     0.67908   0.49392   0.81624   0.00000  Uiso   1.00
C1892  C     0.98757   0.50435   0.85088   0.00000  Uiso   1.00
C1893  C     0.87019   0.35819   0.80830   0.00000  Uiso   1.00
C1894  C     0.80967   0.64375   0.86339   0.00000  Uiso   1.00
C1895  C     0.86880   0.64819   0.80545   0.00000  Uiso   1.00
C1896  C     0.82009   0.35205   0.87137   0.00000  Uiso   1.00
C1897  C     0.83602   0.62458   0.83207   0.00000  Uiso   1.00
C1898  C     0.84166   0.37617   0.83809   0.00000  Uiso   1.00
C1899  C     0.86981   0.52300   0.69549   0.00000  Uiso   1.00
C1900  C     0.79724   0.47641   0.97132   0.00000  Uiso   1.00
C1901  C     0.86968   0.52424   0.98103   0.00000  Uiso   1.00
C1902  C     0.79759   0.47517   0.68580   0.00000  Uiso   1.00
H1903  H     0.89950   0.53985   0.71811   0.00000  Uiso   1.00
H1904  H     0.76827   0.45804   0.94922   0.00000  Uiso   1.00
N1905  N     0.83332   0.49999   0.95240   0.00000  Uiso   1.00
N1906  N     0.83335   0.50001   0.71427   0.00000  Uiso   1.00
O1907  O     0.83333   0.43892   0.87154   0.00000  Uiso   1.00
O1908  O     0.83334   0.56108   0.79513   0.00000  Uiso   1.00
O1909  O     0.83333   0.43893   0.79510   0.00000  Uiso   1.00
O1910  O     0.83334   0.56107   0.87157   0.00000  Uiso   1.00
O1911  O     0.75725   0.50000   0.86261   0.00000  Uiso   1.00
O1912  O     0.90942   0.50000   0.80405   0.00000  Uiso   1.00
O1913  O     0.75725   0.50000   0.78617   0.00000  Uiso   1.00
O1914  O     0.90942   0.50000   0.88050   0.00000  Uiso   1.00
Zn1915 Zn    0.83333   0.49999   0.88437   0.00000  Uiso   1.00
Zn1916 Zn    0.83333   0.50001   0.78229   0.00000  Uiso   1.00
N1917  N     0.98622   0.47325   0.77605   0.00000  Uiso   1.00
H1918  H     0.66947   0.44460   0.77422   0.00000  Uiso   1.00
H1919  H     0.99264   0.49128   0.74742   0.00000  Uiso   1.00
N1920  N     0.68050   0.52438   0.89148   0.00000  Uiso   1.00
H1921  H     0.67379   0.50600   0.91978   0.00000  Uiso   1.00
H1922  H     0.99782   0.55316   0.89380   0.00000  Uiso   1.00
N1923  N     0.90465   0.38463   0.78533   0.00000  Uiso   1.00
H1924  H     0.89332   0.38250   0.75031   0.00000  Uiso   1.00
H1925  H     0.94302   0.37561   0.79459   0.00000  Uiso   1.00
N1926  N     0.77309   0.62155   0.88828   0.00000  Uiso   1.00
H1927  H     0.74860   0.60135   0.86686   0.00000  Uiso   1.00
H1928  H     0.79309   0.60506   0.91581   0.00000  Uiso   1.00
C1929  C     0.90440   0.62850   0.77659   0.00000  Uiso   1.00
C1930  C     0.95338   0.61272   0.80647   0.00000  Uiso   1.00
C1931  C     0.99207   0.59761   0.77759   0.00000  Uiso   1.00
H1932  H     0.97470   0.57083   0.75709   0.00000  Uiso   1.00
H1933  H     0.67041   0.62298   0.75458   0.00000  Uiso   1.00
H1934  H     0.69422   0.58733   0.79992   0.00000  Uiso   1.00
H1935  H     0.97297   0.63819   0.82819   0.00000  Uiso   1.00
H1936  H     0.94229   0.58697   0.82915   0.00000  Uiso   1.00
H1937  H     0.88359   0.60377   0.75502   0.00000  Uiso   1.00
H1938  H     0.91704   0.65087   0.75100   0.00000  Uiso   1.00
C1939  C     0.82118   0.36688   0.91972   0.00000  Uiso   1.00
C1940  C     0.87850   0.37558   0.94151   0.00000  Uiso   1.00
C1941  C     0.88442   0.38214   0.99237   0.00000  Uiso   1.00
H1942  H     0.86634   0.41125   0.99891   0.00000  Uiso   1.00
H1943  H     0.86630   0.35520   0.67599   0.00000  Uiso   1.00
H1944  H     0.92646   0.38507   0.67344   0.00000  Uiso   1.00
H1945  H     0.90141   0.34879   0.93572   0.00000  Uiso   1.00
H1946  H     0.89628   0.40321   0.92560   0.00000  Uiso   1.00
H1947  H     0.79700   0.39397   0.92067   0.00000  Uiso   1.00
H1948  H     0.80394   0.34286   0.94123   0.00000  Uiso   1.00
C1949  C     0.91320   0.55028   0.96384   0.00000  Uiso   1.00
C1950  C     0.91897   0.59536   0.98008   0.00000  Uiso   1.00
C1951  C     0.96615   0.61808   0.96388   0.00000  Uiso   1.00
H1952  H     0.97233   0.64944   0.97874   0.00000  Uiso   1.00
H1953  H     0.66870   0.60086   0.97520   0.00000  Uiso   1.00
H1954  H     0.95977   0.62132   0.92613   0.00000  Uiso   1.00
H1955  H     0.92500   0.59670   0.68431   0.00000  Uiso   1.00
H1956  H     0.88304   0.61181   0.96659   0.00000  Uiso   1.00
H1957  H     0.95036   0.53466   0.97508   0.00000  Uiso   1.00
H1958  H     0.90691   0.55281   0.92682   0.00000  Uiso   1.00
C1959  C     0.75714   0.44592   0.70331   0.00000  Uiso   1.00
C1960  C     0.76521   0.40008   0.69535   0.00000  Uiso   1.00
C1961  C     0.72472   0.37152   0.71452   0.00000  Uiso   1.00
H1962  H     0.72805   0.37512   0.75193   0.00000  Uiso   1.00
H1963  H     0.68479   0.37883   0.69805   0.00000  Uiso   1.00
H1964  H     0.73135   0.33869   0.70777   0.00000  Uiso   1.00
H1965  H     0.76229   0.39441   0.99177   0.00000  Uiso   1.00
H1966  H     0.80435   0.39193   0.71291   0.00000  Uiso   1.00
H1967  H     0.75815   0.44824   0.73974   0.00000  Uiso   1.00
H1968  H     0.71760   0.45428   0.68646   0.00000  Uiso   1.00
C1969  C     0.16885   0.75347   0.83462   0.00000  Uiso   1.00
C1970  C     0.16747   0.91339   0.83273   0.00000  Uiso   1.00
C1971  C     0.06726   0.83296   0.82153   0.00000  Uiso   1.00
C1972  C     0.26602   0.83295   0.84521   0.00000  Uiso   1.00
C1973  C     0.01241   0.82725   0.81624   0.00000  Uiso   1.00
C1974  C     0.32090   0.83768   0.85088   0.00000  Uiso   1.00
C1975  C     0.20352   0.69153   0.80830   0.00000  Uiso   1.00
C1976  C     0.14301   0.97708   0.86339   0.00000  Uiso   1.00
C1977  C     0.20213   0.98152   0.80545   0.00000  Uiso   1.00
C1978  C     0.15342   0.68539   0.87137   0.00000  Uiso   1.00
C1979  C     0.16936   0.95791   0.83207   0.00000  Uiso   1.00
C1980  C     0.17499   0.70951   0.83809   0.00000  Uiso   1.00
C1981  C     0.20314   0.85633   0.69549   0.00000  Uiso   1.00
C1982  C     0.13057   0.80974   0.97132   0.00000  Uiso   1.00
C1983  C     0.20302   0.85758   0.98103   0.00000  Uiso   1.00
C1984  C     0.13093   0.80851   0.68580   0.00000  Uiso   1.00
H1985  H     0.23283   0.87318   0.71811   0.00000  Uiso   1.00
H1986  H     0.10160   0.79138   0.94922   0.00000  Uiso   1.00
N1987  N     0.16665   0.83332   0.95240   0.00000  Uiso   1.00
N1988  N     0.16668   0.83334   0.71427   0.00000  Uiso   1.00
O1989  O     0.16666   0.77225   0.87154   0.00000  Uiso   1.00
O1990  O     0.16667   0.89442   0.79513   0.00000  Uiso   1.00
O1991  O     0.16666   0.77226   0.79510   0.00000  Uiso   1.00
O1992  O     0.16667   0.89441   0.87157   0.00000  Uiso   1.00
O1993  O     0.09058   0.83333   0.86261   0.00000  Uiso   1.00
O1994  O     0.24275   0.83334   0.80405   0.00000  Uiso   1.00
O1995  O     0.09058   0.83334   0.78617   0.00000  Uiso   1.00
O1996  O     0.24275   0.83333   0.88050   0.00000  Uiso   1.00
Zn1997 Zn    0.16667   0.83333   0.88437   0.00000  Uiso   1.00
Zn1998 Zn    0.16667   0.83334   0.78229   0.00000  Uiso   1.00
N1999  N     0.31955   0.80658   0.77605   0.00000  Uiso   1.00
H2000  H     0.00280   0.77794   0.77422   0.00000  Uiso   1.00
H2001  H     0.32598   0.82461   0.74742   0.00000  Uiso   1.00
N2002  N     0.01383   0.85771   0.89148   0.00000  Uiso   1.00
H2003  H     0.00712   0.83933   0.91978   0.00000  Uiso   1.00
H2004  H     0.33116   0.88650   0.89380   0.00000  Uiso   1.00
N2005  N     0.23798   0.71797   0.78533   0.00000  Uiso   1.00
H2006  H     0.22665   0.71583   0.75031   0.00000  Uiso   1.00
H2007  H     0.27635   0.70895   0.79459   0.00000  Uiso   1.00
N2008  N     0.10642   0.95488   0.88828   0.00000  Uiso   1.00
H2009  H     0.08194   0.93468   0.86686   0.00000  Uiso   1.00
H2010  H     0.12642   0.93839   0.91581   0.00000  Uiso   1.00
C2011  C     0.23773   0.96184   0.77659   0.00000  Uiso   1.00
C2012  C     0.28672   0.94605   0.80647   0.00000  Uiso   1.00
C2013  C     0.32541   0.93094   0.77759   0.00000  Uiso   1.00
H2014  H     0.30804   0.90417   0.75709   0.00000  Uiso   1.00
H2015  H     0.00374   0.95632   0.75458   0.00000  Uiso   1.00
H2016  H     0.02755   0.92067   0.79992   0.00000  Uiso   1.00
H2017  H     0.30631   0.97152   0.82819   0.00000  Uiso   1.00
H2018  H     0.27562   0.92030   0.82915   0.00000  Uiso   1.00
H2019  H     0.21693   0.93710   0.75502   0.00000  Uiso   1.00
H2020  H     0.25037   0.98420   0.75100   0.00000  Uiso   1.00
C2021  C     0.15452   0.70022   0.91972   0.00000  Uiso   1.00
C2022  C     0.21184   0.70891   0.94151   0.00000  Uiso   1.00
C2023  C     0.21775   0.71547   0.99237   0.00000  Uiso   1.00
H2024  H     0.19968   0.74459   0.99891   0.00000  Uiso   1.00
H2025  H     0.19963   0.68853   0.67599   0.00000  Uiso   1.00
H2026  H     0.25979   0.71841   0.67344   0.00000  Uiso   1.00
H2027  H     0.23475   0.68212   0.93572   0.00000  Uiso   1.00
H2028  H     0.22961   0.73655   0.92560   0.00000  Uiso   1.00
H2029  H     0.13033   0.72730   0.92067   0.00000  Uiso   1.00
H2030  H     0.13728   0.67619   0.94123   0.00000  Uiso   1.00
C2031  C     0.24653   0.88361   0.96384   0.00000  Uiso   1.00
C2032  C     0.25231   0.92869   0.98008   0.00000  Uiso   1.00
C2033  C     0.29948   0.95141   0.96388   0.00000  Uiso   1.00
H2034  H     0.30567   0.98278   0.97874   0.00000  Uiso   1.00
H2035  H     0.00204   0.93419   0.97520   0.00000  Uiso   1.00
H2036  H     0.29310   0.95465   0.92613   0.00000  Uiso   1.00
H2037  H     0.25833   0.93003   0.68431   0.00000  Uiso   1.00
H2038  H     0.21637   0.94514   0.96659   0.00000  Uiso   1.00
H2039  H     0.28370   0.86800   0.97508   0.00000  Uiso   1.00
H2040  H     0.24024   0.88614   0.92682   0.00000  Uiso   1.00
C2041  C     0.09047   0.77926   0.70331   0.00000  Uiso   1.00
C2042  C     0.09854   0.73342   0.69535   0.00000  Uiso   1.00
C2043  C     0.05806   0.70485   0.71452   0.00000  Uiso   1.00
H2044  H     0.06138   0.70845   0.75193   0.00000  Uiso   1.00
H2045  H     0.01812   0.71217   0.69805   0.00000  Uiso   1.00
H2046  H     0.06469   0.67202   0.70777   0.00000  Uiso   1.00
H2047  H     0.09562   0.72774   0.99177   0.00000  Uiso   1.00
H2048  H     0.13768   0.72526   0.71291   0.00000  Uiso   1.00
H2049  H     0.09148   0.78158   0.73974   0.00000  Uiso   1.00
H2050  H     0.05093   0.78762   0.68646   0.00000  Uiso   1.00
C2051  C     0.50218   0.75347   0.83462   0.00000  Uiso   1.00
C2052  C     0.50080   0.91339   0.83273   0.00000  Uiso   1.00
C2053  C     0.40059   0.83296   0.82153   0.00000  Uiso   1.00
C2054  C     0.59935   0.83295   0.84521   0.00000  Uiso   1.00
C2055  C     0.34575   0.82725   0.81624   0.00000  Uiso   1.00
C2056  C     0.65424   0.83768   0.85088   0.00000  Uiso   1.00
C2057  C     0.53685   0.69153   0.80830   0.00000  Uiso   1.00
C2058  C     0.47634   0.97708   0.86339   0.00000  Uiso   1.00
C2059  C     0.53547   0.98152   0.80545   0.00000  Uiso   1.00
C2060  C     0.48675   0.68539   0.87137   0.00000  Uiso   1.00
C2061  C     0.50269   0.95791   0.83207   0.00000  Uiso   1.00
C2062  C     0.50832   0.70951   0.83809   0.00000  Uiso   1.00
C2063  C     0.53647   0.85633   0.69549   0.00000  Uiso   1.00
C2064  C     0.46390   0.80974   0.97132   0.00000  Uiso   1.00
C2065  C     0.53635   0.85758   0.98103   0.00000  Uiso   1.00
C2066  C     0.46426   0.80851   0.68580   0.00000  Uiso   1.00
H2067  H     0.56616   0.87318   0.71811   0.00000  Uiso   1.00
H2068  H     0.43493   0.79138   0.94922   0.00000  Uiso   1.00
N2069  N     0.49999   0.83332   0.95240   0.00000  Uiso   1.00
N2070  N     0.50001   0.83334   0.71427   0.00000  Uiso   1.00
O2071  O     0.50000   0.77225   0.87154   0.00000  Uiso   1.00
O2072  O     0.50000   0.89442   0.79513   0.00000  Uiso   1.00
O2073  O     0.50000   0.77226   0.79510   0.00000  Uiso   1.00
O2074  O     0.50000   0.89441   0.87157   0.00000  Uiso   1.00
O2075  O     0.42392   0.83333   0.86261   0.00000  Uiso   1.00
O2076  O     0.57608   0.83334   0.80405   0.00000  Uiso   1.00
O2077  O     0.42392   0.83334   0.78617   0.00000  Uiso   1.00
O2078  O     0.57608   0.83333   0.88050   0.00000  Uiso   1.00
Zn2079 Zn    0.50000   0.83333   0.88437   0.00000  Uiso   1.00
Zn2080 Zn    0.50000   0.83334   0.78229   0.00000  Uiso   1.00
N2081  N     0.65289   0.80658   0.77605   0.00000  Uiso   1.00
H2082  H     0.33614   0.77794   0.77422   0.00000  Uiso   1.00
H2083  H     0.65931   0.82461   0.74742   0.00000  Uiso   1.00
N2084  N     0.34716   0.85771   0.89148   0.00000  Uiso   1.00
H2085  H     0.34046   0.83933   0.91978   0.00000  Uiso   1.00
H2086  H     0.66449   0.88650   0.89380   0.00000  Uiso   1.00
N2087  N     0.57131   0.71797   0.78533   0.00000  Uiso   1.00
H2088  H     0.55999   0.71583   0.75031   0.00000  Uiso   1.00
H2089  H     0.60969   0.70895   0.79459   0.00000  Uiso   1.00
N2090  N     0.43975   0.95488   0.88828   0.00000  Uiso   1.00
H2091  H     0.41527   0.93468   0.86686   0.00000  Uiso   1.00
H2092  H     0.45976   0.93839   0.91581   0.00000  Uiso   1.00
C2093  C     0.57107   0.96184   0.77659   0.00000  Uiso   1.00
C2094  C     0.62005   0.94605   0.80647   0.00000  Uiso   1.00
C2095  C     0.65874   0.93094   0.77759   0.00000  Uiso   1.00
H2096  H     0.64137   0.90417   0.75709   0.00000  Uiso   1.00
H2097  H     0.33708   0.95632   0.75458   0.00000  Uiso   1.00
H2098  H     0.36088   0.92067   0.79992   0.00000  Uiso   1.00
H2099  H     0.63964   0.97152   0.82819   0.00000  Uiso   1.00
H2100  H     0.60895   0.92030   0.82915   0.00000  Uiso   1.00
H2101  H     0.55026   0.93710   0.75502   0.00000  Uiso   1.00
H2102  H     0.58371   0.98420   0.75100   0.00000  Uiso   1.00
C2103  C     0.48785   0.70022   0.91972   0.00000  Uiso   1.00
C2104  C     0.54517   0.70891   0.94151   0.00000  Uiso   1.00
C2105  C     0.55108   0.71547   0.99237   0.00000  Uiso   1.00
H2106  H     0.53301   0.74459   0.99891   0.00000  Uiso   1.00
H2107  H     0.53296   0.68853   0.67599   0.00000  Uiso   1.00
H2108  H     0.59313   0.71841   0.67344   0.00000  Uiso   1.00
H2109  H     0.56808   0.68212   0.93572   0.00000  Uiso   1.00
H2110  H     0.56294   0.73655   0.92560   0.00000  Uiso   1.00
H2111  H     0.46367   0.72730   0.92067   0.00000  Uiso   1.00
H2112  H     0.47061   0.67619   0.94123   0.00000  Uiso   1.00
C2113  C     0.57987   0.88361   0.96384   0.00000  Uiso   1.00
C2114  C     0.58564   0.92869   0.98008   0.00000  Uiso   1.00
C2115  C     0.63282   0.95141   0.96388   0.00000  Uiso   1.00
H2116  H     0.63900   0.98278   0.97874   0.00000  Uiso   1.00
H2117  H     0.33537   0.93419   0.97520   0.00000  Uiso   1.00
H2118  H     0.62643   0.95465   0.92613   0.00000  Uiso   1.00
H2119  H     0.59166   0.93003   0.68431   0.00000  Uiso   1.00
H2120  H     0.54970   0.94514   0.96659   0.00000  Uiso   1.00
H2121  H     0.61703   0.86800   0.97508   0.00000  Uiso   1.00
H2122  H     0.57358   0.88614   0.92682   0.00000  Uiso   1.00
C2123  C     0.42380   0.77926   0.70331   0.00000  Uiso   1.00
C2124  C     0.43188   0.73342   0.69535   0.00000  Uiso   1.00
C2125  C     0.39139   0.70485   0.71452   0.00000  Uiso   1.00
H2126  H     0.39472   0.70845   0.75193   0.00000  Uiso   1.00
H2127  H     0.35146   0.71217   0.69805   0.00000  Uiso   1.00
H2128  H     0.39802   0.67202   0.70777   0.00000  Uiso   1.00
H2129  H     0.42896   0.72774   0.99177   0.00000  Uiso   1.00
H2130  H     0.47102   0.72526   0.71291   0.00000  Uiso   1.00
H2131  H     0.42482   0.78158   0.73974   0.00000  Uiso   1.00
H2132  H     0.38427   0.78762   0.68646   0.00000  Uiso   1.00
C2133  C     0.83552   0.75347   0.83462   0.00000  Uiso   1.00
C2134  C     0.83414   0.91339   0.83273   0.00000  Uiso   1.00
C2135  C     0.73393   0.83296   0.82153   0.00000  Uiso   1.00
C2136  C     0.93269   0.83295   0.84521   0.00000  Uiso   1.00
C2137  C     0.67908   0.82725   0.81624   0.00000  Uiso   1.00
C2138  C     0.98757   0.83768   0.85088   0.00000  Uiso   1.00
C2139  C     0.87019   0.69153   0.80830   0.00000  Uiso   1.00
C2140  C     0.80967   0.97708   0.86339   0.00000  Uiso   1.00
C2141  C     0.86880   0.98152   0.80545   0.00000  Uiso   1.00
C2142  C     0.82009   0.68539   0.87137   0.00000  Uiso   1.00
C2143  C     0.83602   0.95791   0.83207   0.00000  Uiso   1.00
C2144  C     0.84166   0.70951   0.83809   0.00000  Uiso   1.00
C2145  C     0.86981   0.85633   0.69549   0.00000  Uiso   1.00
C2146  C     0.79724   0.80974   0.97132   0.00000  Uiso   1.00
C2147  C     0.86968   0.85758   0.98103   0.00000  Uiso   1.00
C2148  C     0.79759   0.80851   0.68580   0.00000  Uiso   1.00
H2149  H     0.89950   0.87318   0.71811   0.00000  Uiso   1.00
H2150  H     0.76827   0.79138   0.94922   0.00000  Uiso   1.00
N2151  N     0.83332   0.83332   0.95240   0.00000  Uiso   1.00
N2152  N     0.83335   0.83334   0.71427   0.00000  Uiso   1.00
O2153  O     0.83333   0.77225   0.87154   0.00000  Uiso   1.00
O2154  O     0.83334   0.89442   0.79513   0.00000  Uiso   1.00
O2155  O     0.83333   0.77226   0.79510   0.00000  Uiso   1.00
O2156  O     0.83334   0.89441   0.87157   0.00000  Uiso   1.00
O2157  O     0.75725   0.83333   0.86261   0.00000  Uiso   1.00
O2158  O     0.90942   0.83334   0.80405   0.00000  Uiso   1.00
O2159  O     0.75725   0.83334   0.78617   0.00000  Uiso   1.00
O2160  O     0.90942   0.83333   0.88050   0.00000  Uiso   1.00
Zn2161 Zn    0.83333   0.83333   0.88437   0.00000  Uiso   1.00
Zn2162 Zn    0.83333   0.83334   0.78229   0.00000  Uiso   1.00
N2163  N     0.98622   0.80658   0.77605   0.00000  Uiso   1.00
H2164  H     0.66947   0.77794   0.77422   0.00000  Uiso   1.00
H2165  H     0.99264   0.82461   0.74742   0.00000  Uiso   1.00
N2166  N     0.68050   0.85771   0.89148   0.00000  Uiso   1.00
H2167  H     0.67379   0.83933   0.91978   0.00000  Uiso   1.00
H2168  H     0.99782   0.88650   0.89380   0.00000  Uiso   1.00
N2169  N     0.90465   0.71797   0.78533   0.00000  Uiso   1.00
H2170  H     0.89332   0.71583   0.75031   0.00000  Uiso   1.00
H2171  H     0.94302   0.70895   0.79459   0.00000  Uiso   1.00
N2172  N     0.77309   0.95488   0.88828   0.00000  Uiso   1.00
H2173  H     0.74860   0.93468   0.86686   0.00000  Uiso   1.00
H2174  H     0.79309   0.93839   0.91581   0.00000  Uiso   1.00
C2175  C     0.90440   0.96184   0.77659   0.00000  Uiso   1.00
C2176  C     0.95338   0.94605   0.80647   0.00000  Uiso   1.00
C2177  C     0.99207   0.93094   0.77759   0.00000  Uiso   1.00
H2178  H     0.97470   0.90417   0.75709   0.00000  Uiso   1.00
H2179  H     0.67041   0.95632   0.75458   0.00000  Uiso   1.00
H2180  H     0.69422   0.92067   0.79992   0.00000  Uiso   1.00
H2181  H     0.97297   0.97152   0.82819   0.00000  Uiso   1.00
H2182  H     0.94229   0.92030   0.82915   0.00000  Uiso   1.00
H2183  H     0.88359   0.93710   0.75502   0.00000  Uiso   1.00
H2184  H     0.91704   0.98420   0.75100   0.00000  Uiso   1.00
C2185  C     0.82118   0.70022   0.91972   0.00000  Uiso   1.00
C2186  C     0.87850   0.70891   0.94151   0.00000  Uiso   1.00
C2187  C     0.88442   0.71547   0.99237   0.00000  Uiso   1.00
H2188  H     0.86634   0.74459   0.99891   0.00000  Uiso   1.00
H2189  H     0.86630   0.68853   0.67599   0.00000  Uiso   1.00
H2190  H     0.92646   0.71841   0.67344   0.00000  Uiso   1.00
H2191  H     0.90141   0.68212   0.93572   0.00000  Uiso   1.00
H2192  H     0.89628   0.73655   0.92560   0.00000  Uiso   1.00
H2193  H     0.79700   0.72730   0.92067   0.00000  Uiso   1.00
H2194  H     0.80394   0.67619   0.94123   0.00000  Uiso   1.00
C2195  C     0.91320   0.88361   0.96384   0.00000  Uiso   1.00
C2196  C     0.91897   0.92869   0.98008   0.00000  Uiso   1.00
C2197  C     0.96615   0.95141   0.96388   0.00000  Uiso   1.00
H2198  H     0.97233   0.98278   0.97874   0.00000  Uiso   1.00
H2199  H     0.66870   0.93419   0.97520   0.00000  Uiso   1.00
H2200  H     0.95977   0.95465   0.92613   0.00000  Uiso   1.00
H2201  H     0.92500   0.93003   0.68431   0.00000  Uiso   1.00
H2202  H     0.88304   0.94514   0.96659   0.00000  Uiso   1.00
H2203  H     0.95036   0.86800   0.97508   0.00000  Uiso   1.00
H2204  H     0.90691   0.88614   0.92682   0.00000  Uiso   1.00
C2205  C     0.75714   0.77926   0.70331   0.00000  Uiso   1.00
C2206  C     0.76521   0.73342   0.69535   0.00000  Uiso   1.00
C2207  C     0.72472   0.70485   0.71452   0.00000  Uiso   1.00
H2208  H     0.72805   0.70845   0.75193   0.00000  Uiso   1.00
H2209  H     0.68479   0.71217   0.69805   0.00000  Uiso   1.00
H2210  H     0.73135   0.67202   0.70777   0.00000  Uiso   1.00
H2211  H     0.76229   0.72774   0.99177   0.00000  Uiso   1.00
H2212  H     0.80435   0.72526   0.71291   0.00000  Uiso   1.00
H2213  H     0.75815   0.78158   0.73974   0.00000  Uiso   1.00
H2214  H     0.71760   0.78762   0.68646   0.00000  Uiso   1.00
loop_
_geom_bond_atom_site_label_1
_geom_bond_atom_site_label_2
_geom_bond_distance
_geom_bond_site_symmetry_2
_ccdc_geom_bond_type
C1     O21     1.281   .     A
C1     C12     1.434   .     S
C1     O23     1.300   .     A
C2     O22     1.288   .     A
C2     C11     1.433   .     S
C2     O24     1.293   .     A
C3     O25     1.276   .     A
C3     C5      1.411   .     S
C3     O27     1.293   .     A
C4     O28     1.291   .     A
C4     C6      1.409   .     S
C4     O26     1.277   .     A
C5     C170    1.358   1_455 S
C5     N195    1.443   1_455 S
C6     C87     1.358   .     S
C6     N116    1.443   .     S
C7     C12     1.398   .     A
C7     N37     1.438   .     S
C7     C501    1.401   1_545 S
C8     C11     1.414   .     A
C8     N40     1.441   .     S
C8     C256    1.376   .     S
C9     C43     1.529   .     S
C9     C11     1.427   .     A
C9     C253    1.401   .     S
C10    C53     1.525   .     S
C10    C12     1.406   .     A
C10    C500    1.376   1_545 S
C13    N20     1.350   .     A
C13    H17     1.076   .     S
C13    C1491   1.420   1_554 S
C14    H18     1.082   .     S
C14    N19     1.355   .     A
C14    C754    1.420   .     S
C15    N19     1.392   .     A
C15    C63     1.516   .     S
C15    C751    1.420   .     S
C16    C73     1.517   .     S
C16    N20     1.392   .     A
C16    C1490   1.420   1_554 S
N19    Zn29    2.023   .     S
N20    Zn30    2.023   .     S
O21    Zn29    2.017   .     S
O22    Zn30    2.017   .     S
O23    Zn30    1.994   .     S
O24    Zn29    1.994   .     S
O25    Zn29    1.980   .     S
O26    Zn30    1.980   .     S
O27    Zn30    1.997   .     S
O28    Zn29    1.997   .     S
N31    H33     1.046   .     S
N31    C87     1.443   .     S
N31    H114    1.046   .     S
H32    N195    1.046   1_455 S
N34    H35     1.046   .     S
N34    C170    1.443   1_455 S
N34    H200    1.045   1_455 S
H36    N116    1.045   .     S
N37    H38     1.040   .     S
N37    H39     1.045   .     S
N40    H42     1.045   .     S
N40    H41     1.044   .     S
C43    C44     1.533   .     S
C43    H52     1.107   .     S
C43    H51     1.103   .     S
C44    H49     1.112   .     S
C44    C45     1.527   .     S
C44    H50     1.108   .     S
C45    H46     1.107   .     S
C45    H129    1.111   .     S
C45    H130    1.107   .     S
H47    C209    1.111   1_455 S
H48    C209    1.107   1_455 S
C53    H61     1.106   .     S
C53    C54     1.542   .     S
C53    H62     1.110   .     S
C54    H60     1.109   .     S
C54    H59     1.107   .     S
C54    C55     1.516   .     S
C55    H56     1.107   .     S
C55    H795    1.111   .     S
C55    H796    1.109   .     S
H57    C1531   1.111   1_554 S
H58    C1531   1.109   1_554 S
C63    H71     1.112   .     S
C63    C64     1.538   .     S
C63    H72     1.089   .     S
C64    H70     1.111   .     S
C64    C65     1.529   .     S
C64    H807    1.105   .     S
C65    H68     1.111   .     S
C65    H66     1.110   .     S
C65    H149    1.111   .     S
H67    C229    1.111   1_455 S
H69    C1540   1.105   1_554 S
C73    C74     1.534   .     S
C73    H81     1.084   .     S
C73    H82     1.112   .     S
C74    H80     1.108   .     S
C74    C75     1.527   .     S
C74    H1555   1.109   1_554 S
C75    H76     1.111   .     S
C75    H77     1.109   .     S
C75    H78     1.111   .     S
H79    C812    1.109   .     S
C83    O103    1.281   .     A
C83    C94     1.434   .     S
C83    O105    1.300   .     A
C84    O104    1.288   .     A
C84    C93     1.433   .     S
C84    O106    1.293   .     A
C85    O107    1.276   .     A
C85    C87     1.411   .     S
C85    O109    1.293   .     A
C86    O110    1.291   .     A
C86    C88     1.409   .     S
C86    O108    1.277   .     A
C88    C169    1.358   .     S
C88    N198    1.443   .     S
C89    C94     1.398   .     A
C89    N119    1.438   .     S
C89    C583    1.401   1_545 S
C90    C93     1.414   .     A
C90    N122    1.441   .     S
C90    C338    1.376   .     S
C91    C125    1.529   .     S
C91    C93     1.427   .     A
C91    C335    1.401   .     S
C92    C135    1.525   .     S
C92    C94     1.406   .     A
C92    C582    1.376   1_545 S
C95    N102    1.350   .     A
C95    H99     1.076   .     S
C95    C1573   1.420   1_554 S
C96    H100    1.082   .     S
C96    N101    1.355   .     A
C96    C836    1.420   .     S
C97    N101    1.392   .     A
C97    C145    1.516   .     S
C97    C833    1.420   .     S
C98    C155    1.517   .     S
C98    N102    1.392   .     A
C98    C1572   1.420   1_554 S
N101   Zn111   2.023   .     S
N102   Zn112   2.023   .     S
O103   Zn111   2.017   .     S
O104   Zn112   2.017   .     S
O105   Zn112   1.994   .     S
O106   Zn111   1.994   .     S
O107   Zn111   1.980   .     S
O108   Zn112   1.980   .     S
O109   Zn112   1.997   .     S
O110   Zn111   1.997   .     S
N113   H115    1.046   .     S
N113   C169    1.443   .     S
N113   H196    1.046   .     S
N116   H117    1.046   .     S
H118   N198    1.045   .     S
N119   H120    1.040   .     S
N119   H121    1.045   .     S
N122   H124    1.045   .     S
N122   H123    1.044   .     S
C125   C126    1.533   .     S
C125   H134    1.107   .     S
C125   H133    1.103   .     S
C126   H131    1.112   .     S
C126   C127    1.527   .     S
C126   H132    1.108   .     S
C127   H128    1.107   .     S
C127   H211    1.111   .     S
C127   H212    1.107   .     S
C135   H143    1.106   .     S
C135   C136    1.542   .     S
C135   H144    1.110   .     S
C136   H142    1.109   .     S
C136   H141    1.107   .     S
C136   C137    1.516   .     S
C137   H138    1.107   .     S
C137   H877    1.111   .     S
C137   H878    1.109   .     S
H139   C1613   1.111   1_554 S
H140   C1613   1.109   1_554 S
C145   H153    1.112   .     S
C145   C146    1.538   .     S
C145   H154    1.089   .     S
C146   H152    1.111   .     S
C146   C147    1.529   .     S
C146   H889    1.105   .     S
C147   H150    1.111   .     S
C147   H148    1.110   .     S
C147   H231    1.111   .     S
H151   C1622   1.105   1_554 S
C155   C156    1.534   .     S
C155   H163    1.084   .     S
C155   H164    1.112   .     S
C156   H162    1.108   .     S
C156   C157    1.527   .     S
C156   H1637   1.109   1_554 S
C157   H158    1.111   .     S
C157   H159    1.109   .     S
C157   H160    1.111   .     S
H161   C894    1.109   .     S
C165   O185    1.281   .     A
C165   C176    1.434   .     S
C165   O187    1.300   .     A
C166   O186    1.288   .     A
C166   C175    1.433   .     S
C166   O188    1.293   .     A
C167   O189    1.276   .     A
C167   C169    1.411   .     S
C167   O191    1.293   .     A
C168   O192    1.291   .     A
C168   C170    1.409   .     S
C168   O190    1.277   .     A
C170   C5      1.358   1_655 S
C170   N34     1.443   1_655 S
C171   C176    1.398   .     A
C171   N201    1.438   .     S
C171   C665    1.401   1_545 S
C172   C175    1.414   .     A
C172   N204    1.441   .     S
C172   C420    1.376   .     S
C173   C207    1.529   .     S
C173   C175    1.427   .     A
C173   C417    1.401   .     S
C174   C217    1.525   .     S
C174   C176    1.406   .     A
C174   C664    1.376   1_545 S
C177   N184    1.350   .     A
C177   H181    1.076   .     S
C177   C1655   1.420   1_554 S
C178   H182    1.082   .     S
C178   N183    1.355   .     A
C178   C918    1.420   .     S
C179   N183    1.392   .     A
C179   C227    1.516   .     S
C179   C915    1.420   .     S
C180   C237    1.517   .     S
C180   N184    1.392   .     A
C180   C1654   1.420   1_554 S
N183   Zn193   2.023   .     S
N184   Zn194   2.023   .     S
O185   Zn193   2.017   .     S
O186   Zn194   2.017   .     S
O187   Zn194   1.994   .     S
O188   Zn193   1.994   .     S
O189   Zn193   1.980   .     S
O190   Zn194   1.980   .     S
O191   Zn194   1.997   .     S
O192   Zn193   1.997   .     S
N195   H197    1.046   .     S
N195   C5      1.443   1_655 S
N195   H32     1.046   1_655 S
N198   H199    1.046   .     S
H200   N34     1.045   1_655 S
N201   H202    1.040   .     S
N201   H203    1.045   .     S
N204   H206    1.045   .     S
N204   H205    1.044   .     S
C207   C208    1.533   .     S
C207   H216    1.107   .     S
C207   H215    1.103   .     S
C208   H213    1.112   .     S
C208   C209    1.527   .     S
C208   H214    1.108   .     S
C209   H210    1.107   .     S
C209   H47     1.111   1_655 S
C209   H48     1.107   1_655 S
C217   H225    1.106   .     S
C217   C218    1.542   .     S
C217   H226    1.110   .     S
C218   H224    1.109   .     S
C218   H223    1.107   .     S
C218   C219    1.516   .     S
C219   H220    1.107   .     S
C219   H959    1.111   .     S
C219   H960    1.109   .     S
H221   C1695   1.111   1_554 S
H222   C1695   1.109   1_554 S
C227   H235    1.112   .     S
C227   C228    1.538   .     S
C227   H236    1.089   .     S
C228   H234    1.111   .     S
C228   C229    1.529   .     S
C228   H971    1.105   .     S
C229   H232    1.111   .     S
C229   H230    1.110   .     S
C229   H67     1.111   1_655 S
H233   C1704   1.105   1_554 S
C237   C238    1.534   .     S
C237   H245    1.084   .     S
C237   H246    1.112   .     S
C238   H244    1.108   .     S
C238   C239    1.527   .     S
C238   H1719   1.109   1_554 S
C239   H240    1.111   .     S
C239   H241    1.109   .     S
C239   H242    1.111   .     S
H243   C976    1.109   .     S
C247   O267    1.281   .     A
C247   C258    1.434   .     S
C247   O269    1.300   .     A
C248   O268    1.288   .     A
C248   C257    1.433   .     S
C248   O270    1.293   .     A
C249   O271    1.276   .     A
C249   C251    1.411   .     S
C249   O273    1.293   .     A
C250   O274    1.291   .     A
C250   C252    1.409   .     S
C250   O272    1.277   .     A
C251   C416    1.358   1_455 S
C251   N441    1.443   1_455 S
C252   C333    1.358   .     S
C252   N362    1.443   .     S
C253   C258    1.398   .     A
C253   N283    1.438   .     S
C254   C257    1.414   .     A
C254   N286    1.441   .     S
C254   C502    1.376   .     S
C255   C289    1.529   .     S
C255   C257    1.427   .     A
C255   C499    1.401   .     S
C256   C299    1.525   .     S
C256   C258    1.406   .     A
C259   N266    1.350   .     A
C259   H263    1.076   .     S
C259   C1737   1.420   1_554 S
C260   H264    1.082   .     S
C260   N265    1.355   .     A
C260   C1000   1.420   .     S
C261   N265    1.392   .     A
C261   C309    1.516   .     S
C261   C997    1.420   .     S
C262   C319    1.517   .     S
C262   N266    1.392   .     A
C262   C1736   1.420   1_554 S
N265   Zn275   2.023   .     S
N266   Zn276   2.023   .     S
O267   Zn275   2.017   .     S
O268   Zn276   2.017   .     S
O269   Zn276   1.994   .     S
O270   Zn275   1.994   .     S
O271   Zn275   1.980   .     S
O272   Zn276   1.980   .     S
O273   Zn276   1.997   .     S
O274   Zn275   1.997   .     S
N277   H279    1.046   .     S
N277   C333    1.443   .     S
N277   H360    1.046   .     S
H278   N441    1.046   1_455 S
N280   H281    1.046   .     S
N280   C416    1.443   1_455 S
N280   H446    1.045   1_455 S
H282   N362    1.045   .     S
N283   H284    1.040   .     S
N283   H285    1.045   .     S
N286   H288    1.045   .     S
N286   H287    1.044   .     S
C289   C290    1.533   .     S
C289   H298    1.107   .     S
C289   H297    1.103   .     S
C290   H295    1.112   .     S
C290   C291    1.527   .     S
C290   H296    1.108   .     S
C291   H292    1.107   .     S
C291   H375    1.111   .     S
C291   H376    1.107   .     S
H293   C455    1.111   1_455 S
H294   C455    1.107   1_455 S
C299   H307    1.106   .     S
C299   C300    1.542   .     S
C299   H308    1.110   .     S
C300   H306    1.109   .     S
C300   H305    1.107   .     S
C300   C301    1.516   .     S
C301   H302    1.107   .     S
C301   H1041   1.111   .     S
C301   H1042   1.109   .     S
H303   C1777   1.111   1_554 S
H304   C1777   1.109   1_554 S
C309   H317    1.112   .     S
C309   C310    1.538   .     S
C309   H318    1.089   .     S
C310   H316    1.111   .     S
C310   C311    1.529   .     S
C310   H1053   1.105   .     S
C311   H314    1.111   .     S
C311   H312    1.110   .     S
C311   H395    1.111   .     S
H313   C475    1.111   1_455 S
H315   C1786   1.105   1_554 S
C319   C320    1.534   .     S
C319   H327    1.084   .     S
C319   H328    1.112   .     S
C320   H326    1.108   .     S
C320   C321    1.527   .     S
C320   H1801   1.109   1_554 S
C321   H322    1.111   .     S
C321   H323    1.109   .     S
C321   H324    1.111   .     S
H325   C1058   1.109   .     S
C329   O349    1.281   .     A
C329   C340    1.434   .     S
C329   O351    1.300   .     A
C330   O350    1.288   .     A
C330   C339    1.433   .     S
C330   O352    1.293   .     A
C331   O353    1.276   .     A
C331   C333    1.411   .     S
C331   O355    1.293   .     A
C332   O356    1.291   .     A
C332   C334    1.409   .     S
C332   O354    1.277   .     A
C334   C415    1.358   .     S
C334   N444    1.443   .     S
C335   C340    1.398   .     A
C335   N365    1.438   .     S
C336   C339    1.414   .     A
C336   N368    1.441   .     S
C336   C584    1.376   .     S
C337   C371    1.529   .     S
C337   C339    1.427   .     A
C337   C581    1.401   .     S
C338   C381    1.525   .     S
C338   C340    1.406   .     A
C341   N348    1.350   .     A
C341   H345    1.076   .     S
C341   C1819   1.420   1_554 S
C342   H346    1.082   .     S
C342   N347    1.355   .     A
C342   C1082   1.420   .     S
C343   N347    1.392   .     A
C343   C391    1.516   .     S
C343   C1079   1.420   .     S
C344   C401    1.517   .     S
C344   N348    1.392   .     A
C344   C1818   1.420   1_554 S
N347   Zn357   2.023   .     S
N348   Zn358   2.023   .     S
O349   Zn357   2.017   .     S
O350   Zn358   2.017   .     S
O351   Zn358   1.994   .     S
O352   Zn357   1.994   .     S
O353   Zn357   1.980   .     S
O354   Zn358   1.980   .     S
O355   Zn358   1.997   .     S
O356   Zn357   1.997   .     S
N359   H361    1.046   .     S
N359   C415    1.443   .     S
N359   H442    1.046   .     S
N362   H363    1.046   .     S
H364   N444    1.045   .     S
N365   H366    1.040   .     S
N365   H367    1.045   .     S
N368   H370    1.045   .     S
N368   H369    1.044   .     S
C371   C372    1.533   .     S
C371   H380    1.107   .     S
C371   H379    1.103   .     S
C372   H377    1.112   .     S
C372   C373    1.527   .     S
C372   H378    1.108   .     S
C373   H374    1.107   .     S
C373   H457    1.111   .     S
C373   H458    1.107   .     S
C381   H389    1.106   .     S
C381   C382    1.542   .     S
C381   H390    1.110   .     S
C382   H388    1.109   .     S
C382   H387    1.107   .     S
C382   C383    1.516   .     S
C383   H384    1.107   .     S
C383   H1123   1.111   .     S
C383   H1124   1.109   .     S
H385   C1859   1.111   1_554 S
H386   C1859   1.109   1_554 S
C391   H399    1.112   .     S
C391   C392    1.538   .     S
C391   H400    1.089   .     S
C392   H398    1.111   .     S
C392   C393    1.529   .     S
C392   H1135   1.105   .     S
C393   H396    1.111   .     S
C393   H394    1.110   .     S
C393   H477    1.111   .     S
H397   C1868   1.105   1_554 S
C401   C402    1.534   .     S
C401   H409    1.084   .     S
C401   H410    1.112   .     S
C402   H408    1.108   .     S
C402   C403    1.527   .     S
C402   H1883   1.109   1_554 S
C403   H404    1.111   .     S
C403   H405    1.109   .     S
C403   H406    1.111   .     S
H407   C1140   1.109   .     S
C411   O431    1.281   .     A
C411   C422    1.434   .     S
C411   O433    1.300   .     A
C412   O432    1.288   .     A
C412   C421    1.433   .     S
C412   O434    1.293   .     A
C413   O435    1.276   .     A
C413   C415    1.411   .     S
C413   O437    1.293   .     A
C414   O438    1.291   .     A
C414   C416    1.409   .     S
C414   O436    1.277   .     A
C416   C251    1.358   1_655 S
C416   N280    1.443   1_655 S
C417   C422    1.398   .     A
C417   N447    1.438   .     S
C418   C421    1.414   .     A
C418   N450    1.441   .     S
C418   C666    1.376   .     S
C419   C453    1.529   .     S
C419   C421    1.427   .     A
C419   C663    1.401   .     S
C420   C463    1.525   .     S
C420   C422    1.406   .     A
C423   N430    1.350   .     A
C423   H427    1.076   .     S
C423   C1901   1.420   1_554 S
C424   H428    1.082   .     S
C424   N429    1.355   .     A
C424   C1164   1.420   .     S
C425   N429    1.392   .     A
C425   C473    1.516   .     S
C425   C1161   1.420   .     S
C426   C483    1.517   .     S
C426   N430    1.392   .     A
C426   C1900   1.420   1_554 S
N429   Zn439   2.023   .     S
N430   Zn440   2.023   .     S
O431   Zn439   2.017   .     S
O432   Zn440   2.017   .     S
O433   Zn440   1.994   .     S
O434   Zn439   1.994   .     S
O435   Zn439   1.980   .     S
O436   Zn440   1.980   .     S
O437   Zn440   1.997   .     S
O438   Zn439   1.997   .     S
N441   H443    1.046   .     S
N441   C251    1.443   1_655 S
N441   H278    1.046   1_655 S
N444   H445    1.046   .     S
H446   N280    1.045   1_655 S
N447   H448    1.040   .     S
N447   H449    1.045   .     S
N450   H452    1.045   .     S
N450   H451    1.044   .     S
C453   C454    1.533   .     S
C453   H462    1.107   .     S
C453   H461    1.103   .     S
C454   H459    1.112   .     S
C454   C455    1.527   .     S
C454   H460    1.108   .     S
C455   H456    1.107   .     S
C455   H293    1.111   1_655 S
C455   H294    1.107   1_655 S
C463   H471    1.106   .     S
C463   C464    1.542   .     S
C463   H472    1.110   .     S
C464   H470    1.109   .     S
C464   H469    1.107   .     S
C464   C465    1.516   .     S
C465   H466    1.107   .     S
C465   H1205   1.111   .     S
C465   H1206   1.109   .     S
H467   C1941   1.111   1_554 S
H468   C1941   1.109   1_554 S
C473   H481    1.112   .     S
C473   C474    1.538   .     S
C473   H482    1.089   .     S
C474   H480    1.111   .     S
C474   C475    1.529   .     S
C474   H1217   1.105   .     S
C475   H478    1.111   .     S
C475   H476    1.110   .     S
C475   H313    1.111   1_655 S
H479   C1950   1.105   1_554 S
C483   C484    1.534   .     S
C483   H491    1.084   .     S
C483   H492    1.112   .     S
C484   H490    1.108   .     S
C484   C485    1.527   .     S
C484   H1965   1.109   1_554 S
C485   H486    1.111   .     S
C485   H487    1.109   .     S
C485   H488    1.111   .     S
H489   C1222   1.109   .     S
C493   O513    1.281   .     A
C493   C504    1.434   .     S
C493   O515    1.300   .     A
C494   O514    1.288   .     A
C494   C503    1.433   .     S
C494   O516    1.293   .     A
C495   O517    1.276   .     A
C495   C497    1.411   .     S
C495   O519    1.293   .     A
C496   O520    1.291   .     A
C496   C498    1.409   .     S
C496   O518    1.277   .     A
C497   C662    1.358   1_455 S
C497   N687    1.443   1_455 S
C498   C579    1.358   .     S
C498   N608    1.443   .     S
C499   C504    1.398   .     A
C499   N529    1.438   .     S
C500   C503    1.414   .     A
C500   N532    1.441   .     S
C500   C10     1.376   1_565 S
C501   C535    1.529   .     S
C501   C503    1.427   .     A
C501   C7      1.401   1_565 S
C502   C545    1.525   .     S
C502   C504    1.406   .     A
C505   N512    1.350   .     A
C505   H509    1.076   .     S
C505   C1983   1.420   1_554 S
C506   H510    1.082   .     S
C506   N511    1.355   .     A
C506   C1246   1.420   .     S
C507   N511    1.392   .     A
C507   C555    1.516   .     S
C507   C1243   1.420   .     S
C508   C565    1.517   .     S
C508   N512    1.392   .     A
C508   C1982   1.420   1_554 S
N511   Zn521   2.023   .     S
N512   Zn522   2.023   .     S
O513   Zn521   2.017   .     S
O514   Zn522   2.017   .     S
O515   Zn522   1.994   .     S
O516   Zn521   1.994   .     S
O517   Zn521   1.980   .     S
O518   Zn522   1.980   .     S
O519   Zn522   1.997   .     S
O520   Zn521   1.997   .     S
N523   H525    1.046   .     S
N523   C579    1.443   .     S
N523   H606    1.046   .     S
H524   N687    1.046   1_455 S
N526   H527    1.046   .     S
N526   C662    1.443   1_455 S
N526   H692    1.045   1_455 S
H528   N608    1.045   .     S
N529   H530    1.040   .     S
N529   H531    1.045   .     S
N532   H534    1.045   .     S
N532   H533    1.044   .     S
C535   C536    1.533   .     S
C535   H544    1.107   .     S
C535   H543    1.103   .     S
C536   H541    1.112   .     S
C536   C537    1.527   .     S
C536   H542    1.108   .     S
C537   H538    1.107   .     S
C537   H621    1.111   .     S
C537   H622    1.107   .     S
H539   C701    1.111   1_455 S
H540   C701    1.107   1_455 S
C545   H553    1.106   .     S
C545   C546    1.542   .     S
C545   H554    1.110   .     S
C546   H552    1.109   .     S
C546   H551    1.107   .     S
C546   C547    1.516   .     S
C547   H548    1.107   .     S
C547   H1287   1.111   .     S
C547   H1288   1.109   .     S
H549   C2023   1.111   1_554 S
H550   C2023   1.109   1_554 S
C555   H563    1.112   .     S
C555   C556    1.538   .     S
C555   H564    1.089   .     S
C556   H562    1.111   .     S
C556   C557    1.529   .     S
C556   H1299   1.105   .     S
C557   H560    1.111   .     S
C557   H558    1.110   .     S
C557   H641    1.111   .     S
H559   C721    1.111   1_455 S
H561   C2032   1.105   1_554 S
C565   C566    1.534   .     S
C565   H573    1.084   .     S
C565   H574    1.112   .     S
C566   H572    1.108   .     S
C566   C567    1.527   .     S
C566   H2047   1.109   1_554 S
C567   H568    1.111   .     S
C567   H569    1.109   .     S
C567   H570    1.111   .     S
H571   C1304   1.109   .     S
C575   O595    1.281   .     A
C575   C586    1.434   .     S
C575   O597    1.300   .     A
C576   O596    1.288   .     A
C576   C585    1.433   .     S
C576   O598    1.293   .     A
C577   O599    1.276   .     A
C577   C579    1.411   .     S
C577   O601    1.293   .     A
C578   O602    1.291   .     A
C578   C580    1.409   .     S
C578   O600    1.277   .     A
C580   C661    1.358   .     S
C580   N690    1.443   .     S
C581   C586    1.398   .     A
C581   N611    1.438   .     S
C582   C585    1.414   .     A
C582   N614    1.441   .     S
C582   C92     1.376   1_565 S
C583   C617    1.529   .     S
C583   C585    1.427   .     A
C583   C89     1.401   1_565 S
C584   C627    1.525   .     S
C584   C586    1.406   .     A
C587   N594    1.350   .     A
C587   H591    1.076   .     S
C587   C2065   1.420   1_554 S
C588   H592    1.082   .     S
C588   N593    1.355   .     A
C588   C1328   1.420   .     S
C589   N593    1.392   .     A
C589   C637    1.516   .     S
C589   C1325   1.420   .     S
C590   C647    1.517   .     S
C590   N594    1.392   .     A
C590   C2064   1.420   1_554 S
N593   Zn603   2.023   .     S
N594   Zn604   2.023   .     S
O595   Zn603   2.017   .     S
O596   Zn604   2.017   .     S
O597   Zn604   1.994   .     S
O598   Zn603   1.994   .     S
O599   Zn603   1.980   .     S
O600   Zn604   1.980   .     S
O601   Zn604   1.997   .     S
O602   Zn603   1.997   .     S
N605   H607    1.046   .     S
N605   C661    1.443   .     S
N605   H688    1.046   .     S
N608   H609    1.046   .     S
H610   N690    1.045   .     S
N611   H612    1.040   .     S
N611   H613    1.045   .     S
N614   H616    1.045   .     S
N614   H615    1.044   .     S
C617   C618    1.533   .     S
C617   H626    1.107   .     S
C617   H625    1.103   .     S
C618   H623    1.112   .     S
C618   C619    1.527   .     S
C618   H624    1.108   .     S
C619   H620    1.107   .     S
C619   H703    1.111   .     S
C619   H704    1.107   .     S
C627   H635    1.106   .     S
C627   C628    1.542   .     S
C627   H636    1.110   .     S
C628   H634    1.109   .     S
C628   H633    1.107   .     S
C628   C629    1.516   .     S
C629   H630    1.107   .     S
C629   H1369   1.111   .     S
C629   H1370   1.109   .     S
H631   C2105   1.111   1_554 S
H632   C2105   1.109   1_554 S
C637   H645    1.112   .     S
C637   C638    1.538   .     S
C637   H646    1.089   .     S
C638   H644    1.111   .     S
C638   C639    1.529   .     S
C638   H1381   1.105   .     S
C639   H642    1.111   .     S
C639   H640    1.110   .     S
C639   H723    1.111   .     S
H643   C2114   1.105   1_554 S
C647   C648    1.534   .     S
C647   H655    1.084   .     S
C647   H656    1.112   .     S
C648   H654    1.108   .     S
C648   C649    1.527   .     S
C648   H2129   1.109   1_554 S
C649   H650    1.111   .     S
C649   H651    1.109   .     S
C649   H652    1.111   .     S
H653   C1386   1.109   .     S
C657   O677    1.281   .     A
C657   C668    1.434   .     S
C657   O679    1.300   .     A
C658   O678    1.288   .     A
C658   C667    1.433   .     S
C658   O680    1.293   .     A
C659   O681    1.276   .     A
C659   C661    1.411   .     S
C659   O683    1.293   .     A
C660   O684    1.291   .     A
C660   C662    1.409   .     S
C660   O682    1.277   .     A
C662   C497    1.358   1_655 S
C662   N526    1.443   1_655 S
C663   C668    1.398   .     A
C663   N693    1.438   .     S
C664   C667    1.414   .     A
C664   N696    1.441   .     S
C664   C174    1.376   1_565 S
C665   C699    1.529   .     S
C665   C667    1.427   .     A
C665   C171    1.401   1_565 S
C666   C709    1.525   .     S
C666   C668    1.406   .     A
C669   N676    1.350   .     A
C669   H673    1.076   .     S
C669   C2147   1.420   1_554 S
C670   H674    1.082   .     S
C670   N675    1.355   .     A
C670   C1410   1.420   .     S
C671   N675    1.392   .     A
C671   C719    1.516   .     S
C671   C1407   1.420   .     S
C672   C729    1.517   .     S
C672   N676    1.392   .     A
C672   C2146   1.420   1_554 S
N675   Zn685   2.023   .     S
N676   Zn686   2.023   .     S
O677   Zn685   2.017   .     S
O678   Zn686   2.017   .     S
O679   Zn686   1.994   .     S
O680   Zn685   1.994   .     S
O681   Zn685   1.980   .     S
O682   Zn686   1.980   .     S
O683   Zn686   1.997   .     S
O684   Zn685   1.997   .     S
N687   H689    1.046   .     S
N687   C497    1.443   1_655 S
N687   H524    1.046   1_655 S
N690   H691    1.046   .     S
H692   N526    1.045   1_655 S
N693   H694    1.040   .     S
N693   H695    1.045   .     S
N696   H698    1.045   .     S
N696   H697    1.044   .     S
C699   C700    1.533   .     S
C699   H708    1.107   .     S
C699   H707    1.103   .     S
C700   H705    1.112   .     S
C700   C701    1.527   .     S
C700   H706    1.108   .     S
C701   H702    1.107   .     S
C701   H539    1.111   1_655 S
C701   H540    1.107   1_655 S
C709   H717    1.106   .     S
C709   C710    1.542   .     S
C709   H718    1.110   .     S
C710   H716    1.109   .     S
C710   H715    1.107   .     S
C710   C711    1.516   .     S
C711   H712    1.107   .     S
C711   H1451   1.111   .     S
C711   H1452   1.109   .     S
H713   C2187   1.111   1_554 S
H714   C2187   1.109   1_554 S
C719   H727    1.112   .     S
C719   C720    1.538   .     S
C719   H728    1.089   .     S
C720   H726    1.111   .     S
C720   C721    1.529   .     S
C720   H1463   1.105   .     S
C721   H724    1.111   .     S
C721   H722    1.110   .     S
C721   H559    1.111   1_655 S
H725   C2196   1.105   1_554 S
C729   C730    1.534   .     S
C729   H737    1.084   .     S
C729   H738    1.112   .     S
C730   H736    1.108   .     S
C730   C731    1.527   .     S
C730   H2211   1.109   1_554 S
C731   H732    1.111   .     S
C731   H733    1.109   .     S
C731   H734    1.111   .     S
H735   C1468   1.109   .     S
C739   O759    1.281   .     A
C739   C750    1.434   .     S
C739   O761    1.300   .     A
C740   O760    1.288   .     A
C740   C749    1.433   .     S
C740   O762    1.293   .     A
C741   O763    1.276   .     A
C741   C743    1.411   .     S
C741   O765    1.293   .     A
C742   O766    1.291   .     A
C742   C744    1.409   .     S
C742   O764    1.277   .     A
C743   C908    1.358   1_455 S
C743   N933    1.443   1_455 S
C744   C825    1.358   .     S
C744   N854    1.443   .     S
C745   C750    1.398   .     A
C745   N775    1.438   .     S
C745   C1239   1.401   1_545 S
C746   C749    1.414   .     A
C746   N778    1.441   .     S
C746   C994    1.376   .     S
C747   C781    1.529   .     S
C747   C749    1.427   .     A
C747   C991    1.401   .     S
C748   C791    1.525   .     S
C748   C750    1.406   .     A
C748   C1238   1.376   1_545 S
C751   N758    1.350   .     A
C751   H755    1.076   .     S
C752   H756    1.082   .     S
C752   N757    1.355   .     A
C752   C1492   1.420   .     S
C753   N757    1.392   .     A
C753   C801    1.516   .     S
C753   C1489   1.420   .     S
C754   C811    1.517   .     S
C754   N758    1.392   .     A
N757   Zn767   2.023   .     S
N758   Zn768   2.023   .     S
O759   Zn767   2.017   .     S
O760   Zn768   2.017   .     S
O761   Zn768   1.994   .     S
O762   Zn767   1.994   .     S
O763   Zn767   1.980   .     S
O764   Zn768   1.980   .     S
O765   Zn768   1.997   .     S
O766   Zn767   1.997   .     S
N769   H771    1.046   .     S
N769   C825    1.443   .     S
N769   H852    1.046   .     S
H770   N933    1.046   1_455 S
N772   H773    1.046   .     S
N772   C908    1.443   1_455 S
N772   H938    1.045   1_455 S
H774   N854    1.045   .     S
N775   H776    1.040   .     S
N775   H777    1.045   .     S
N778   H780    1.045   .     S
N778   H779    1.044   .     S
C781   C782    1.533   .     S
C781   H790    1.107   .     S
C781   H789    1.103   .     S
C782   H787    1.112   .     S
C782   C783    1.527   .     S
C782   H788    1.108   .     S
C783   H784    1.107   .     S
C783   H867    1.111   .     S
C783   H868    1.107   .     S
H785   C947    1.111   1_455 S
H786   C947    1.107   1_455 S
C791   H799    1.106   .     S
C791   C792    1.542   .     S
C791   H800    1.110   .     S
C792   H798    1.109   .     S
C792   H797    1.107   .     S
C792   C793    1.516   .     S
C793   H794    1.107   .     S
C793   H1533   1.111   .     S
C793   H1534   1.109   .     S
C801   H809    1.112   .     S
C801   C802    1.538   .     S
C801   H810    1.089   .     S
C802   H808    1.111   .     S
C802   C803    1.529   .     S
C802   H1545   1.105   .     S
C803   H806    1.111   .     S
C803   H804    1.110   .     S
C803   H887    1.111   .     S
H805   C967    1.111   1_455 S
C811   C812    1.534   .     S
C811   H819    1.084   .     S
C811   H820    1.112   .     S
C812   H818    1.108   .     S
C812   C813    1.527   .     S
C813   H814    1.111   .     S
C813   H815    1.109   .     S
C813   H816    1.111   .     S
H817   C1550   1.109   .     S
C821   O841    1.281   .     A
C821   C832    1.434   .     S
C821   O843    1.300   .     A
C822   O842    1.288   .     A
C822   C831    1.433   .     S
C822   O844    1.293   .     A
C823   O845    1.276   .     A
C823   C825    1.411   .     S
C823   O847    1.293   .     A
C824   O848    1.291   .     A
C824   C826    1.409   .     S
C824   O846    1.277   .     A
C826   C907    1.358   .     S
C826   N936    1.443   .     S
C827   C832    1.398   .     A
C827   N857    1.438   .     S
C827   C1321   1.401   1_545 S
C828   C831    1.414   .     A
C828   N860    1.441   .     S
C828   C1076   1.376   .     S
C829   C863    1.529   .     S
C829   C831    1.427   .     A
C829   C1073   1.401   .     S
C830   C873    1.525   .     S
C830   C832    1.406   .     A
C830   C1320   1.376   1_545 S
C833   N840    1.350   .     A
C833   H837    1.076   .     S
C834   H838    1.082   .     S
C834   N839    1.355   .     A
C834   C1574   1.420   .     S
C835   N839    1.392   .     A
C835   C883    1.516   .     S
C835   C1571   1.420   .     S
C836   C893    1.517   .     S
C836   N840    1.392   .     A
N839   Zn849   2.023   .     S
N840   Zn850   2.023   .     S
O841   Zn849   2.017   .     S
O842   Zn850   2.017   .     S
O843   Zn850   1.994   .     S
O844   Zn849   1.994   .     S
O845   Zn849   1.980   .     S
O846   Zn850   1.980   .     S
O847   Zn850   1.997   .     S
O848   Zn849   1.997   .     S
N851   H853    1.046   .     S
N851   C907    1.443   .     S
N851   H934    1.046   .     S
N854   H855    1.046   .     S
H856   N936    1.045   .     S
N857   H858    1.040   .     S
N857   H859    1.045   .     S
N860   H862    1.045   .     S
N860   H861    1.044   .     S
C863   C864    1.533   .     S
C863   H872    1.107   .     S
C863   H871    1.103   .     S
C864   H869    1.112   .     S
C864   C865    1.527   .     S
C864   H870    1.108   .     S
C865   H866    1.107   .     S
C865   H949    1.111   .     S
C865   H950    1.107   .     S
C873   H881    1.106   .     S
C873   C874    1.542   .     S
C873   H882    1.110   .     S
C874   H880    1.109   .     S
C874   H879    1.107   .     S
C874   C875    1.516   .     S
C875   H876    1.107   .     S
C875   H1615   1.111   .     S
C875   H1616   1.109   .     S
C883   H891    1.112   .     S
C883   C884    1.538   .     S
C883   H892    1.089   .     S
C884   H890    1.111   .     S
C884   C885    1.529   .     S
C884   H1627   1.105   .     S
C885   H888    1.111   .     S
C885   H886    1.110   .     S
C885   H969    1.111   .     S
C893   C894    1.534   .     S
C893   H901    1.084   .     S
C893   H902    1.112   .     S
C894   H900    1.108   .     S
C894   C895    1.527   .     S
C895   H896    1.111   .     S
C895   H897    1.109   .     S
C895   H898    1.111   .     S
H899   C1632   1.109   .     S
C903   O923    1.281   .     A
C903   C914    1.434   .     S
C903   O925    1.300   .     A
C904   O924    1.288   .     A
C904   C913    1.433   .     S
C904   O926    1.293   .     A
C905   O927    1.276   .     A
C905   C907    1.411   .     S
C905   O929    1.293   .     A
C906   O930    1.291   .     A
C906   C908    1.409   .     S
C906   O928    1.277   .     A
C908   C743    1.358   1_655 S
C908   N772    1.443   1_655 S
C909   C914    1.398   .     A
C909   N939    1.438   .     S
C909   C1403   1.401   1_545 S
C910   C913    1.414   .     A
C910   N942    1.441   .     S
C910   C1158   1.376   .     S
C911   C945    1.529   .     S
C911   C913    1.427   .     A
C911   C1155   1.401   .     S
C912   C955    1.525   .     S
C912   C914    1.406   .     A
C912   C1402   1.376   1_545 S
C915   N922    1.350   .     A
C915   H919    1.076   .     S
C916   H920    1.082   .     S
C916   N921    1.355   .     A
C916   C1656   1.420   .     S
C917   N921    1.392   .     A
C917   C965    1.516   .     S
C917   C1653   1.420   .     S
C918   C975    1.517   .     S
C918   N922    1.392   .     A
N921   Zn931   2.023   .     S
N922   Zn932   2.023   .     S
O923   Zn931   2.017   .     S
O924   Zn932   2.017   .     S
O925   Zn932   1.994   .     S
O926   Zn931   1.994   .     S
O927   Zn931   1.980   .     S
O928   Zn932   1.980   .     S
O929   Zn932   1.997   .     S
O930   Zn931   1.997   .     S
N933   H935    1.046   .     S
N933   C743    1.443   1_655 S
N933   H770    1.046   1_655 S
N936   H937    1.046   .     S
H938   N772    1.045   1_655 S
N939   H940    1.040   .     S
N939   H941    1.045   .     S
N942   H944    1.045   .     S
N942   H943    1.044   .     S
C945   C946    1.533   .     S
C945   H954    1.107   .     S
C945   H953    1.103   .     S
C946   H951    1.112   .     S
C946   C947    1.527   .     S
C946   H952    1.108   .     S
C947   H948    1.107   .     S
C947   H785    1.111   1_655 S
C947   H786    1.107   1_655 S
C955   H963    1.106   .     S
C955   C956    1.542   .     S
C955   H964    1.110   .     S
C956   H962    1.109   .     S
C956   H961    1.107   .     S
C956   C957    1.516   .     S
C957   H958    1.107   .     S
C957   H1697   1.111   .     S
C957   H1698   1.109   .     S
C965   H973    1.112   .     S
C965   C966    1.538   .     S
C965   H974    1.089   .     S
C966   H972    1.111   .     S
C966   C967    1.529   .     S
C966   H1709   1.105   .     S
C967   H970    1.111   .     S
C967   H968    1.110   .     S
C967   H805    1.111   1_655 S
C975   C976    1.534   .     S
C975   H983    1.084   .     S
C975   H984    1.112   .     S
C976   H982    1.108   .     S
C976   C977    1.527   .     S
C977   H978    1.111   .     S
C977   H979    1.109   .     S
C977   H980    1.111   .     S
H981   C1714   1.109   .     S
C985   O1005   1.281   .     A
C985   C996    1.434   .     S
C985   O1007   1.300   .     A
C986   O1006   1.288   .     A
C986   C995    1.433   .     S
C986   O1008   1.293   .     A
C987   O1009   1.276   .     A
C987   C989    1.411   .     S
C987   O1011   1.293   .     A
C988   O1012   1.291   .     A
C988   C990    1.409   .     S
C988   O1010   1.277   .     A
C989   C1154   1.358   1_455 S
C989   N1179   1.443   1_455 S
C990   C1071   1.358   .     S
C990   N1100   1.443   .     S
C991   C996    1.398   .     A
C991   N1021   1.438   .     S
C992   C995    1.414   .     A
C992   N1024   1.441   .     S
C992   C1240   1.376   .     S
C993   C1027   1.529   .     S
C993   C995    1.427   .     A
C993   C1237   1.401   .     S
C994   C1037   1.525   .     S
C994   C996    1.406   .     A
C997   N1004   1.350   .     A
C997   H1001   1.076   .     S
C998   H1002   1.082   .     S
C998   N1003   1.355   .     A
C998   C1738   1.420   .     S
C999   N1003   1.392   .     A
C999   C1047   1.516   .     S
C999   C1735   1.420   .     S
C1000  C1057   1.517   .     S
C1000  N1004   1.392   .     A
N1003  Zn1013  2.023   .     S
N1004  Zn1014  2.023   .     S
O1005  Zn1013  2.017   .     S
O1006  Zn1014  2.017   .     S
O1007  Zn1014  1.994   .     S
O1008  Zn1013  1.994   .     S
O1009  Zn1013  1.980   .     S
O1010  Zn1014  1.980   .     S
O1011  Zn1014  1.997   .     S
O1012  Zn1013  1.997   .     S
N1015  H1017   1.046   .     S
N1015  C1071   1.443   .     S
N1015  H1098   1.046   .     S
H1016  N1179   1.046   1_455 S
N1018  H1019   1.046   .     S
N1018  C1154   1.443   1_455 S
N1018  H1184   1.045   1_455 S
H1020  N1100   1.045   .     S
N1021  H1022   1.040   .     S
N1021  H1023   1.045   .     S
N1024  H1026   1.045   .     S
N1024  H1025   1.044   .     S
C1027  C1028   1.533   .     S
C1027  H1036   1.107   .     S
C1027  H1035   1.103   .     S
C1028  H1033   1.112   .     S
C1028  C1029   1.527   .     S
C1028  H1034   1.108   .     S
C1029  H1030   1.107   .     S
C1029  H1113   1.111   .     S
C1029  H1114   1.107   .     S
H1031  C1193   1.111   1_455 S
H1032  C1193   1.107   1_455 S
C1037  H1045   1.106   .     S
C1037  C1038   1.542   .     S
C1037  H1046   1.110   .     S
C1038  H1044   1.109   .     S
C1038  H1043   1.107   .     S
C1038  C1039   1.516   .     S
C1039  H1040   1.107   .     S
C1039  H1779   1.111   .     S
C1039  H1780   1.109   .     S
C1047  H1055   1.112   .     S
C1047  C1048   1.538   .     S
C1047  H1056   1.089   .     S
C1048  H1054   1.111   .     S
C1048  C1049   1.529   .     S
C1048  H1791   1.105   .     S
C1049  H1052   1.111   .     S
C1049  H1050   1.110   .     S
C1049  H1133   1.111   .     S
H1051  C1213   1.111   1_455 S
C1057  C1058   1.534   .     S
C1057  H1065   1.084   .     S
C1057  H1066   1.112   .     S
C1058  H1064   1.108   .     S
C1058  C1059   1.527   .     S
C1059  H1060   1.111   .     S
C1059  H1061   1.109   .     S
C1059  H1062   1.111   .     S
H1063  C1796   1.109   .     S
C1067  O1087   1.281   .     A
C1067  C1078   1.434   .     S
C1067  O1089   1.300   .     A
C1068  O1088   1.288   .     A
C1068  C1077   1.433   .     S
C1068  O1090   1.293   .     A
C1069  O1091   1.276   .     A
C1069  C1071   1.411   .     S
C1069  O1093   1.293   .     A
C1070  O1094   1.291   .     A
C1070  C1072   1.409   .     S
C1070  O1092   1.277   .     A
C1072  C1153   1.358   .     S
C1072  N1182   1.443   .     S
C1073  C1078   1.398   .     A
C1073  N1103   1.438   .     S
C1074  C1077   1.414   .     A
C1074  N1106   1.441   .     S
C1074  C1322   1.376   .     S
C1075  C1109   1.529   .     S
C1075  C1077   1.427   .     A
C1075  C1319   1.401   .     S
C1076  C1119   1.525   .     S
C1076  C1078   1.406   .     A
C1079  N1086   1.350   .     A
C1079  H1083   1.076   .     S
C1080  H1084   1.082   .     S
C1080  N1085   1.355   .     A
C1080  C1820   1.420   .     S
C1081  N1085   1.392   .     A
C1081  C1129   1.516   .     S
C1081  C1817   1.420   .     S
C1082  C1139   1.517   .     S
C1082  N1086   1.392   .     A
N1085  Zn1095  2.023   .     S
N1086  Zn1096  2.023   .     S
O1087  Zn1095  2.017   .     S
O1088  Zn1096  2.017   .     S
O1089  Zn1096  1.994   .     S
O1090  Zn1095  1.994   .     S
O1091  Zn1095  1.980   .     S
O1092  Zn1096  1.980   .     S
O1093  Zn1096  1.997   .     S
O1094  Zn1095  1.997   .     S
N1097  H1099   1.046   .     S
N1097  C1153   1.443   .     S
N1097  H1180   1.046   .     S
N1100  H1101   1.046   .     S
H1102  N1182   1.045   .     S
N1103  H1104   1.040   .     S
N1103  H1105   1.045   .     S
N1106  H1108   1.045   .     S
N1106  H1107   1.044   .     S
C1109  C1110   1.533   .     S
C1109  H1118   1.107   .     S
C1109  H1117   1.103   .     S
C1110  H1115   1.112   .     S
C1110  C1111   1.527   .     S
C1110  H1116   1.108   .     S
C1111  H1112   1.107   .     S
C1111  H1195   1.111   .     S
C1111  H1196   1.107   .     S
C1119  H1127   1.106   .     S
C1119  C1120   1.542   .     S
C1119  H1128   1.110   .     S
C1120  H1126   1.109   .     S
C1120  H1125   1.107   .     S
C1120  C1121   1.516   .     S
C1121  H1122   1.107   .     S
C1121  H1861   1.111   .     S
C1121  H1862   1.109   .     S
C1129  H1137   1.112   .     S
C1129  C1130   1.538   .     S
C1129  H1138   1.089   .     S
C1130  H1136   1.111   .     S
C1130  C1131   1.529   .     S
C1130  H1873   1.105   .     S
C1131  H1134   1.111   .     S
C1131  H1132   1.110   .     S
C1131  H1215   1.111   .     S
C1139  C1140   1.534   .     S
C1139  H1147   1.084   .     S
C1139  H1148   1.112   .     S
C1140  H1146   1.108   .     S
C1140  C1141   1.527   .     S
C1141  H1142   1.111   .     S
C1141  H1143   1.109   .     S
C1141  H1144   1.111   .     S
H1145  C1878   1.109   .     S
C1149  O1169   1.281   .     A
C1149  C1160   1.434   .     S
C1149  O1171   1.300   .     A
C1150  O1170   1.288   .     A
C1150  C1159   1.433   .     S
C1150  O1172   1.293   .     A
C1151  O1173   1.276   .     A
C1151  C1153   1.411   .     S
C1151  O1175   1.293   .     A
C1152  O1176   1.291   .     A
C1152  C1154   1.409   .     S
C1152  O1174   1.277   .     A
C1154  C989    1.358   1_655 S
C1154  N1018   1.443   1_655 S
C1155  C1160   1.398   .     A
C1155  N1185   1.438   .     S
C1156  C1159   1.414   .     A
C1156  N1188   1.441   .     S
C1156  C1404   1.376   .     S
C1157  C1191   1.529   .     S
C1157  C1159   1.427   .     A
C1157  C1401   1.401   .     S
C1158  C1201   1.525   .     S
C1158  C1160   1.406   .     A
C1161  N1168   1.350   .     A
C1161  H1165   1.076   .     S
C1162  H1166   1.082   .     S
C1162  N1167   1.355   .     A
C1162  C1902   1.420   .     S
C1163  N1167   1.392   .     A
C1163  C1211   1.516   .     S
C1163  C1899   1.420   .     S
C1164  C1221   1.517   .     S
C1164  N1168   1.392   .     A
N1167  Zn1177  2.023   .     S
N1168  Zn1178  2.023   .     S
O1169  Zn1177  2.017   .     S
O1170  Zn1178  2.017   .     S
O1171  Zn1178  1.994   .     S
O1172  Zn1177  1.994   .     S
O1173  Zn1177  1.980   .     S
O1174  Zn1178  1.980   .     S
O1175  Zn1178  1.997   .     S
O1176  Zn1177  1.997   .     S
N1179  H1181   1.046   .     S
N1179  C989    1.443   1_655 S
N1179  H1016   1.046   1_655 S
N1182  H1183   1.046   .     S
H1184  N1018   1.045   1_655 S
N1185  H1186   1.040   .     S
N1185  H1187   1.045   .     S
N1188  H1190   1.045   .     S
N1188  H1189   1.044   .     S
C1191  C1192   1.533   .     S
C1191  H1200   1.107   .     S
C1191  H1199   1.103   .     S
C1192  H1197   1.112   .     S
C1192  C1193   1.527   .     S
C1192  H1198   1.108   .     S
C1193  H1194   1.107   .     S
C1193  H1031   1.111   1_655 S
C1193  H1032   1.107   1_655 S
C1201  H1209   1.106   .     S
C1201  C1202   1.542   .     S
C1201  H1210   1.110   .     S
C1202  H1208   1.109   .     S
C1202  H1207   1.107   .     S
C1202  C1203   1.516   .     S
C1203  H1204   1.107   .     S
C1203  H1943   1.111   .     S
C1203  H1944   1.109   .     S
C1211  H1219   1.112   .     S
C1211  C1212   1.538   .     S
C1211  H1220   1.089   .     S
C1212  H1218   1.111   .     S
C1212  C1213   1.529   .     S
C1212  H1955   1.105   .     S
C1213  H1216   1.111   .     S
C1213  H1214   1.110   .     S
C1213  H1051   1.111   1_655 S
C1221  C1222   1.534   .     S
C1221  H1229   1.084   .     S
C1221  H1230   1.112   .     S
C1222  H1228   1.108   .     S
C1222  C1223   1.527   .     S
C1223  H1224   1.111   .     S
C1223  H1225   1.109   .     S
C1223  H1226   1.111   .     S
H1227  C1960   1.109   .     S
C1231  O1251   1.281   .     A
C1231  C1242   1.434   .     S
C1231  O1253   1.300   .     A
C1232  O1252   1.288   .     A
C1232  C1241   1.433   .     S
C1232  O1254   1.293   .     A
C1233  O1255   1.276   .     A
C1233  C1235   1.411   .     S
C1233  O1257   1.293   .     A
C1234  O1258   1.291   .     A
C1234  C1236   1.409   .     S
C1234  O1256   1.277   .     A
C1235  C1400   1.358   1_455 S
C1235  N1425   1.443   1_455 S
C1236  C1317   1.358   .     S
C1236  N1346   1.443   .     S
C1237  C1242   1.398   .     A
C1237  N1267   1.438   .     S
C1238  C1241   1.414   .     A
C1238  N1270   1.441   .     S
C1238  C748    1.376   1_565 S
C1239  C1273   1.529   .     S
C1239  C1241   1.427   .     A
C1239  C745    1.401   1_565 S
C1240  C1283   1.525   .     S
C1240  C1242   1.406   .     A
C1243  N1250   1.350   .     A
C1243  H1247   1.076   .     S
C1244  H1248   1.082   .     S
C1244  N1249   1.355   .     A
C1244  C1984   1.420   .     S
C1245  N1249   1.392   .     A
C1245  C1293   1.516   .     S
C1245  C1981   1.420   .     S
C1246  C1303   1.517   .     S
C1246  N1250   1.392   .     A
N1249  Zn1259  2.023   .     S
N1250  Zn1260  2.023   .     S
O1251  Zn1259  2.017   .     S
O1252  Zn1260  2.017   .     S
O1253  Zn1260  1.994   .     S
O1254  Zn1259  1.994   .     S
O1255  Zn1259  1.980   .     S
O1256  Zn1260  1.980   .     S
O1257  Zn1260  1.997   .     S
O1258  Zn1259  1.997   .     S
N1261  H1263   1.046   .     S
N1261  C1317   1.443   .     S
N1261  H1344   1.046   .     S
H1262  N1425   1.046   1_455 S
N1264  H1265   1.046   .     S
N1264  C1400   1.443   1_455 S
N1264  H1430   1.045   1_455 S
H1266  N1346   1.045   .     S
N1267  H1268   1.040   .     S
N1267  H1269   1.045   .     S
N1270  H1272   1.045   .     S
N1270  H1271   1.044   .     S
C1273  C1274   1.533   .     S
C1273  H1282   1.107   .     S
C1273  H1281   1.103   .     S
C1274  H1279   1.112   .     S
C1274  C1275   1.527   .     S
C1274  H1280   1.108   .     S
C1275  H1276   1.107   .     S
C1275  H1359   1.111   .     S
C1275  H1360   1.107   .     S
H1277  C1439   1.111   1_455 S
H1278  C1439   1.107   1_455 S
C1283  H1291   1.106   .     S
C1283  C1284   1.542   .     S
C1283  H1292   1.110   .     S
C1284  H1290   1.109   .     S
C1284  H1289   1.107   .     S
C1284  C1285   1.516   .     S
C1285  H1286   1.107   .     S
C1285  H2025   1.111   .     S
C1285  H2026   1.109   .     S
C1293  H1301   1.112   .     S
C1293  C1294   1.538   .     S
C1293  H1302   1.089   .     S
C1294  H1300   1.111   .     S
C1294  C1295   1.529   .     S
C1294  H2037   1.105   .     S
C1295  H1298   1.111   .     S
C1295  H1296   1.110   .     S
C1295  H1379   1.111   .     S
H1297  C1459   1.111   1_455 S
C1303  C1304   1.534   .     S
C1303  H1311   1.084   .     S
C1303  H1312   1.112   .     S
C1304  H1310   1.108   .     S
C1304  C1305   1.527   .     S
C1305  H1306   1.111   .     S
C1305  H1307   1.109   .     S
C1305  H1308   1.111   .     S
H1309  C2042   1.109   .     S
C1313  O1333   1.281   .     A
C1313  C1324   1.434   .     S
C1313  O1335   1.300   .     A
C1314  O1334   1.288   .     A
C1314  C1323   1.433   .     S
C1314  O1336   1.293   .     A
C1315  O1337   1.276   .     A
C1315  C1317   1.411   .     S
C1315  O1339   1.293   .     A
C1316  O1340   1.291   .     A
C1316  C1318   1.409   .     S
C1316  O1338   1.277   .     A
C1318  C1399   1.358   .     S
C1318  N1428   1.443   .     S
C1319  C1324   1.398   .     A
C1319  N1349   1.438   .     S
C1320  C1323   1.414   .     A
C1320  N1352   1.441   .     S
C1320  C830    1.376   1_565 S
C1321  C1355   1.529   .     S
C1321  C1323   1.427   .     A
C1321  C827    1.401   1_565 S
C1322  C1365   1.525   .     S
C1322  C1324   1.406   .     A
C1325  N1332   1.350   .     A
C1325  H1329   1.076   .     S
C1326  H1330   1.082   .     S
C1326  N1331   1.355   .     A
C1326  C2066   1.420   .     S
C1327  N1331   1.392   .     A
C1327  C1375   1.516   .     S
C1327  C2063   1.420   .     S
C1328  C1385   1.517   .     S
C1328  N1332   1.392   .     A
N1331  Zn1341  2.023   .     S
N1332  Zn1342  2.023   .     S
O1333  Zn1341  2.017   .     S
O1334  Zn1342  2.017   .     S
O1335  Zn1342  1.994   .     S
O1336  Zn1341  1.994   .     S
O1337  Zn1341  1.980   .     S
O1338  Zn1342  1.980   .     S
O1339  Zn1342  1.997   .     S
O1340  Zn1341  1.997   .     S
N1343  H1345   1.046   .     S
N1343  C1399   1.443   .     S
N1343  H1426   1.046   .     S
N1346  H1347   1.046   .     S
H1348  N1428   1.045   .     S
N1349  H1350   1.040   .     S
N1349  H1351   1.045   .     S
N1352  H1354   1.045   .     S
N1352  H1353   1.044   .     S
C1355  C1356   1.533   .     S
C1355  H1364   1.107   .     S
C1355  H1363   1.103   .     S
C1356  H1361   1.112   .     S
C1356  C1357   1.527   .     S
C1356  H1362   1.108   .     S
C1357  H1358   1.107   .     S
C1357  H1441   1.111   .     S
C1357  H1442   1.107   .     S
C1365  H1373   1.106   .     S
C1365  C1366   1.542   .     S
C1365  H1374   1.110   .     S
C1366  H1372   1.109   .     S
C1366  H1371   1.107   .     S
C1366  C1367   1.516   .     S
C1367  H1368   1.107   .     S
C1367  H2107   1.111   .     S
C1367  H2108   1.109   .     S
C1375  H1383   1.112   .     S
C1375  C1376   1.538   .     S
C1375  H1384   1.089   .     S
C1376  H1382   1.111   .     S
C1376  C1377   1.529   .     S
C1376  H2119   1.105   .     S
C1377  H1380   1.111   .     S
C1377  H1378   1.110   .     S
C1377  H1461   1.111   .     S
C1385  C1386   1.534   .     S
C1385  H1393   1.084   .     S
C1385  H1394   1.112   .     S
C1386  H1392   1.108   .     S
C1386  C1387   1.527   .     S
C1387  H1388   1.111   .     S
C1387  H1389   1.109   .     S
C1387  H1390   1.111   .     S
H1391  C2124   1.109   .     S
C1395  O1415   1.281   .     A
C1395  C1406   1.434   .     S
C1395  O1417   1.300   .     A
C1396  O1416   1.288   .     A
C1396  C1405   1.433   .     S
C1396  O1418   1.293   .     A
C1397  O1419   1.276   .     A
C1397  C1399   1.411   .     S
C1397  O1421   1.293   .     A
C1398  O1422   1.291   .     A
C1398  C1400   1.409   .     S
C1398  O1420   1.277   .     A
C1400  C1235   1.358   1_655 S
C1400  N1264   1.443   1_655 S
C1401  C1406   1.398   .     A
C1401  N1431   1.438   .     S
C1402  C1405   1.414   .     A
C1402  N1434   1.441   .     S
C1402  C912    1.376   1_565 S
C1403  C1437   1.529   .     S
C1403  C1405   1.427   .     A
C1403  C909    1.401   1_565 S
C1404  C1447   1.525   .     S
C1404  C1406   1.406   .     A
C1407  N1414   1.350   .     A
C1407  H1411   1.076   .     S
C1408  H1412   1.082   .     S
C1408  N1413   1.355   .     A
C1408  C2148   1.420   .     S
C1409  N1413   1.392   .     A
C1409  C1457   1.516   .     S
C1409  C2145   1.420   .     S
C1410  C1467   1.517   .     S
C1410  N1414   1.392   .     A
N1413  Zn1423  2.023   .     S
N1414  Zn1424  2.023   .     S
O1415  Zn1423  2.017   .     S
O1416  Zn1424  2.017   .     S
O1417  Zn1424  1.994   .     S
O1418  Zn1423  1.994   .     S
O1419  Zn1423  1.980   .     S
O1420  Zn1424  1.980   .     S
O1421  Zn1424  1.997   .     S
O1422  Zn1423  1.997   .     S
N1425  H1427   1.046   .     S
N1425  C1235   1.443   1_655 S
N1425  H1262   1.046   1_655 S
N1428  H1429   1.046   .     S
H1430  N1264   1.045   1_655 S
N1431  H1432   1.040   .     S
N1431  H1433   1.045   .     S
N1434  H1436   1.045   .     S
N1434  H1435   1.044   .     S
C1437  C1438   1.533   .     S
C1437  H1446   1.107   .     S
C1437  H1445   1.103   .     S
C1438  H1443   1.112   .     S
C1438  C1439   1.527   .     S
C1438  H1444   1.108   .     S
C1439  H1440   1.107   .     S
C1439  H1277   1.111   1_655 S
C1439  H1278   1.107   1_655 S
C1447  H1455   1.106   .     S
C1447  C1448   1.542   .     S
C1447  H1456   1.110   .     S
C1448  H1454   1.109   .     S
C1448  H1453   1.107   .     S
C1448  C1449   1.516   .     S
C1449  H1450   1.107   .     S
C1449  H2189   1.111   .     S
C1449  H2190   1.109   .     S
C1457  H1465   1.112   .     S
C1457  C1458   1.538   .     S
C1457  H1466   1.089   .     S
C1458  H1464   1.111   .     S
C1458  C1459   1.529   .     S
C1458  H2201   1.105   .     S
C1459  H1462   1.111   .     S
C1459  H1460   1.110   .     S
C1459  H1297   1.111   1_655 S
C1467  C1468   1.534   .     S
C1467  H1475   1.084   .     S
C1467  H1476   1.112   .     S
C1468  H1474   1.108   .     S
C1468  C1469   1.527   .     S
C1469  H1470   1.111   .     S
C1469  H1471   1.109   .     S
C1469  H1472   1.111   .     S
H1473  C2206   1.109   .     S
C1477  O1497   1.281   .     A
C1477  C1488   1.434   .     S
C1477  O1499   1.300   .     A
C1478  O1498   1.288   .     A
C1478  C1487   1.433   .     S
C1478  O1500   1.293   .     A
C1479  O1501   1.276   .     A
C1479  C1481   1.411   .     S
C1479  O1503   1.293   .     A
C1480  O1504   1.291   .     A
C1480  C1482   1.409   .     S
C1480  O1502   1.277   .     A
C1481  C1646   1.358   1_455 S
C1481  N1671   1.443   1_455 S
C1482  C1563   1.358   .     S
C1482  N1592   1.443   .     S
C1483  C1488   1.398   .     A
C1483  N1513   1.438   .     S
C1483  C1977   1.401   1_545 S
C1484  C1487   1.414   .     A
C1484  N1516   1.441   .     S
C1484  C1732   1.376   .     S
C1485  C1519   1.529   .     S
C1485  C1487   1.427   .     A
C1485  C1729   1.401   .     S
C1486  C1529   1.525   .     S
C1486  C1488   1.406   .     A
C1486  C1976   1.376   1_545 S
C1489  N1496   1.350   .     A
C1489  H1493   1.076   .     S
C1490  H1494   1.082   .     S
C1490  N1495   1.355   .     A
C1490  C16     1.420   1_556 S
C1491  N1495   1.392   .     A
C1491  C1539   1.516   .     S
C1491  C13     1.420   1_556 S
C1492  C1549   1.517   .     S
C1492  N1496   1.392   .     A
N1495  Zn1505  2.023   .     S
N1496  Zn1506  2.023   .     S
O1497  Zn1505  2.017   .     S
O1498  Zn1506  2.017   .     S
O1499  Zn1506  1.994   .     S
O1500  Zn1505  1.994   .     S
O1501  Zn1505  1.980   .     S
O1502  Zn1506  1.980   .     S
O1503  Zn1506  1.997   .     S
O1504  Zn1505  1.997   .     S
N1507  H1509   1.046   .     S
N1507  C1563   1.443   .     S
N1507  H1590   1.046   .     S
H1508  N1671   1.046   1_455 S
N1510  H1511   1.046   .     S
N1510  C1646   1.443   1_455 S
N1510  H1676   1.045   1_455 S
H1512  N1592   1.045   .     S
N1513  H1514   1.040   .     S
N1513  H1515   1.045   .     S
N1516  H1518   1.045   .     S
N1516  H1517   1.044   .     S
C1519  C1520   1.533   .     S
C1519  H1528   1.107   .     S
C1519  H1527   1.103   .     S
C1520  H1525   1.112   .     S
C1520  C1521   1.527   .     S
C1520  H1526   1.108   .     S
C1521  H1522   1.107   .     S
C1521  H1605   1.111   .     S
C1521  H1606   1.107   .     S
H1523  C1685   1.111   1_455 S
H1524  C1685   1.107   1_455 S
C1529  H1537   1.106   .     S
C1529  C1530   1.542   .     S
C1529  H1538   1.110   .     S
C1530  H1536   1.109   .     S
C1530  H1535   1.107   .     S
C1530  C1531   1.516   .     S
C1531  H1532   1.107   .     S
C1531  H57     1.111   1_556 S
C1531  H58     1.109   1_556 S
C1539  H1547   1.112   .     S
C1539  C1540   1.538   .     S
C1539  H1548   1.089   .     S
C1540  H1546   1.111   .     S
C1540  C1541   1.529   .     S
C1540  H69     1.105   1_556 S
C1541  H1544   1.111   .     S
C1541  H1542   1.110   .     S
C1541  H1625   1.111   .     S
H1543  C1705   1.111   1_455 S
C1549  C1550   1.534   .     S
C1549  H1557   1.084   .     S
C1549  H1558   1.112   .     S
C1550  H1556   1.108   .     S
C1550  C1551   1.527   .     S
C1551  H1552   1.111   .     S
C1551  H1553   1.109   .     S
C1551  H1554   1.111   .     S
H1555  C74     1.109   1_556 S
C1559  O1579   1.281   .     A
C1559  C1570   1.434   .     S
C1559  O1581   1.300   .     A
C1560  O1580   1.288   .     A
C1560  C1569   1.433   .     S
C1560  O1582   1.293   .     A
C1561  O1583   1.276   .     A
C1561  C1563   1.411   .     S
C1561  O1585   1.293   .     A
C1562  O1586   1.291   .     A
C1562  C1564   1.409   .     S
C1562  O1584   1.277   .     A
C1564  C1645   1.358   .     S
C1564  N1674   1.443   .     S
C1565  C1570   1.398   .     A
C1565  N1595   1.438   .     S
C1565  C2059   1.401   1_545 S
C1566  C1569   1.414   .     A
C1566  N1598   1.441   .     S
C1566  C1814   1.376   .     S
C1567  C1601   1.529   .     S
C1567  C1569   1.427   .     A
C1567  C1811   1.401   .     S
C1568  C1611   1.525   .     S
C1568  C1570   1.406   .     A
C1568  C2058   1.376   1_545 S
C1571  N1578   1.350   .     A
C1571  H1575   1.076   .     S
C1572  H1576   1.082   .     S
C1572  N1577   1.355   .     A
C1572  C98     1.420   1_556 S
C1573  N1577   1.392   .     A
C1573  C1621   1.516   .     S
C1573  C95     1.420   1_556 S
C1574  C1631   1.517   .     S
C1574  N1578   1.392   .     A
N1577  Zn1587  2.023   .     S
N1578  Zn1588  2.023   .     S
O1579  Zn1587  2.017   .     S
O1580  Zn1588  2.017   .     S
O1581  Zn1588  1.994   .     S
O1582  Zn1587  1.994   .     S
O1583  Zn1587  1.980   .     S
O1584  Zn1588  1.980   .     S
O1585  Zn1588  1.997   .     S
O1586  Zn1587  1.997   .     S
N1589  H1591   1.046   .     S
N1589  C1645   1.443   .     S
N1589  H1672   1.046   .     S
N1592  H1593   1.046   .     S
H1594  N1674   1.045   .     S
N1595  H1596   1.040   .     S
N1595  H1597   1.045   .     S
N1598  H1600   1.045   .     S
N1598  H1599   1.044   .     S
C1601  C1602   1.533   .     S
C1601  H1610   1.107   .     S
C1601  H1609   1.103   .     S
C1602  H1607   1.112   .     S
C1602  C1603   1.527   .     S
C1602  H1608   1.108   .     S
C1603  H1604   1.107   .     S
C1603  H1687   1.111   .     S
C1603  H1688   1.107   .     S
C1611  H1619   1.106   .     S
C1611  C1612   1.542   .     S
C1611  H1620   1.110   .     S
C1612  H1618   1.109   .     S
C1612  H1617   1.107   .     S
C1612  C1613   1.516   .     S
C1613  H1614   1.107   .     S
C1613  H139    1.111   1_556 S
C1613  H140    1.109   1_556 S
C1621  H1629   1.112   .     S
C1621  C1622   1.538   .     S
C1621  H1630   1.089   .     S
C1622  H1628   1.111   .     S
C1622  C1623   1.529   .     S
C1622  H151    1.105   1_556 S
C1623  H1626   1.111   .     S
C1623  H1624   1.110   .     S
C1623  H1707   1.111   .     S
C1631  C1632   1.534   .     S
C1631  H1639   1.084   .     S
C1631  H1640   1.112   .     S
C1632  H1638   1.108   .     S
C1632  C1633   1.527   .     S
C1633  H1634   1.111   .     S
C1633  H1635   1.109   .     S
C1633  H1636   1.111   .     S
H1637  C156    1.109   1_556 S
C1641  O1661   1.281   .     A
C1641  C1652   1.434   .     S
C1641  O1663   1.300   .     A
C1642  O1662   1.288   .     A
C1642  C1651   1.433   .     S
C1642  O1664   1.293   .     A
C1643  O1665   1.276   .     A
C1643  C1645   1.411   .     S
C1643  O1667   1.293   .     A
C1644  O1668   1.291   .     A
C1644  C1646   1.409   .     S
C1644  O1666   1.277   .     A
C1646  C1481   1.358   1_655 S
C1646  N1510   1.443   1_655 S
C1647  C1652   1.398   .     A
C1647  N1677   1.438   .     S
C1647  C2141   1.401   1_545 S
C1648  C1651   1.414   .     A
C1648  N1680   1.441   .     S
C1648  C1896   1.376   .     S
C1649  C1683   1.529   .     S
C1649  C1651   1.427   .     A
C1649  C1893   1.401   .     S
C1650  C1693   1.525   .     S
C1650  C1652   1.406   .     A
C1650  C2140   1.376   1_545 S
C1653  N1660   1.350   .     A
C1653  H1657   1.076   .     S
C1654  H1658   1.082   .     S
C1654  N1659   1.355   .     A
C1654  C180    1.420   1_556 S
C1655  N1659   1.392   .     A
C1655  C1703   1.516   .     S
C1655  C177    1.420   1_556 S
C1656  C1713   1.517   .     S
C1656  N1660   1.392   .     A
N1659  Zn1669  2.023   .     S
N1660  Zn1670  2.023   .     S
O1661  Zn1669  2.017   .     S
O1662  Zn1670  2.017   .     S
O1663  Zn1670  1.994   .     S
O1664  Zn1669  1.994   .     S
O1665  Zn1669  1.980   .     S
O1666  Zn1670  1.980   .     S
O1667  Zn1670  1.997   .     S
O1668  Zn1669  1.997   .     S
N1671  H1673   1.046   .     S
N1671  C1481   1.443   1_655 S
N1671  H1508   1.046   1_655 S
N1674  H1675   1.046   .     S
H1676  N1510   1.045   1_655 S
N1677  H1678   1.040   .     S
N1677  H1679   1.045   .     S
N1680  H1682   1.045   .     S
N1680  H1681   1.044   .     S
C1683  C1684   1.533   .     S
C1683  H1692   1.107   .     S
C1683  H1691   1.103   .     S
C1684  H1689   1.112   .     S
C1684  C1685   1.527   .     S
C1684  H1690   1.108   .     S
C1685  H1686   1.107   .     S
C1685  H1523   1.111   1_655 S
C1685  H1524   1.107   1_655 S
C1693  H1701   1.106   .     S
C1693  C1694   1.542   .     S
C1693  H1702   1.110   .     S
C1694  H1700   1.109   .     S
C1694  H1699   1.107   .     S
C1694  C1695   1.516   .     S
C1695  H1696   1.107   .     S
C1695  H221    1.111   1_556 S
C1695  H222    1.109   1_556 S
C1703  H1711   1.112   .     S
C1703  C1704   1.538   .     S
C1703  H1712   1.089   .     S
C1704  H1710   1.111   .     S
C1704  C1705   1.529   .     S
C1704  H233    1.105   1_556 S
C1705  H1708   1.111   .     S
C1705  H1706   1.110   .     S
C1705  H1543   1.111   1_655 S
C1713  C1714   1.534   .     S
C1713  H1721   1.084   .     S
C1713  H1722   1.112   .     S
C1714  H1720   1.108   .     S
C1714  C1715   1.527   .     S
C1715  H1716   1.111   .     S
C1715  H1717   1.109   .     S
C1715  H1718   1.111   .     S
H1719  C238    1.109   1_556 S
C1723  O1743   1.281   .     A
C1723  C1734   1.434   .     S
C1723  O1745   1.300   .     A
C1724  O1744   1.288   .     A
C1724  C1733   1.433   .     S
C1724  O1746   1.293   .     A
C1725  O1747   1.276   .     A
C1725  C1727   1.411   .     S
C1725  O1749   1.293   .     A
C1726  O1750   1.291   .     A
C1726  C1728   1.409   .     S
C1726  O1748   1.277   .     A
C1727  C1892   1.358   1_455 S
C1727  N1917   1.443   1_455 S
C1728  C1809   1.358   .     S
C1728  N1838   1.443   .     S
C1729  C1734   1.398   .     A
C1729  N1759   1.438   .     S
C1730  C1733   1.414   .     A
C1730  N1762   1.441   .     S
C1730  C1978   1.376   .     S
C1731  C1765   1.529   .     S
C1731  C1733   1.427   .     A
C1731  C1975   1.401   .     S
C1732  C1775   1.525   .     S
C1732  C1734   1.406   .     A
C1735  N1742   1.350   .     A
C1735  H1739   1.076   .     S
C1736  H1740   1.082   .     S
C1736  N1741   1.355   .     A
C1736  C262    1.420   1_556 S
C1737  N1741   1.392   .     A
C1737  C1785   1.516   .     S
C1737  C259    1.420   1_556 S
C1738  C1795   1.517   .     S
C1738  N1742   1.392   .     A
N1741  Zn1751  2.023   .     S
N1742  Zn1752  2.023   .     S
O1743  Zn1751  2.017   .     S
O1744  Zn1752  2.017   .     S
O1745  Zn1752  1.994   .     S
O1746  Zn1751  1.994   .     S
O1747  Zn1751  1.980   .     S
O1748  Zn1752  1.980   .     S
O1749  Zn1752  1.997   .     S
O1750  Zn1751  1.997   .     S
N1753  H1755   1.046   .     S
N1753  C1809   1.443   .     S
N1753  H1836   1.046   .     S
H1754  N1917   1.046   1_455 S
N1756  H1757   1.046   .     S
N1756  C1892   1.443   1_455 S
N1756  H1922   1.045   1_455 S
H1758  N1838   1.045   .     S
N1759  H1760   1.040   .     S
N1759  H1761   1.045   .     S
N1762  H1764   1.045   .     S
N1762  H1763   1.044   .     S
C1765  C1766   1.533   .     S
C1765  H1774   1.107   .     S
C1765  H1773   1.103   .     S
C1766  H1771   1.112   .     S
C1766  C1767   1.527   .     S
C1766  H1772   1.108   .     S
C1767  H1768   1.107   .     S
C1767  H1851   1.111   .     S
C1767  H1852   1.107   .     S
H1769  C1931   1.111   1_455 S
H1770  C1931   1.107   1_455 S
C1775  H1783   1.106   .     S
C1775  C1776   1.542   .     S
C1775  H1784   1.110   .     S
C1776  H1782   1.109   .     S
C1776  H1781   1.107   .     S
C1776  C1777   1.516   .     S
C1777  H1778   1.107   .     S
C1777  H303    1.111   1_556 S
C1777  H304    1.109   1_556 S
C1785  H1793   1.112   .     S
C1785  C1786   1.538   .     S
C1785  H1794   1.089   .     S
C1786  H1792   1.111   .     S
C1786  C1787   1.529   .     S
C1786  H315    1.105   1_556 S
C1787  H1790   1.111   .     S
C1787  H1788   1.110   .     S
C1787  H1871   1.111   .     S
H1789  C1951   1.111   1_455 S
C1795  C1796   1.534   .     S
C1795  H1803   1.084   .     S
C1795  H1804   1.112   .     S
C1796  H1802   1.108   .     S
C1796  C1797   1.527   .     S
C1797  H1798   1.111   .     S
C1797  H1799   1.109   .     S
C1797  H1800   1.111   .     S
H1801  C320    1.109   1_556 S
C1805  O1825   1.281   .     A
C1805  C1816   1.434   .     S
C1805  O1827   1.300   .     A
C1806  O1826   1.288   .     A
C1806  C1815   1.433   .     S
C1806  O1828   1.293   .     A
C1807  O1829   1.276   .     A
C1807  C1809   1.411   .     S
C1807  O1831   1.293   .     A
C1808  O1832   1.291   .     A
C1808  C1810   1.409   .     S
C1808  O1830   1.277   .     A
C1810  C1891   1.358   .     S
C1810  N1920   1.443   .     S
C1811  C1816   1.398   .     A
C1811  N1841   1.438   .     S
C1812  C1815   1.414   .     A
C1812  N1844   1.441   .     S
C1812  C2060   1.376   .     S
C1813  C1847   1.529   .     S
C1813  C1815   1.427   .     A
C1813  C2057   1.401   .     S
C1814  C1857   1.525   .     S
C1814  C1816   1.406   .     A
C1817  N1824   1.350   .     A
C1817  H1821   1.076   .     S
C1818  H1822   1.082   .     S
C1818  N1823   1.355   .     A
C1818  C344    1.420   1_556 S
C1819  N1823   1.392   .     A
C1819  C1867   1.516   .     S
C1819  C341    1.420   1_556 S
C1820  C1877   1.517   .     S
C1820  N1824   1.392   .     A
N1823  Zn1833  2.023   .     S
N1824  Zn1834  2.023   .     S
O1825  Zn1833  2.017   .     S
O1826  Zn1834  2.017   .     S
O1827  Zn1834  1.994   .     S
O1828  Zn1833  1.994   .     S
O1829  Zn1833  1.980   .     S
O1830  Zn1834  1.980   .     S
O1831  Zn1834  1.997   .     S
O1832  Zn1833  1.997   .     S
N1835  H1837   1.046   .     S
N1835  C1891   1.443   .     S
N1835  H1918   1.046   .     S
N1838  H1839   1.046   .     S
H1840  N1920   1.045   .     S
N1841  H1842   1.040   .     S
N1841  H1843   1.045   .     S
N1844  H1846   1.045   .     S
N1844  H1845   1.044   .     S
C1847  C1848   1.533   .     S
C1847  H1856   1.107   .     S
C1847  H1855   1.103   .     S
C1848  H1853   1.112   .     S
C1848  C1849   1.527   .     S
C1848  H1854   1.108   .     S
C1849  H1850   1.107   .     S
C1849  H1933   1.111   .     S
C1849  H1934   1.107   .     S
C1857  H1865   1.106   .     S
C1857  C1858   1.542   .     S
C1857  H1866   1.110   .     S
C1858  H1864   1.109   .     S
C1858  H1863   1.107   .     S
C1858  C1859   1.516   .     S
C1859  H1860   1.107   .     S
C1859  H385    1.111   1_556 S
C1859  H386    1.109   1_556 S
C1867  H1875   1.112   .     S
C1867  C1868   1.538   .     S
C1867  H1876   1.089   .     S
C1868  H1874   1.111   .     S
C1868  C1869   1.529   .     S
C1868  H397    1.105   1_556 S
C1869  H1872   1.111   .     S
C1869  H1870   1.110   .     S
C1869  H1953   1.111   .     S
C1877  C1878   1.534   .     S
C1877  H1885   1.084   .     S
C1877  H1886   1.112   .     S
C1878  H1884   1.108   .     S
C1878  C1879   1.527   .     S
C1879  H1880   1.111   .     S
C1879  H1881   1.109   .     S
C1879  H1882   1.111   .     S
H1883  C402    1.109   1_556 S
C1887  O1907   1.281   .     A
C1887  C1898   1.434   .     S
C1887  O1909   1.300   .     A
C1888  O1908   1.288   .     A
C1888  C1897   1.433   .     S
C1888  O1910   1.293   .     A
C1889  O1911   1.276   .     A
C1889  C1891   1.411   .     S
C1889  O1913   1.293   .     A
C1890  O1914   1.291   .     A
C1890  C1892   1.409   .     S
C1890  O1912   1.277   .     A
C1892  C1727   1.358   1_655 S
C1892  N1756   1.443   1_655 S
C1893  C1898   1.398   .     A
C1893  N1923   1.438   .     S
C1894  C1897   1.414   .     A
C1894  N1926   1.441   .     S
C1894  C2142   1.376   .     S
C1895  C1929   1.529   .     S
C1895  C1897   1.427   .     A
C1895  C2139   1.401   .     S
C1896  C1939   1.525   .     S
C1896  C1898   1.406   .     A
C1899  N1906   1.350   .     A
C1899  H1903   1.076   .     S
C1900  H1904   1.082   .     S
C1900  N1905   1.355   .     A
C1900  C426    1.420   1_556 S
C1901  N1905   1.392   .     A
C1901  C1949   1.516   .     S
C1901  C423    1.420   1_556 S
C1902  C1959   1.517   .     S
C1902  N1906   1.392   .     A
N1905  Zn1915  2.023   .     S
N1906  Zn1916  2.023   .     S
O1907  Zn1915  2.017   .     S
O1908  Zn1916  2.017   .     S
O1909  Zn1916  1.994   .     S
O1910  Zn1915  1.994   .     S
O1911  Zn1915  1.980   .     S
O1912  Zn1916  1.980   .     S
O1913  Zn1916  1.997   .     S
O1914  Zn1915  1.997   .     S
N1917  H1919   1.046   .     S
N1917  C1727   1.443   1_655 S
N1917  H1754   1.046   1_655 S
N1920  H1921   1.046   .     S
H1922  N1756   1.045   1_655 S
N1923  H1924   1.040   .     S
N1923  H1925   1.045   .     S
N1926  H1928   1.045   .     S
N1926  H1927   1.044   .     S
C1929  C1930   1.533   .     S
C1929  H1938   1.107   .     S
C1929  H1937   1.103   .     S
C1930  H1935   1.112   .     S
C1930  C1931   1.527   .     S
C1930  H1936   1.108   .     S
C1931  H1932   1.107   .     S
C1931  H1769   1.111   1_655 S
C1931  H1770   1.107   1_655 S
C1939  H1947   1.106   .     S
C1939  C1940   1.542   .     S
C1939  H1948   1.110   .     S
C1940  H1946   1.109   .     S
C1940  H1945   1.107   .     S
C1940  C1941   1.516   .     S
C1941  H1942   1.107   .     S
C1941  H467    1.111   1_556 S
C1941  H468    1.109   1_556 S
C1949  H1957   1.112   .     S
C1949  C1950   1.538   .     S
C1949  H1958   1.089   .     S
C1950  H1956   1.111   .     S
C1950  C1951   1.529   .     S
C1950  H479    1.105   1_556 S
C1951  H1954   1.111   .     S
C1951  H1952   1.110   .     S
C1951  H1789   1.111   1_655 S
C1959  C1960   1.534   .     S
C1959  H1967   1.084   .     S
C1959  H1968   1.112   .     S
C1960  H1966   1.108   .     S
C1960  C1961   1.527   .     S
C1961  H1962   1.111   .     S
C1961  H1963   1.109   .     S
C1961  H1964   1.111   .     S
H1965  C484    1.109   1_556 S
C1969  O1989   1.281   .     A
C1969  C1980   1.434   .     S
C1969  O1991   1.300   .     A
C1970  O1990   1.288   .     A
C1970  C1979   1.433   .     S
C1970  O1992   1.293   .     A
C1971  O1993   1.276   .     A
C1971  C1973   1.411   .     S
C1971  O1995   1.293   .     A
C1972  O1996   1.291   .     A
C1972  C1974   1.409   .     S
C1972  O1994   1.277   .     A
C1973  C2138   1.358   1_455 S
C1973  N2163   1.443   1_455 S
C1974  C2055   1.358   .     S
C1974  N2084   1.443   .     S
C1975  C1980   1.398   .     A
C1975  N2005   1.438   .     S
C1976  C1979   1.414   .     A
C1976  N2008   1.441   .     S
C1976  C1486   1.376   1_565 S
C1977  C2011   1.529   .     S
C1977  C1979   1.427   .     A
C1977  C1483   1.401   1_565 S
C1978  C2021   1.525   .     S
C1978  C1980   1.406   .     A
C1981  N1988   1.350   .     A
C1981  H1985   1.076   .     S
C1982  H1986   1.082   .     S
C1982  N1987   1.355   .     A
C1982  C508    1.420   1_556 S
C1983  N1987   1.392   .     A
C1983  C2031   1.516   .     S
C1983  C505    1.420   1_556 S
C1984  C2041   1.517   .     S
C1984  N1988   1.392   .     A
N1987  Zn1997  2.023   .     S
N1988  Zn1998  2.023   .     S
O1989  Zn1997  2.017   .     S
O1990  Zn1998  2.017   .     S
O1991  Zn1998  1.994   .     S
O1992  Zn1997  1.994   .     S
O1993  Zn1997  1.980   .     S
O1994  Zn1998  1.980   .     S
O1995  Zn1998  1.997   .     S
O1996  Zn1997  1.997   .     S
N1999  H2001   1.046   .     S
N1999  C2055   1.443   .     S
N1999  H2082   1.046   .     S
H2000  N2163   1.046   1_455 S
N2002  H2003   1.046   .     S
N2002  C2138   1.443   1_455 S
N2002  H2168   1.045   1_455 S
H2004  N2084   1.045   .     S
N2005  H2006   1.040   .     S
N2005  H2007   1.045   .     S
N2008  H2010   1.045   .     S
N2008  H2009   1.044   .     S
C2011  C2012   1.533   .     S
C2011  H2020   1.107   .     S
C2011  H2019   1.103   .     S
C2012  H2017   1.112   .     S
C2012  C2013   1.527   .     S
C2012  H2018   1.108   .     S
C2013  H2014   1.107   .     S
C2013  H2097   1.111   .     S
C2013  H2098   1.107   .     S
H2015  C2177   1.111   1_455 S
H2016  C2177   1.107   1_455 S
C2021  H2029   1.106   .     S
C2021  C2022   1.542   .     S
C2021  H2030   1.110   .     S
C2022  H2028   1.109   .     S
C2022  H2027   1.107   .     S
C2022  C2023   1.516   .     S
C2023  H2024   1.107   .     S
C2023  H549    1.111   1_556 S
C2023  H550    1.109   1_556 S
C2031  H2039   1.112   .     S
C2031  C2032   1.538   .     S
C2031  H2040   1.089   .     S
C2032  H2038   1.111   .     S
C2032  C2033   1.529   .     S
C2032  H561    1.105   1_556 S
C2033  H2036   1.111   .     S
C2033  H2034   1.110   .     S
C2033  H2117   1.111   .     S
H2035  C2197   1.111   1_455 S
C2041  C2042   1.534   .     S
C2041  H2049   1.084   .     S
C2041  H2050   1.112   .     S
C2042  H2048   1.108   .     S
C2042  C2043   1.527   .     S
C2043  H2044   1.111   .     S
C2043  H2045   1.109   .     S
C2043  H2046   1.111   .     S
H2047  C566    1.109   1_556 S
C2051  O2071   1.281   .     A
C2051  C2062   1.434   .     S
C2051  O2073   1.300   .     A
C2052  O2072   1.288   .     A
C2052  C2061   1.433   .     S
C2052  O2074   1.293   .     A
C2053  O2075   1.276   .     A
C2053  C2055   1.411   .     S
C2053  O2077   1.293   .     A
C2054  O2078   1.291   .     A
C2054  C2056   1.409   .     S
C2054  O2076   1.277   .     A
C2056  C2137   1.358   .     S
C2056  N2166   1.443   .     S
C2057  C2062   1.398   .     A
C2057  N2087   1.438   .     S
C2058  C2061   1.414   .     A
C2058  N2090   1.441   .     S
C2058  C1568   1.376   1_565 S
C2059  C2093   1.529   .     S
C2059  C2061   1.427   .     A
C2059  C1565   1.401   1_565 S
C2060  C2103   1.525   .     S
C2060  C2062   1.406   .     A
C2063  N2070   1.350   .     A
C2063  H2067   1.076   .     S
C2064  H2068   1.082   .     S
C2064  N2069   1.355   .     A
C2064  C590    1.420   1_556 S
C2065  N2069   1.392   .     A
C2065  C2113   1.516   .     S
C2065  C587    1.420   1_556 S
C2066  C2123   1.517   .     S
C2066  N2070   1.392   .     A
N2069  Zn2079  2.023   .     S
N2070  Zn2080  2.023   .     S
O2071  Zn2079  2.017   .     S
O2072  Zn2080  2.017   .     S
O2073  Zn2080  1.994   .     S
O2074  Zn2079  1.994   .     S
O2075  Zn2079  1.980   .     S
O2076  Zn2080  1.980   .     S
O2077  Zn2080  1.997   .     S
O2078  Zn2079  1.997   .     S
N2081  H2083   1.046   .     S
N2081  C2137   1.443   .     S
N2081  H2164   1.046   .     S
N2084  H2085   1.046   .     S
H2086  N2166   1.045   .     S
N2087  H2088   1.040   .     S
N2087  H2089   1.045   .     S
N2090  H2092   1.045   .     S
N2090  H2091   1.044   .     S
C2093  C2094   1.533   .     S
C2093  H2102   1.107   .     S
C2093  H2101   1.103   .     S
C2094  H2099   1.112   .     S
C2094  C2095   1.527   .     S
C2094  H2100   1.108   .     S
C2095  H2096   1.107   .     S
C2095  H2179   1.111   .     S
C2095  H2180   1.107   .     S
C2103  H2111   1.106   .     S
C2103  C2104   1.542   .     S
C2103  H2112   1.110   .     S
C2104  H2110   1.109   .     S
C2104  H2109   1.107   .     S
C2104  C2105   1.516   .     S
C2105  H2106   1.107   .     S
C2105  H631    1.111   1_556 S
C2105  H632    1.109   1_556 S
C2113  H2121   1.112   .     S
C2113  C2114   1.538   .     S
C2113  H2122   1.089   .     S
C2114  H2120   1.111   .     S
C2114  C2115   1.529   .     S
C2114  H643    1.105   1_556 S
C2115  H2118   1.111   .     S
C2115  H2116   1.110   .     S
C2115  H2199   1.111   .     S
C2123  C2124   1.534   .     S
C2123  H2131   1.084   .     S
C2123  H2132   1.112   .     S
C2124  H2130   1.108   .     S
C2124  C2125   1.527   .     S
C2125  H2126   1.111   .     S
C2125  H2127   1.109   .     S
C2125  H2128   1.111   .     S
H2129  C648    1.109   1_556 S
C2133  O2153   1.281   .     A
C2133  C2144   1.434   .     S
C2133  O2155   1.300   .     A
C2134  O2154   1.288   .     A
C2134  C2143   1.433   .     S
C2134  O2156   1.293   .     A
C2135  O2157   1.276   .     A
C2135  C2137   1.411   .     S
C2135  O2159   1.293   .     A
C2136  O2160   1.291   .     A
C2136  C2138   1.409   .     S
C2136  O2158   1.277   .     A
C2138  C1973   1.358   1_655 S
C2138  N2002   1.443   1_655 S
C2139  C2144   1.398   .     A
C2139  N2169   1.438   .     S
C2140  C2143   1.414   .     A
C2140  N2172   1.441   .     S
C2140  C1650   1.376   1_565 S
C2141  C2175   1.529   .     S
C2141  C2143   1.427   .     A
C2141  C1647   1.401   1_565 S
C2142  C2185   1.525   .     S
C2142  C2144   1.406   .     A
C2145  N2152   1.350   .     A
C2145  H2149   1.076   .     S
C2146  H2150   1.082   .     S
C2146  N2151   1.355   .     A
C2146  C672    1.420   1_556 S
C2147  N2151   1.392   .     A
C2147  C2195   1.516   .     S
C2147  C669    1.420   1_556 S
C2148  C2205   1.517   .     S
C2148  N2152   1.392   .     A
N2151  Zn2161  2.023   .     S
N2152  Zn2162  2.023   .     S
O2153  Zn2161  2.017   .     S
O2154  Zn2162  2.017   .     S
O2155  Zn2162  1.994   .     S
O2156  Zn2161  1.994   .     S
O2157  Zn2161  1.980   .     S
O2158  Zn2162  1.980   .     S
O2159  Zn2162  1.997   .     S
O2160  Zn2161  1.997   .     S
N2163  H2165   1.046   .     S
N2163  C1973   1.443   1_655 S
N2163  H2000   1.046   1_655 S
N2166  H2167   1.046   .     S
H2168  N2002   1.045   1_655 S
N2169  H2170   1.040   .     S
N2169  H2171   1.045   .     S
N2172  H2174   1.045   .     S
N2172  H2173   1.044   .     S
C2175  C2176   1.533   .     S
C2175  H2184   1.107   .     S
C2175  H2183   1.103   .     S
C2176  H2181   1.112   .     S
C2176  C2177   1.527   .     S
C2176  H2182   1.108   .     S
C2177  H2178   1.107   .     S
C2177  H2015   1.111   1_655 S
C2177  H2016   1.107   1_655 S
C2185  H2193   1.106   .     S
C2185  C2186   1.542   .     S
C2185  H2194   1.110   .     S
C2186  H2192   1.109   .     S
C2186  H2191   1.107   .     S
C2186  C2187   1.516   .     S
C2187  H2188   1.107   .     S
C2187  H713    1.111   1_556 S
C2187  H714    1.109   1_556 S
C2195  H2203   1.112   .     S
C2195  C2196   1.538   .     S
C2195  H2204   1.089   .     S
C2196  H2202   1.111   .     S
C2196  C2197   1.529   .     S
C2196  H725    1.105   1_556 S
C2197  H2200   1.111   .     S
C2197  H2198   1.110   .     S
C2197  H2035   1.111   1_655 S
C2205  C2206   1.534   .     S
C2205  H2213   1.084   .     S
C2205  H2214   1.112   .     S
C2206  H2212   1.108   .     S
C2206  C2207   1.527   .     S
C2207  H2208   1.111   .     S
C2207  H2209   1.109   .     S
C2207  H2210   1.111   .     S
H2211  C730    1.109   1_556 S
