data_str_m3_o1_o1_pcu_sym.25
_audit_creation_date              2020-01-03
_audit_creation_method            'Materials Studio'
_symmetry_space_group_name_H-M    'P1'
_symmetry_Int_Tables_number       1
_symmetry_cell_setting            triclinic
loop_
_symmetry_equiv_pos_as_xyz
  x,y,z
_cell_length_a                    30.6359
_cell_length_b                    30.0178
_cell_length_c                    29.4631
_cell_angle_alpha                 89.3840
_cell_angle_beta                  88.9499
_cell_angle_gamma                 89.2716
loop_
_atom_site_label
_atom_site_type_symbol
_atom_site_fract_x
_atom_site_fract_y
_atom_site_fract_z
_atom_site_U_iso_or_equiv
_atom_site_adp_type
_atom_site_occupancy
O1     O     0.04580   0.20419   0.20487   0.00000  Uiso   1.00
O2     O     0.45419   0.29581   0.12846   0.00000  Uiso   1.00
O3     O     0.45419   0.29581   0.20487   0.00000  Uiso   1.00
O4     O     0.04580   0.20419   0.12846   0.00000  Uiso   1.00
O5     O     0.45419   0.20419   0.12846   0.00000  Uiso   1.00
O6     O     0.04580   0.29581   0.20487   0.00000  Uiso   1.00
O7     O     0.04580   0.29581   0.12846   0.00000  Uiso   1.00
O8     O     0.45419   0.20419   0.20487   0.00000  Uiso   1.00
O9     O     0.29580   0.45419   0.20487   0.00000  Uiso   1.00
O10    O     0.20419   0.04581   0.12846   0.00000  Uiso   1.00
O11    O     0.20419   0.04581   0.20487   0.00000  Uiso   1.00
O12    O     0.29580   0.45419   0.12846   0.00000  Uiso   1.00
O13    O     0.20419   0.45419   0.12846   0.00000  Uiso   1.00
O14    O     0.29580   0.04581   0.20487   0.00000  Uiso   1.00
O15    O     0.29580   0.04581   0.12846   0.00000  Uiso   1.00
O16    O     0.20419   0.45419   0.20487   0.00000  Uiso   1.00
C17    C     0.05999   0.19014   0.16645   0.00000  Uiso   1.00
C18    C     0.44003   0.30988   0.16689   0.00000  Uiso   1.00
C19    C     0.43842   0.19158   0.16727   0.00000  Uiso   1.00
C20    C     0.06157   0.30843   0.16607   0.00000  Uiso   1.00
C21    C     0.30997   0.44012   0.16645   0.00000  Uiso   1.00
C22    C     0.19001   0.05986   0.16689   0.00000  Uiso   1.00
C23    C     0.18843   0.44157   0.16727   0.00000  Uiso   1.00
C24    C     0.31158   0.05842   0.16607   0.00000  Uiso   1.00
H25    H     0.49446   0.32027   0.04158   0.00000  Uiso   1.00
H26    H     0.00554   0.17973   0.29175   0.00000  Uiso   1.00
H27    H     0.00536   0.17970   0.04291   0.00000  Uiso   1.00
H28    H     0.49464   0.32030   0.29042   0.00000  Uiso   1.00
H29    H     0.24446   0.07027   0.04158   0.00000  Uiso   1.00
H30    H     0.25554   0.42973   0.29175   0.00000  Uiso   1.00
H31    H     0.25536   0.42970   0.04291   0.00000  Uiso   1.00
H32    H     0.24464   0.07030   0.29042   0.00000  Uiso   1.00
N33    N     0.00000   0.25000   0.28573   0.00000  Uiso   1.00
N34    N    -0.00000   0.25000   0.04760   0.00000  Uiso   1.00
N35    N     0.25000   0.00000   0.28573   0.00000  Uiso   1.00
N36    N     0.25000   0.00000   0.04760   0.00000  Uiso   1.00
Zn37   Zn   -0.00000   0.25000   0.21771   0.00000  Uiso   1.00
Zn38   Zn   -0.00000   0.25000   0.11563   0.00000  Uiso   1.00
Zn39   Zn    0.25000   0.00000   0.21771   0.00000  Uiso   1.00
Zn40   Zn    0.25000   0.00000   0.11563   0.00000  Uiso   1.00
C41    C     0.49695   0.28908   0.02364   0.00000  Uiso   1.00
C42    C     0.00305   0.21092   0.30970   0.00000  Uiso   1.00
C43    C     0.00300   0.21092   0.02437   0.00000  Uiso   1.00
C44    C     0.49700   0.28908   0.30896   0.00000  Uiso   1.00
C45    C     0.24695   0.03908   0.02364   0.00000  Uiso   1.00
C46    C     0.25305   0.46092   0.30970   0.00000  Uiso   1.00
C47    C     0.25300   0.46092   0.02437   0.00000  Uiso   1.00
C48    C     0.24700   0.03908   0.30896   0.00000  Uiso   1.00
C49    C     0.37927   0.15413   0.12898   0.00000  Uiso   1.00
C50    C     0.12070   0.34590   0.20437   0.00000  Uiso   1.00
C51    C     0.10215   0.36790   0.12631   0.00000  Uiso   1.00
C52    C     0.39786   0.13208   0.20702   0.00000  Uiso   1.00
C53    C     0.08305   0.11459   0.18411   0.00000  Uiso   1.00
C54    C     0.41686   0.38534   0.14891   0.00000  Uiso   1.00
C55    C     0.36603   0.33259   0.18564   0.00000  Uiso   1.00
C56    C     0.13410   0.16753   0.14803   0.00000  Uiso   1.00
C57    C     0.12930   0.40410   0.12896   0.00000  Uiso   1.00
C58    C     0.37073   0.09587   0.20436   0.00000  Uiso   1.00
C59    C     0.35214   0.11792   0.12631   0.00000  Uiso   1.00
C60    C     0.14785   0.38210   0.20702   0.00000  Uiso   1.00
C61    C     0.33314   0.36466   0.18442   0.00000  Uiso   1.00
C62    C     0.16696   0.13542   0.14922   0.00000  Uiso   1.00
C63    C     0.11591   0.08249   0.18532   0.00000  Uiso   1.00
C64    C     0.38398   0.41741   0.14769   0.00000  Uiso   1.00
C65    C     0.09645   0.33996   0.16479   0.00000  Uiso   1.00
C66    C     0.40355   0.16004   0.16855   0.00000  Uiso   1.00
C67    C     0.40734   0.34336   0.16775   0.00000  Uiso   1.00
C68    C     0.09269   0.15667   0.16559   0.00000  Uiso   1.00
C69    C     0.34645   0.08995   0.16479   0.00000  Uiso   1.00
C70    C     0.15355   0.41004   0.16854   0.00000  Uiso   1.00
C71    C     0.15732   0.09334   0.16774   0.00000  Uiso   1.00
C72    C     0.34266   0.40664   0.16559   0.00000  Uiso   1.00
N73    N     0.38145   0.18521   0.09150   0.00000  Uiso   1.00
O74    O     0.37131   0.22697   0.09762   0.00000  Uiso   1.00
O75    O     0.39365   0.17188   0.05129   0.00000  Uiso   1.00
N76    N     0.11849   0.31485   0.24188   0.00000  Uiso   1.00
O77    O     0.12864   0.27309   0.23581   0.00000  Uiso   1.00
O78    O     0.10626   0.32823   0.28207   0.00000  Uiso   1.00
N79    N     0.08040   0.36017   0.08440   0.00000  Uiso   1.00
O80    O     0.09455   0.32850   0.05792   0.00000  Uiso   1.00
O81    O     0.05286   0.38960   0.06877   0.00000  Uiso   1.00
N82    N     0.41962   0.13981   0.24892   0.00000  Uiso   1.00
O83    O     0.40547   0.17146   0.27541   0.00000  Uiso   1.00
O84    O     0.44718   0.11038   0.26454   0.00000  Uiso   1.00
N85    N     0.04016   0.10454   0.20164   0.00000  Uiso   1.00
O86    O     0.03540   0.08533   0.24119   0.00000  Uiso   1.00
O87    O     0.00607   0.11158   0.17675   0.00000  Uiso   1.00
N88    N     0.45968   0.39533   0.13115   0.00000  Uiso   1.00
O89    O     0.46427   0.41436   0.09149   0.00000  Uiso   1.00
O90    O     0.49386   0.38845   0.15593   0.00000  Uiso   1.00
N91    N     0.35675   0.28838   0.20202   0.00000  Uiso   1.00
O92    O     0.32684   0.26506   0.18285   0.00000  Uiso   1.00
O93    O     0.37384   0.27383   0.23955   0.00000  Uiso   1.00
N94    N     0.14350   0.21184   0.13201   0.00000  Uiso   1.00
O95    O     0.17363   0.23483   0.15123   0.00000  Uiso   1.00
O96    O     0.12623   0.22687   0.09477   0.00000  Uiso   1.00
N97    N     0.13152   0.43514   0.09145   0.00000  Uiso   1.00
O98    O     0.12137   0.47690   0.09751   0.00000  Uiso   1.00
O99    O     0.14376   0.42176   0.05126   0.00000  Uiso   1.00
N100   N     0.36855   0.06479   0.24183   0.00000  Uiso   1.00
O101   O     0.37869   0.02303   0.23570   0.00000  Uiso   1.00
O102   O     0.35636   0.07812   0.28204   0.00000  Uiso   1.00
N103   N     0.33039   0.11019   0.08441   0.00000  Uiso   1.00
O104   O     0.34454   0.07853   0.05792   0.00000  Uiso   1.00
O105   O     0.30283   0.13961   0.06879   0.00000  Uiso   1.00
N106   N     0.16960   0.38983   0.24893   0.00000  Uiso   1.00
O107   O     0.15545   0.42150   0.27541   0.00000  Uiso   1.00
O108   O     0.19714   0.36040   0.26457   0.00000  Uiso   1.00
N109   N     0.29032   0.35467   0.20218   0.00000  Uiso   1.00
O110   O     0.28572   0.33563   0.24183   0.00000  Uiso   1.00
O111   O     0.25614   0.36156   0.17739   0.00000  Uiso   1.00
N112   N     0.20985   0.14546   0.13168   0.00000  Uiso   1.00
O113   O     0.21459   0.16467   0.09213   0.00000  Uiso   1.00
O114   O     0.24394   0.13843   0.15656   0.00000  Uiso   1.00
N115   N     0.10652   0.03818   0.20136   0.00000  Uiso   1.00
O116   O     0.07645   0.01514   0.18211   0.00000  Uiso   1.00
O117   O     0.12374   0.02322   0.23866   0.00000  Uiso   1.00
N118   N     0.39326   0.46162   0.13132   0.00000  Uiso   1.00
O119   O     0.42318   0.48493   0.15049   0.00000  Uiso   1.00
O120   O     0.37615   0.47618   0.09380   0.00000  Uiso   1.00
O121   O     0.54580   0.20419   0.20487   0.00000  Uiso   1.00
O122   O     0.95419   0.29581   0.12846   0.00000  Uiso   1.00
O123   O     0.95419   0.29581   0.20487   0.00000  Uiso   1.00
O124   O     0.54580   0.20419   0.12846   0.00000  Uiso   1.00
O125   O     0.95419   0.20419   0.12846   0.00000  Uiso   1.00
O126   O     0.54580   0.29581   0.20487   0.00000  Uiso   1.00
O127   O     0.54580   0.29581   0.12846   0.00000  Uiso   1.00
O128   O     0.95419   0.20419   0.20487   0.00000  Uiso   1.00
O129   O     0.79580   0.45419   0.20487   0.00000  Uiso   1.00
O130   O     0.70419   0.04581   0.12846   0.00000  Uiso   1.00
O131   O     0.70419   0.04581   0.20487   0.00000  Uiso   1.00
O132   O     0.79580   0.45419   0.12846   0.00000  Uiso   1.00
O133   O     0.70419   0.45419   0.12846   0.00000  Uiso   1.00
O134   O     0.79580   0.04581   0.20487   0.00000  Uiso   1.00
O135   O     0.79580   0.04581   0.12846   0.00000  Uiso   1.00
O136   O     0.70419   0.45419   0.20487   0.00000  Uiso   1.00
C137   C     0.55999   0.19014   0.16645   0.00000  Uiso   1.00
C138   C     0.94003   0.30988   0.16689   0.00000  Uiso   1.00
C139   C     0.93842   0.19158   0.16727   0.00000  Uiso   1.00
C140   C     0.56157   0.30843   0.16607   0.00000  Uiso   1.00
C141   C     0.80997   0.44012   0.16645   0.00000  Uiso   1.00
C142   C     0.69001   0.05986   0.16689   0.00000  Uiso   1.00
C143   C     0.68843   0.44157   0.16727   0.00000  Uiso   1.00
C144   C     0.81158   0.05842   0.16607   0.00000  Uiso   1.00
H145   H     0.99446   0.32027   0.04158   0.00000  Uiso   1.00
H146   H     0.50554   0.17973   0.29175   0.00000  Uiso   1.00
H147   H     0.50536   0.17970   0.04291   0.00000  Uiso   1.00
H148   H     0.99464   0.32030   0.29042   0.00000  Uiso   1.00
H149   H     0.74446   0.07027   0.04158   0.00000  Uiso   1.00
H150   H     0.75554   0.42973   0.29175   0.00000  Uiso   1.00
H151   H     0.75536   0.42970   0.04291   0.00000  Uiso   1.00
H152   H     0.74464   0.07030   0.29042   0.00000  Uiso   1.00
N153   N     0.50000   0.25000   0.28573   0.00000  Uiso   1.00
N154   N     0.50000   0.25000   0.04760   0.00000  Uiso   1.00
N155   N     0.75000   0.00000   0.28573   0.00000  Uiso   1.00
N156   N     0.75000   0.00000   0.04760   0.00000  Uiso   1.00
Zn157  Zn    0.50000   0.25000   0.21771   0.00000  Uiso   1.00
Zn158  Zn    0.50000   0.25000   0.11563   0.00000  Uiso   1.00
Zn159  Zn    0.75000   0.00000   0.21771   0.00000  Uiso   1.00
Zn160  Zn    0.75000   0.00000   0.11563   0.00000  Uiso   1.00
C161   C     0.99695   0.28908   0.02364   0.00000  Uiso   1.00
C162   C     0.50305   0.21092   0.30970   0.00000  Uiso   1.00
C163   C     0.50300   0.21092   0.02437   0.00000  Uiso   1.00
C164   C     0.99700   0.28908   0.30896   0.00000  Uiso   1.00
C165   C     0.74695   0.03908   0.02364   0.00000  Uiso   1.00
C166   C     0.75305   0.46092   0.30970   0.00000  Uiso   1.00
C167   C     0.75300   0.46092   0.02437   0.00000  Uiso   1.00
C168   C     0.74700   0.03908   0.30896   0.00000  Uiso   1.00
C169   C     0.87927   0.15413   0.12898   0.00000  Uiso   1.00
C170   C     0.62070   0.34590   0.20437   0.00000  Uiso   1.00
C171   C     0.60215   0.36790   0.12631   0.00000  Uiso   1.00
C172   C     0.89786   0.13208   0.20702   0.00000  Uiso   1.00
C173   C     0.58305   0.11459   0.18411   0.00000  Uiso   1.00
C174   C     0.91686   0.38534   0.14891   0.00000  Uiso   1.00
C175   C     0.86603   0.33259   0.18564   0.00000  Uiso   1.00
C176   C     0.63410   0.16753   0.14803   0.00000  Uiso   1.00
C177   C     0.62930   0.40410   0.12896   0.00000  Uiso   1.00
C178   C     0.87073   0.09587   0.20436   0.00000  Uiso   1.00
C179   C     0.85214   0.11792   0.12631   0.00000  Uiso   1.00
C180   C     0.64785   0.38210   0.20702   0.00000  Uiso   1.00
C181   C     0.83314   0.36466   0.18442   0.00000  Uiso   1.00
C182   C     0.66696   0.13542   0.14922   0.00000  Uiso   1.00
C183   C     0.61591   0.08249   0.18532   0.00000  Uiso   1.00
C184   C     0.88398   0.41741   0.14769   0.00000  Uiso   1.00
C185   C     0.59645   0.33996   0.16479   0.00000  Uiso   1.00
C186   C     0.90355   0.16004   0.16855   0.00000  Uiso   1.00
C187   C     0.90734   0.34336   0.16775   0.00000  Uiso   1.00
C188   C     0.59269   0.15667   0.16559   0.00000  Uiso   1.00
C189   C     0.84645   0.08995   0.16479   0.00000  Uiso   1.00
C190   C     0.65355   0.41004   0.16854   0.00000  Uiso   1.00
C191   C     0.65732   0.09334   0.16774   0.00000  Uiso   1.00
C192   C     0.84266   0.40664   0.16559   0.00000  Uiso   1.00
N193   N     0.88145   0.18521   0.09150   0.00000  Uiso   1.00
O194   O     0.87131   0.22697   0.09762   0.00000  Uiso   1.00
O195   O     0.89365   0.17188   0.05129   0.00000  Uiso   1.00
N196   N     0.61849   0.31485   0.24188   0.00000  Uiso   1.00
O197   O     0.62864   0.27309   0.23581   0.00000  Uiso   1.00
O198   O     0.60626   0.32823   0.28207   0.00000  Uiso   1.00
N199   N     0.58040   0.36017   0.08440   0.00000  Uiso   1.00
O200   O     0.59455   0.32850   0.05792   0.00000  Uiso   1.00
O201   O     0.55286   0.38960   0.06877   0.00000  Uiso   1.00
N202   N     0.91962   0.13981   0.24892   0.00000  Uiso   1.00
O203   O     0.90547   0.17146   0.27541   0.00000  Uiso   1.00
O204   O     0.94718   0.11038   0.26454   0.00000  Uiso   1.00
N205   N     0.54016   0.10454   0.20164   0.00000  Uiso   1.00
O206   O     0.53540   0.08533   0.24119   0.00000  Uiso   1.00
O207   O     0.50607   0.11158   0.17675   0.00000  Uiso   1.00
N208   N     0.95968   0.39533   0.13115   0.00000  Uiso   1.00
O209   O     0.96427   0.41436   0.09149   0.00000  Uiso   1.00
O210   O     0.99386   0.38845   0.15593   0.00000  Uiso   1.00
N211   N     0.85675   0.28838   0.20202   0.00000  Uiso   1.00
O212   O     0.82684   0.26506   0.18285   0.00000  Uiso   1.00
O213   O     0.87384   0.27383   0.23955   0.00000  Uiso   1.00
N214   N     0.64350   0.21184   0.13201   0.00000  Uiso   1.00
O215   O     0.67363   0.23483   0.15123   0.00000  Uiso   1.00
O216   O     0.62623   0.22687   0.09477   0.00000  Uiso   1.00
N217   N     0.63152   0.43514   0.09145   0.00000  Uiso   1.00
O218   O     0.62137   0.47690   0.09751   0.00000  Uiso   1.00
O219   O     0.64376   0.42176   0.05126   0.00000  Uiso   1.00
N220   N     0.86855   0.06479   0.24183   0.00000  Uiso   1.00
O221   O     0.87869   0.02303   0.23570   0.00000  Uiso   1.00
O222   O     0.85636   0.07812   0.28204   0.00000  Uiso   1.00
N223   N     0.83039   0.11019   0.08441   0.00000  Uiso   1.00
O224   O     0.84454   0.07853   0.05792   0.00000  Uiso   1.00
O225   O     0.80283   0.13961   0.06879   0.00000  Uiso   1.00
N226   N     0.66960   0.38983   0.24893   0.00000  Uiso   1.00
O227   O     0.65545   0.42150   0.27541   0.00000  Uiso   1.00
O228   O     0.69714   0.36040   0.26457   0.00000  Uiso   1.00
N229   N     0.79032   0.35467   0.20218   0.00000  Uiso   1.00
O230   O     0.78572   0.33563   0.24183   0.00000  Uiso   1.00
O231   O     0.75614   0.36156   0.17739   0.00000  Uiso   1.00
N232   N     0.70985   0.14546   0.13168   0.00000  Uiso   1.00
O233   O     0.71459   0.16467   0.09213   0.00000  Uiso   1.00
O234   O     0.74394   0.13843   0.15656   0.00000  Uiso   1.00
N235   N     0.60652   0.03818   0.20136   0.00000  Uiso   1.00
O236   O     0.57645   0.01514   0.18211   0.00000  Uiso   1.00
O237   O     0.62374   0.02322   0.23866   0.00000  Uiso   1.00
N238   N     0.89326   0.46162   0.13132   0.00000  Uiso   1.00
O239   O     0.92318   0.48493   0.15049   0.00000  Uiso   1.00
O240   O     0.87615   0.47618   0.09380   0.00000  Uiso   1.00
O241   O     0.04580   0.70419   0.20487   0.00000  Uiso   1.00
O242   O     0.45419   0.79581   0.12846   0.00000  Uiso   1.00
O243   O     0.45419   0.79581   0.20487   0.00000  Uiso   1.00
O244   O     0.04580   0.70419   0.12846   0.00000  Uiso   1.00
O245   O     0.45419   0.70419   0.12846   0.00000  Uiso   1.00
O246   O     0.04580   0.79581   0.20487   0.00000  Uiso   1.00
O247   O     0.04580   0.79581   0.12846   0.00000  Uiso   1.00
O248   O     0.45419   0.70419   0.20487   0.00000  Uiso   1.00
O249   O     0.29580   0.95419   0.20487   0.00000  Uiso   1.00
O250   O     0.20419   0.54581   0.12846   0.00000  Uiso   1.00
O251   O     0.20419   0.54581   0.20487   0.00000  Uiso   1.00
O252   O     0.29580   0.95419   0.12846   0.00000  Uiso   1.00
O253   O     0.20419   0.95419   0.12846   0.00000  Uiso   1.00
O254   O     0.29580   0.54581   0.20487   0.00000  Uiso   1.00
O255   O     0.29580   0.54581   0.12846   0.00000  Uiso   1.00
O256   O     0.20419   0.95419   0.20487   0.00000  Uiso   1.00
C257   C     0.05999   0.69014   0.16645   0.00000  Uiso   1.00
C258   C     0.44003   0.80988   0.16689   0.00000  Uiso   1.00
C259   C     0.43842   0.69158   0.16727   0.00000  Uiso   1.00
C260   C     0.06157   0.80843   0.16607   0.00000  Uiso   1.00
C261   C     0.30997   0.94012   0.16645   0.00000  Uiso   1.00
C262   C     0.19001   0.55986   0.16689   0.00000  Uiso   1.00
C263   C     0.18843   0.94157   0.16727   0.00000  Uiso   1.00
C264   C     0.31158   0.55842   0.16607   0.00000  Uiso   1.00
H265   H     0.49446   0.82027   0.04158   0.00000  Uiso   1.00
H266   H     0.00554   0.67973   0.29175   0.00000  Uiso   1.00
H267   H     0.00536   0.67970   0.04291   0.00000  Uiso   1.00
H268   H     0.49464   0.82030   0.29042   0.00000  Uiso   1.00
H269   H     0.24446   0.57027   0.04158   0.00000  Uiso   1.00
H270   H     0.25554   0.92973   0.29175   0.00000  Uiso   1.00
H271   H     0.25536   0.92970   0.04291   0.00000  Uiso   1.00
H272   H     0.24464   0.57030   0.29042   0.00000  Uiso   1.00
N273   N     0.00000   0.75000   0.28573   0.00000  Uiso   1.00
N274   N    -0.00000   0.75000   0.04760   0.00000  Uiso   1.00
N275   N     0.25000   0.50000   0.28573   0.00000  Uiso   1.00
N276   N     0.25000   0.50000   0.04760   0.00000  Uiso   1.00
Zn277  Zn   -0.00000   0.75000   0.21771   0.00000  Uiso   1.00
Zn278  Zn   -0.00000   0.75000   0.11563   0.00000  Uiso   1.00
Zn279  Zn    0.25000   0.50000   0.21771   0.00000  Uiso   1.00
Zn280  Zn    0.25000   0.50000   0.11563   0.00000  Uiso   1.00
C281   C     0.49695   0.78908   0.02364   0.00000  Uiso   1.00
C282   C     0.00305   0.71092   0.30970   0.00000  Uiso   1.00
C283   C     0.00300   0.71092   0.02437   0.00000  Uiso   1.00
C284   C     0.49700   0.78908   0.30896   0.00000  Uiso   1.00
C285   C     0.24695   0.53908   0.02364   0.00000  Uiso   1.00
C286   C     0.25305   0.96092   0.30970   0.00000  Uiso   1.00
C287   C     0.25300   0.96092   0.02437   0.00000  Uiso   1.00
C288   C     0.24700   0.53908   0.30896   0.00000  Uiso   1.00
C289   C     0.37927   0.65413   0.12898   0.00000  Uiso   1.00
C290   C     0.12070   0.84590   0.20437   0.00000  Uiso   1.00
C291   C     0.10215   0.86790   0.12631   0.00000  Uiso   1.00
C292   C     0.39786   0.63208   0.20702   0.00000  Uiso   1.00
C293   C     0.08305   0.61459   0.18411   0.00000  Uiso   1.00
C294   C     0.41686   0.88534   0.14891   0.00000  Uiso   1.00
C295   C     0.36603   0.83259   0.18564   0.00000  Uiso   1.00
C296   C     0.13410   0.66753   0.14803   0.00000  Uiso   1.00
C297   C     0.12930   0.90410   0.12896   0.00000  Uiso   1.00
C298   C     0.37073   0.59587   0.20436   0.00000  Uiso   1.00
C299   C     0.35214   0.61792   0.12631   0.00000  Uiso   1.00
C300   C     0.14785   0.88210   0.20702   0.00000  Uiso   1.00
C301   C     0.33314   0.86466   0.18442   0.00000  Uiso   1.00
C302   C     0.16696   0.63542   0.14922   0.00000  Uiso   1.00
C303   C     0.11591   0.58249   0.18532   0.00000  Uiso   1.00
C304   C     0.38398   0.91741   0.14769   0.00000  Uiso   1.00
C305   C     0.09645   0.83996   0.16479   0.00000  Uiso   1.00
C306   C     0.40355   0.66004   0.16855   0.00000  Uiso   1.00
C307   C     0.40734   0.84336   0.16775   0.00000  Uiso   1.00
C308   C     0.09269   0.65667   0.16559   0.00000  Uiso   1.00
C309   C     0.34645   0.58995   0.16479   0.00000  Uiso   1.00
C310   C     0.15355   0.91004   0.16854   0.00000  Uiso   1.00
C311   C     0.15732   0.59334   0.16774   0.00000  Uiso   1.00
C312   C     0.34266   0.90664   0.16559   0.00000  Uiso   1.00
N313   N     0.38145   0.68521   0.09150   0.00000  Uiso   1.00
O314   O     0.37131   0.72697   0.09762   0.00000  Uiso   1.00
O315   O     0.39365   0.67188   0.05129   0.00000  Uiso   1.00
N316   N     0.11849   0.81485   0.24188   0.00000  Uiso   1.00
O317   O     0.12864   0.77309   0.23581   0.00000  Uiso   1.00
O318   O     0.10626   0.82823   0.28207   0.00000  Uiso   1.00
N319   N     0.08040   0.86017   0.08440   0.00000  Uiso   1.00
O320   O     0.09455   0.82850   0.05792   0.00000  Uiso   1.00
O321   O     0.05286   0.88960   0.06877   0.00000  Uiso   1.00
N322   N     0.41962   0.63981   0.24892   0.00000  Uiso   1.00
O323   O     0.40547   0.67146   0.27541   0.00000  Uiso   1.00
O324   O     0.44718   0.61038   0.26454   0.00000  Uiso   1.00
N325   N     0.04016   0.60454   0.20164   0.00000  Uiso   1.00
O326   O     0.03540   0.58533   0.24119   0.00000  Uiso   1.00
O327   O     0.00607   0.61158   0.17675   0.00000  Uiso   1.00
N328   N     0.45968   0.89533   0.13115   0.00000  Uiso   1.00
O329   O     0.46427   0.91436   0.09149   0.00000  Uiso   1.00
O330   O     0.49386   0.88845   0.15593   0.00000  Uiso   1.00
N331   N     0.35675   0.78838   0.20202   0.00000  Uiso   1.00
O332   O     0.32684   0.76506   0.18285   0.00000  Uiso   1.00
O333   O     0.37384   0.77383   0.23955   0.00000  Uiso   1.00
N334   N     0.14350   0.71184   0.13201   0.00000  Uiso   1.00
O335   O     0.17363   0.73483   0.15123   0.00000  Uiso   1.00
O336   O     0.12623   0.72687   0.09477   0.00000  Uiso   1.00
N337   N     0.13152   0.93514   0.09145   0.00000  Uiso   1.00
O338   O     0.12137   0.97690   0.09751   0.00000  Uiso   1.00
O339   O     0.14376   0.92176   0.05126   0.00000  Uiso   1.00
N340   N     0.36855   0.56479   0.24183   0.00000  Uiso   1.00
O341   O     0.37869   0.52303   0.23570   0.00000  Uiso   1.00
O342   O     0.35636   0.57812   0.28204   0.00000  Uiso   1.00
N343   N     0.33039   0.61019   0.08441   0.00000  Uiso   1.00
O344   O     0.34454   0.57853   0.05792   0.00000  Uiso   1.00
O345   O     0.30283   0.63961   0.06879   0.00000  Uiso   1.00
N346   N     0.16960   0.88983   0.24893   0.00000  Uiso   1.00
O347   O     0.15545   0.92150   0.27541   0.00000  Uiso   1.00
O348   O     0.19714   0.86040   0.26457   0.00000  Uiso   1.00
N349   N     0.29032   0.85467   0.20218   0.00000  Uiso   1.00
O350   O     0.28572   0.83563   0.24183   0.00000  Uiso   1.00
O351   O     0.25614   0.86156   0.17739   0.00000  Uiso   1.00
N352   N     0.20985   0.64546   0.13168   0.00000  Uiso   1.00
O353   O     0.21459   0.66467   0.09213   0.00000  Uiso   1.00
O354   O     0.24394   0.63843   0.15656   0.00000  Uiso   1.00
N355   N     0.10652   0.53818   0.20136   0.00000  Uiso   1.00
O356   O     0.07645   0.51514   0.18211   0.00000  Uiso   1.00
O357   O     0.12374   0.52322   0.23866   0.00000  Uiso   1.00
N358   N     0.39326   0.96162   0.13132   0.00000  Uiso   1.00
O359   O     0.42318   0.98493   0.15049   0.00000  Uiso   1.00
O360   O     0.37615   0.97618   0.09380   0.00000  Uiso   1.00
O361   O     0.54580   0.70419   0.20487   0.00000  Uiso   1.00
O362   O     0.95419   0.79581   0.12846   0.00000  Uiso   1.00
O363   O     0.95419   0.79581   0.20487   0.00000  Uiso   1.00
O364   O     0.54580   0.70419   0.12846   0.00000  Uiso   1.00
O365   O     0.95419   0.70419   0.12846   0.00000  Uiso   1.00
O366   O     0.54580   0.79581   0.20487   0.00000  Uiso   1.00
O367   O     0.54580   0.79581   0.12846   0.00000  Uiso   1.00
O368   O     0.95419   0.70419   0.20487   0.00000  Uiso   1.00
O369   O     0.79580   0.95419   0.20487   0.00000  Uiso   1.00
O370   O     0.70419   0.54581   0.12846   0.00000  Uiso   1.00
O371   O     0.70419   0.54581   0.20487   0.00000  Uiso   1.00
O372   O     0.79580   0.95419   0.12846   0.00000  Uiso   1.00
O373   O     0.70419   0.95419   0.12846   0.00000  Uiso   1.00
O374   O     0.79580   0.54581   0.20487   0.00000  Uiso   1.00
O375   O     0.79580   0.54581   0.12846   0.00000  Uiso   1.00
O376   O     0.70419   0.95419   0.20487   0.00000  Uiso   1.00
C377   C     0.55999   0.69014   0.16645   0.00000  Uiso   1.00
C378   C     0.94003   0.80988   0.16689   0.00000  Uiso   1.00
C379   C     0.93842   0.69158   0.16727   0.00000  Uiso   1.00
C380   C     0.56157   0.80843   0.16607   0.00000  Uiso   1.00
C381   C     0.80997   0.94012   0.16645   0.00000  Uiso   1.00
C382   C     0.69001   0.55986   0.16689   0.00000  Uiso   1.00
C383   C     0.68843   0.94157   0.16727   0.00000  Uiso   1.00
C384   C     0.81158   0.55842   0.16607   0.00000  Uiso   1.00
H385   H     0.99446   0.82027   0.04158   0.00000  Uiso   1.00
H386   H     0.50554   0.67973   0.29175   0.00000  Uiso   1.00
H387   H     0.50536   0.67970   0.04291   0.00000  Uiso   1.00
H388   H     0.99464   0.82030   0.29042   0.00000  Uiso   1.00
H389   H     0.74446   0.57027   0.04158   0.00000  Uiso   1.00
H390   H     0.75554   0.92973   0.29175   0.00000  Uiso   1.00
H391   H     0.75536   0.92970   0.04291   0.00000  Uiso   1.00
H392   H     0.74464   0.57030   0.29042   0.00000  Uiso   1.00
N393   N     0.50000   0.75000   0.28573   0.00000  Uiso   1.00
N394   N     0.50000   0.75000   0.04760   0.00000  Uiso   1.00
N395   N     0.75000   0.50000   0.28573   0.00000  Uiso   1.00
N396   N     0.75000   0.50000   0.04760   0.00000  Uiso   1.00
Zn397  Zn    0.50000   0.75000   0.21771   0.00000  Uiso   1.00
Zn398  Zn    0.50000   0.75000   0.11563   0.00000  Uiso   1.00
Zn399  Zn    0.75000   0.50000   0.21771   0.00000  Uiso   1.00
Zn400  Zn    0.75000   0.50000   0.11563   0.00000  Uiso   1.00
C401   C     0.99695   0.78908   0.02364   0.00000  Uiso   1.00
C402   C     0.50305   0.71092   0.30970   0.00000  Uiso   1.00
C403   C     0.50300   0.71092   0.02437   0.00000  Uiso   1.00
C404   C     0.99700   0.78908   0.30896   0.00000  Uiso   1.00
C405   C     0.74695   0.53908   0.02364   0.00000  Uiso   1.00
C406   C     0.75305   0.96092   0.30970   0.00000  Uiso   1.00
C407   C     0.75300   0.96092   0.02437   0.00000  Uiso   1.00
C408   C     0.74700   0.53908   0.30896   0.00000  Uiso   1.00
C409   C     0.87927   0.65413   0.12898   0.00000  Uiso   1.00
C410   C     0.62070   0.84590   0.20437   0.00000  Uiso   1.00
C411   C     0.60215   0.86790   0.12631   0.00000  Uiso   1.00
C412   C     0.89786   0.63208   0.20702   0.00000  Uiso   1.00
C413   C     0.58305   0.61459   0.18411   0.00000  Uiso   1.00
C414   C     0.91686   0.88534   0.14891   0.00000  Uiso   1.00
C415   C     0.86603   0.83259   0.18564   0.00000  Uiso   1.00
C416   C     0.63410   0.66753   0.14803   0.00000  Uiso   1.00
C417   C     0.62930   0.90410   0.12896   0.00000  Uiso   1.00
C418   C     0.87073   0.59587   0.20436   0.00000  Uiso   1.00
C419   C     0.85214   0.61792   0.12631   0.00000  Uiso   1.00
C420   C     0.64785   0.88210   0.20702   0.00000  Uiso   1.00
C421   C     0.83314   0.86466   0.18442   0.00000  Uiso   1.00
C422   C     0.66696   0.63542   0.14922   0.00000  Uiso   1.00
C423   C     0.61591   0.58249   0.18532   0.00000  Uiso   1.00
C424   C     0.88398   0.91741   0.14769   0.00000  Uiso   1.00
C425   C     0.59645   0.83996   0.16479   0.00000  Uiso   1.00
C426   C     0.90355   0.66004   0.16855   0.00000  Uiso   1.00
C427   C     0.90734   0.84336   0.16775   0.00000  Uiso   1.00
C428   C     0.59269   0.65667   0.16559   0.00000  Uiso   1.00
C429   C     0.84645   0.58995   0.16479   0.00000  Uiso   1.00
C430   C     0.65355   0.91004   0.16854   0.00000  Uiso   1.00
C431   C     0.65732   0.59334   0.16774   0.00000  Uiso   1.00
C432   C     0.84266   0.90664   0.16559   0.00000  Uiso   1.00
N433   N     0.88145   0.68521   0.09150   0.00000  Uiso   1.00
O434   O     0.87131   0.72697   0.09762   0.00000  Uiso   1.00
O435   O     0.89365   0.67188   0.05129   0.00000  Uiso   1.00
N436   N     0.61849   0.81485   0.24188   0.00000  Uiso   1.00
O437   O     0.62864   0.77309   0.23581   0.00000  Uiso   1.00
O438   O     0.60626   0.82823   0.28207   0.00000  Uiso   1.00
N439   N     0.58040   0.86017   0.08440   0.00000  Uiso   1.00
O440   O     0.59455   0.82850   0.05792   0.00000  Uiso   1.00
O441   O     0.55286   0.88960   0.06877   0.00000  Uiso   1.00
N442   N     0.91962   0.63981   0.24892   0.00000  Uiso   1.00
O443   O     0.90547   0.67146   0.27541   0.00000  Uiso   1.00
O444   O     0.94718   0.61038   0.26454   0.00000  Uiso   1.00
N445   N     0.54016   0.60454   0.20164   0.00000  Uiso   1.00
O446   O     0.53540   0.58533   0.24119   0.00000  Uiso   1.00
O447   O     0.50607   0.61158   0.17675   0.00000  Uiso   1.00
N448   N     0.95968   0.89533   0.13115   0.00000  Uiso   1.00
O449   O     0.96427   0.91436   0.09149   0.00000  Uiso   1.00
O450   O     0.99386   0.88845   0.15593   0.00000  Uiso   1.00
N451   N     0.85675   0.78838   0.20202   0.00000  Uiso   1.00
O452   O     0.82684   0.76506   0.18285   0.00000  Uiso   1.00
O453   O     0.87384   0.77383   0.23955   0.00000  Uiso   1.00
N454   N     0.64350   0.71184   0.13201   0.00000  Uiso   1.00
O455   O     0.67363   0.73483   0.15123   0.00000  Uiso   1.00
O456   O     0.62623   0.72687   0.09477   0.00000  Uiso   1.00
N457   N     0.63152   0.93514   0.09145   0.00000  Uiso   1.00
O458   O     0.62137   0.97690   0.09751   0.00000  Uiso   1.00
O459   O     0.64376   0.92176   0.05126   0.00000  Uiso   1.00
N460   N     0.86855   0.56479   0.24183   0.00000  Uiso   1.00
O461   O     0.87869   0.52303   0.23570   0.00000  Uiso   1.00
O462   O     0.85636   0.57812   0.28204   0.00000  Uiso   1.00
N463   N     0.83039   0.61019   0.08441   0.00000  Uiso   1.00
O464   O     0.84454   0.57853   0.05792   0.00000  Uiso   1.00
O465   O     0.80283   0.63961   0.06879   0.00000  Uiso   1.00
N466   N     0.66960   0.88983   0.24893   0.00000  Uiso   1.00
O467   O     0.65545   0.92150   0.27541   0.00000  Uiso   1.00
O468   O     0.69714   0.86040   0.26457   0.00000  Uiso   1.00
N469   N     0.79032   0.85467   0.20218   0.00000  Uiso   1.00
O470   O     0.78572   0.83563   0.24183   0.00000  Uiso   1.00
O471   O     0.75614   0.86156   0.17739   0.00000  Uiso   1.00
N472   N     0.70985   0.64546   0.13168   0.00000  Uiso   1.00
O473   O     0.71459   0.66467   0.09213   0.00000  Uiso   1.00
O474   O     0.74394   0.63843   0.15656   0.00000  Uiso   1.00
N475   N     0.60652   0.53818   0.20136   0.00000  Uiso   1.00
O476   O     0.57645   0.51514   0.18211   0.00000  Uiso   1.00
O477   O     0.62374   0.52322   0.23866   0.00000  Uiso   1.00
N478   N     0.89326   0.96162   0.13132   0.00000  Uiso   1.00
O479   O     0.92318   0.98493   0.15049   0.00000  Uiso   1.00
O480   O     0.87615   0.97618   0.09380   0.00000  Uiso   1.00
O481   O     0.04580   0.20419   0.53821   0.00000  Uiso   1.00
O482   O     0.45419   0.29581   0.46179   0.00000  Uiso   1.00
O483   O     0.45419   0.29581   0.53821   0.00000  Uiso   1.00
O484   O     0.04580   0.20419   0.46179   0.00000  Uiso   1.00
O485   O     0.45419   0.20419   0.46179   0.00000  Uiso   1.00
O486   O     0.04580   0.29581   0.53821   0.00000  Uiso   1.00
O487   O     0.04580   0.29581   0.46179   0.00000  Uiso   1.00
O488   O     0.45419   0.20419   0.53821   0.00000  Uiso   1.00
O489   O     0.29580   0.45419   0.53821   0.00000  Uiso   1.00
O490   O     0.20419   0.04581   0.46179   0.00000  Uiso   1.00
O491   O     0.20419   0.04581   0.53821   0.00000  Uiso   1.00
O492   O     0.29580   0.45419   0.46179   0.00000  Uiso   1.00
O493   O     0.20419   0.45419   0.46179   0.00000  Uiso   1.00
O494   O     0.29580   0.04581   0.53821   0.00000  Uiso   1.00
O495   O     0.29580   0.04581   0.46179   0.00000  Uiso   1.00
O496   O     0.20419   0.45419   0.53821   0.00000  Uiso   1.00
C497   C     0.05999   0.19014   0.49978   0.00000  Uiso   1.00
C498   C     0.44003   0.30988   0.50022   0.00000  Uiso   1.00
C499   C     0.43842   0.19158   0.50060   0.00000  Uiso   1.00
C500   C     0.06157   0.30843   0.49940   0.00000  Uiso   1.00
C501   C     0.30997   0.44012   0.49978   0.00000  Uiso   1.00
C502   C     0.19001   0.05986   0.50022   0.00000  Uiso   1.00
C503   C     0.18843   0.44157   0.50060   0.00000  Uiso   1.00
C504   C     0.31158   0.05842   0.49940   0.00000  Uiso   1.00
H505   H     0.49446   0.32027   0.37492   0.00000  Uiso   1.00
H506   H     0.00554   0.17973   0.62508   0.00000  Uiso   1.00
H507   H     0.00536   0.17970   0.37624   0.00000  Uiso   1.00
H508   H     0.49464   0.32030   0.62376   0.00000  Uiso   1.00
H509   H     0.24446   0.07027   0.37492   0.00000  Uiso   1.00
H510   H     0.25554   0.42973   0.62508   0.00000  Uiso   1.00
H511   H     0.25536   0.42970   0.37624   0.00000  Uiso   1.00
H512   H     0.24464   0.07030   0.62376   0.00000  Uiso   1.00
N513   N     0.00000   0.25000   0.61907   0.00000  Uiso   1.00
N514   N    -0.00000   0.25000   0.38093   0.00000  Uiso   1.00
N515   N     0.25000   0.00000   0.61907   0.00000  Uiso   1.00
N516   N     0.25000   0.00000   0.38093   0.00000  Uiso   1.00
Zn517  Zn   -0.00000   0.25000   0.55104   0.00000  Uiso   1.00
Zn518  Zn   -0.00000   0.25000   0.44896   0.00000  Uiso   1.00
Zn519  Zn    0.25000   0.00000   0.55104   0.00000  Uiso   1.00
Zn520  Zn    0.25000   0.00000   0.44896   0.00000  Uiso   1.00
C521   C     0.49695   0.28908   0.35697   0.00000  Uiso   1.00
C522   C     0.00305   0.21092   0.64303   0.00000  Uiso   1.00
C523   C     0.00300   0.21092   0.35771   0.00000  Uiso   1.00
C524   C     0.49700   0.28908   0.64229   0.00000  Uiso   1.00
C525   C     0.24695   0.03908   0.35697   0.00000  Uiso   1.00
C526   C     0.25305   0.46092   0.64303   0.00000  Uiso   1.00
C527   C     0.25300   0.46092   0.35771   0.00000  Uiso   1.00
C528   C     0.24700   0.03908   0.64229   0.00000  Uiso   1.00
C529   C     0.37927   0.15413   0.46231   0.00000  Uiso   1.00
C530   C     0.12070   0.34590   0.53771   0.00000  Uiso   1.00
C531   C     0.10215   0.36790   0.45964   0.00000  Uiso   1.00
C532   C     0.39786   0.13208   0.54035   0.00000  Uiso   1.00
C533   C     0.08305   0.11459   0.51744   0.00000  Uiso   1.00
C534   C     0.41686   0.38534   0.48225   0.00000  Uiso   1.00
C535   C     0.36603   0.33259   0.51897   0.00000  Uiso   1.00
C536   C     0.13410   0.16753   0.48136   0.00000  Uiso   1.00
C537   C     0.12930   0.40410   0.46229   0.00000  Uiso   1.00
C538   C     0.37073   0.09587   0.53769   0.00000  Uiso   1.00
C539   C     0.35214   0.11792   0.45965   0.00000  Uiso   1.00
C540   C     0.14785   0.38210   0.54036   0.00000  Uiso   1.00
C541   C     0.33314   0.36466   0.51775   0.00000  Uiso   1.00
C542   C     0.16696   0.13542   0.48256   0.00000  Uiso   1.00
C543   C     0.11591   0.08249   0.51865   0.00000  Uiso   1.00
C544   C     0.38398   0.41741   0.48103   0.00000  Uiso   1.00
C545   C     0.09645   0.33996   0.49813   0.00000  Uiso   1.00
C546   C     0.40355   0.16004   0.50188   0.00000  Uiso   1.00
C547   C     0.40734   0.34336   0.50108   0.00000  Uiso   1.00
C548   C     0.09269   0.15667   0.49892   0.00000  Uiso   1.00
C549   C     0.34645   0.08995   0.49812   0.00000  Uiso   1.00
C550   C     0.15355   0.41004   0.50187   0.00000  Uiso   1.00
C551   C     0.15732   0.09334   0.50108   0.00000  Uiso   1.00
C552   C     0.34266   0.40664   0.49892   0.00000  Uiso   1.00
N553   N     0.38145   0.18521   0.42483   0.00000  Uiso   1.00
O554   O     0.37131   0.22697   0.43096   0.00000  Uiso   1.00
O555   O     0.39365   0.17188   0.38462   0.00000  Uiso   1.00
N556   N     0.11849   0.31485   0.57521   0.00000  Uiso   1.00
O557   O     0.12864   0.27309   0.56915   0.00000  Uiso   1.00
O558   O     0.10626   0.32823   0.61540   0.00000  Uiso   1.00
N559   N     0.08040   0.36017   0.41774   0.00000  Uiso   1.00
O560   O     0.09455   0.32850   0.39126   0.00000  Uiso   1.00
O561   O     0.05286   0.38960   0.40210   0.00000  Uiso   1.00
N562   N     0.41962   0.13981   0.58225   0.00000  Uiso   1.00
O563   O     0.40547   0.17146   0.60874   0.00000  Uiso   1.00
O564   O     0.44718   0.11038   0.59787   0.00000  Uiso   1.00
N565   N     0.04016   0.10454   0.53498   0.00000  Uiso   1.00
O566   O     0.03540   0.08533   0.57452   0.00000  Uiso   1.00
O567   O     0.00607   0.11158   0.51009   0.00000  Uiso   1.00
N568   N     0.45968   0.39533   0.46448   0.00000  Uiso   1.00
O569   O     0.46427   0.41436   0.42482   0.00000  Uiso   1.00
O570   O     0.49386   0.38845   0.48926   0.00000  Uiso   1.00
N571   N     0.35675   0.28838   0.53536   0.00000  Uiso   1.00
O572   O     0.32684   0.26506   0.51618   0.00000  Uiso   1.00
O573   O     0.37384   0.27383   0.57288   0.00000  Uiso   1.00
N574   N     0.14350   0.21184   0.46535   0.00000  Uiso   1.00
O575   O     0.17363   0.23483   0.48457   0.00000  Uiso   1.00
O576   O     0.12623   0.22687   0.42810   0.00000  Uiso   1.00
N577   N     0.13152   0.43514   0.42478   0.00000  Uiso   1.00
O578   O     0.12137   0.47690   0.43084   0.00000  Uiso   1.00
O579   O     0.14376   0.42176   0.38460   0.00000  Uiso   1.00
N580   N     0.36855   0.06479   0.57516   0.00000  Uiso   1.00
O581   O     0.37869   0.02303   0.56904   0.00000  Uiso   1.00
O582   O     0.35636   0.07812   0.61538   0.00000  Uiso   1.00
N583   N     0.33039   0.11019   0.41775   0.00000  Uiso   1.00
O584   O     0.34454   0.07853   0.39126   0.00000  Uiso   1.00
O585   O     0.30283   0.13961   0.40212   0.00000  Uiso   1.00
N586   N     0.16960   0.38983   0.58226   0.00000  Uiso   1.00
O587   O     0.15545   0.42150   0.60874   0.00000  Uiso   1.00
O588   O     0.19714   0.36040   0.59790   0.00000  Uiso   1.00
N589   N     0.29032   0.35467   0.53551   0.00000  Uiso   1.00
O590   O     0.28572   0.33563   0.57516   0.00000  Uiso   1.00
O591   O     0.25614   0.36156   0.51073   0.00000  Uiso   1.00
N592   N     0.20985   0.14546   0.46501   0.00000  Uiso   1.00
O593   O     0.21459   0.16467   0.42546   0.00000  Uiso   1.00
O594   O     0.24394   0.13843   0.48989   0.00000  Uiso   1.00
N595   N     0.10652   0.03818   0.53470   0.00000  Uiso   1.00
O596   O     0.07645   0.01514   0.51544   0.00000  Uiso   1.00
O597   O     0.12374   0.02322   0.57199   0.00000  Uiso   1.00
N598   N     0.39326   0.46162   0.46465   0.00000  Uiso   1.00
O599   O     0.42318   0.48493   0.48382   0.00000  Uiso   1.00
O600   O     0.37615   0.47618   0.42714   0.00000  Uiso   1.00
O601   O     0.54580   0.20419   0.53821   0.00000  Uiso   1.00
O602   O     0.95419   0.29581   0.46179   0.00000  Uiso   1.00
O603   O     0.95419   0.29581   0.53821   0.00000  Uiso   1.00
O604   O     0.54580   0.20419   0.46179   0.00000  Uiso   1.00
O605   O     0.95419   0.20419   0.46179   0.00000  Uiso   1.00
O606   O     0.54580   0.29581   0.53821   0.00000  Uiso   1.00
O607   O     0.54580   0.29581   0.46179   0.00000  Uiso   1.00
O608   O     0.95419   0.20419   0.53821   0.00000  Uiso   1.00
O609   O     0.79580   0.45419   0.53821   0.00000  Uiso   1.00
O610   O     0.70419   0.04581   0.46179   0.00000  Uiso   1.00
O611   O     0.70419   0.04581   0.53821   0.00000  Uiso   1.00
O612   O     0.79580   0.45419   0.46179   0.00000  Uiso   1.00
O613   O     0.70419   0.45419   0.46179   0.00000  Uiso   1.00
O614   O     0.79580   0.04581   0.53821   0.00000  Uiso   1.00
O615   O     0.79580   0.04581   0.46179   0.00000  Uiso   1.00
O616   O     0.70419   0.45419   0.53821   0.00000  Uiso   1.00
C617   C     0.55999   0.19014   0.49978   0.00000  Uiso   1.00
C618   C     0.94003   0.30988   0.50022   0.00000  Uiso   1.00
C619   C     0.93842   0.19158   0.50060   0.00000  Uiso   1.00
C620   C     0.56157   0.30843   0.49940   0.00000  Uiso   1.00
C621   C     0.80997   0.44012   0.49978   0.00000  Uiso   1.00
C622   C     0.69001   0.05986   0.50022   0.00000  Uiso   1.00
C623   C     0.68843   0.44157   0.50060   0.00000  Uiso   1.00
C624   C     0.81158   0.05842   0.49940   0.00000  Uiso   1.00
H625   H     0.99446   0.32027   0.37492   0.00000  Uiso   1.00
H626   H     0.50554   0.17973   0.62508   0.00000  Uiso   1.00
H627   H     0.50536   0.17970   0.37624   0.00000  Uiso   1.00
H628   H     0.99464   0.32030   0.62376   0.00000  Uiso   1.00
H629   H     0.74446   0.07027   0.37492   0.00000  Uiso   1.00
H630   H     0.75554   0.42973   0.62508   0.00000  Uiso   1.00
H631   H     0.75536   0.42970   0.37624   0.00000  Uiso   1.00
H632   H     0.74464   0.07030   0.62376   0.00000  Uiso   1.00
N633   N     0.50000   0.25000   0.61907   0.00000  Uiso   1.00
N634   N     0.50000   0.25000   0.38093   0.00000  Uiso   1.00
N635   N     0.75000   0.00000   0.61907   0.00000  Uiso   1.00
N636   N     0.75000   0.00000   0.38093   0.00000  Uiso   1.00
Zn637  Zn    0.50000   0.25000   0.55104   0.00000  Uiso   1.00
Zn638  Zn    0.50000   0.25000   0.44896   0.00000  Uiso   1.00
Zn639  Zn    0.75000   0.00000   0.55104   0.00000  Uiso   1.00
Zn640  Zn    0.75000   0.00000   0.44896   0.00000  Uiso   1.00
C641   C     0.99695   0.28908   0.35697   0.00000  Uiso   1.00
C642   C     0.50305   0.21092   0.64303   0.00000  Uiso   1.00
C643   C     0.50300   0.21092   0.35771   0.00000  Uiso   1.00
C644   C     0.99700   0.28908   0.64229   0.00000  Uiso   1.00
C645   C     0.74695   0.03908   0.35697   0.00000  Uiso   1.00
C646   C     0.75305   0.46092   0.64303   0.00000  Uiso   1.00
C647   C     0.75300   0.46092   0.35771   0.00000  Uiso   1.00
C648   C     0.74700   0.03908   0.64229   0.00000  Uiso   1.00
C649   C     0.87927   0.15413   0.46231   0.00000  Uiso   1.00
C650   C     0.62070   0.34590   0.53771   0.00000  Uiso   1.00
C651   C     0.60215   0.36790   0.45964   0.00000  Uiso   1.00
C652   C     0.89786   0.13208   0.54035   0.00000  Uiso   1.00
C653   C     0.58305   0.11459   0.51744   0.00000  Uiso   1.00
C654   C     0.91686   0.38534   0.48225   0.00000  Uiso   1.00
C655   C     0.86603   0.33259   0.51897   0.00000  Uiso   1.00
C656   C     0.63410   0.16753   0.48136   0.00000  Uiso   1.00
C657   C     0.62930   0.40410   0.46229   0.00000  Uiso   1.00
C658   C     0.87073   0.09587   0.53769   0.00000  Uiso   1.00
C659   C     0.85214   0.11792   0.45965   0.00000  Uiso   1.00
C660   C     0.64785   0.38210   0.54036   0.00000  Uiso   1.00
C661   C     0.83314   0.36466   0.51775   0.00000  Uiso   1.00
C662   C     0.66696   0.13542   0.48256   0.00000  Uiso   1.00
C663   C     0.61591   0.08249   0.51865   0.00000  Uiso   1.00
C664   C     0.88398   0.41741   0.48103   0.00000  Uiso   1.00
C665   C     0.59645   0.33996   0.49813   0.00000  Uiso   1.00
C666   C     0.90355   0.16004   0.50188   0.00000  Uiso   1.00
C667   C     0.90734   0.34336   0.50108   0.00000  Uiso   1.00
C668   C     0.59269   0.15667   0.49892   0.00000  Uiso   1.00
C669   C     0.84645   0.08995   0.49812   0.00000  Uiso   1.00
C670   C     0.65355   0.41004   0.50187   0.00000  Uiso   1.00
C671   C     0.65732   0.09334   0.50108   0.00000  Uiso   1.00
C672   C     0.84266   0.40664   0.49892   0.00000  Uiso   1.00
N673   N     0.88145   0.18521   0.42483   0.00000  Uiso   1.00
O674   O     0.87131   0.22697   0.43096   0.00000  Uiso   1.00
O675   O     0.89365   0.17188   0.38462   0.00000  Uiso   1.00
N676   N     0.61849   0.31485   0.57521   0.00000  Uiso   1.00
O677   O     0.62864   0.27309   0.56915   0.00000  Uiso   1.00
O678   O     0.60626   0.32823   0.61540   0.00000  Uiso   1.00
N679   N     0.58040   0.36017   0.41774   0.00000  Uiso   1.00
O680   O     0.59455   0.32850   0.39126   0.00000  Uiso   1.00
O681   O     0.55286   0.38960   0.40210   0.00000  Uiso   1.00
N682   N     0.91962   0.13981   0.58225   0.00000  Uiso   1.00
O683   O     0.90547   0.17146   0.60874   0.00000  Uiso   1.00
O684   O     0.94718   0.11038   0.59787   0.00000  Uiso   1.00
N685   N     0.54016   0.10454   0.53498   0.00000  Uiso   1.00
O686   O     0.53540   0.08533   0.57452   0.00000  Uiso   1.00
O687   O     0.50607   0.11158   0.51009   0.00000  Uiso   1.00
N688   N     0.95968   0.39533   0.46448   0.00000  Uiso   1.00
O689   O     0.96427   0.41436   0.42482   0.00000  Uiso   1.00
O690   O     0.99386   0.38845   0.48926   0.00000  Uiso   1.00
N691   N     0.85675   0.28838   0.53536   0.00000  Uiso   1.00
O692   O     0.82684   0.26506   0.51618   0.00000  Uiso   1.00
O693   O     0.87384   0.27383   0.57288   0.00000  Uiso   1.00
N694   N     0.64350   0.21184   0.46535   0.00000  Uiso   1.00
O695   O     0.67363   0.23483   0.48457   0.00000  Uiso   1.00
O696   O     0.62623   0.22687   0.42810   0.00000  Uiso   1.00
N697   N     0.63152   0.43514   0.42478   0.00000  Uiso   1.00
O698   O     0.62137   0.47690   0.43084   0.00000  Uiso   1.00
O699   O     0.64376   0.42176   0.38460   0.00000  Uiso   1.00
N700   N     0.86855   0.06479   0.57516   0.00000  Uiso   1.00
O701   O     0.87869   0.02303   0.56904   0.00000  Uiso   1.00
O702   O     0.85636   0.07812   0.61538   0.00000  Uiso   1.00
N703   N     0.83039   0.11019   0.41775   0.00000  Uiso   1.00
O704   O     0.84454   0.07853   0.39126   0.00000  Uiso   1.00
O705   O     0.80283   0.13961   0.40212   0.00000  Uiso   1.00
N706   N     0.66960   0.38983   0.58226   0.00000  Uiso   1.00
O707   O     0.65545   0.42150   0.60874   0.00000  Uiso   1.00
O708   O     0.69714   0.36040   0.59790   0.00000  Uiso   1.00
N709   N     0.79032   0.35467   0.53551   0.00000  Uiso   1.00
O710   O     0.78572   0.33563   0.57516   0.00000  Uiso   1.00
O711   O     0.75614   0.36156   0.51073   0.00000  Uiso   1.00
N712   N     0.70985   0.14546   0.46501   0.00000  Uiso   1.00
O713   O     0.71459   0.16467   0.42546   0.00000  Uiso   1.00
O714   O     0.74394   0.13843   0.48989   0.00000  Uiso   1.00
N715   N     0.60652   0.03818   0.53470   0.00000  Uiso   1.00
O716   O     0.57645   0.01514   0.51544   0.00000  Uiso   1.00
O717   O     0.62374   0.02322   0.57199   0.00000  Uiso   1.00
N718   N     0.89326   0.46162   0.46465   0.00000  Uiso   1.00
O719   O     0.92318   0.48493   0.48382   0.00000  Uiso   1.00
O720   O     0.87615   0.47618   0.42714   0.00000  Uiso   1.00
O721   O     0.04580   0.70419   0.53821   0.00000  Uiso   1.00
O722   O     0.45419   0.79581   0.46179   0.00000  Uiso   1.00
O723   O     0.45419   0.79581   0.53821   0.00000  Uiso   1.00
O724   O     0.04580   0.70419   0.46179   0.00000  Uiso   1.00
O725   O     0.45419   0.70419   0.46179   0.00000  Uiso   1.00
O726   O     0.04580   0.79581   0.53821   0.00000  Uiso   1.00
O727   O     0.04580   0.79581   0.46179   0.00000  Uiso   1.00
O728   O     0.45419   0.70419   0.53821   0.00000  Uiso   1.00
O729   O     0.29580   0.95419   0.53821   0.00000  Uiso   1.00
O730   O     0.20419   0.54581   0.46179   0.00000  Uiso   1.00
O731   O     0.20419   0.54581   0.53821   0.00000  Uiso   1.00
O732   O     0.29580   0.95419   0.46179   0.00000  Uiso   1.00
O733   O     0.20419   0.95419   0.46179   0.00000  Uiso   1.00
O734   O     0.29580   0.54581   0.53821   0.00000  Uiso   1.00
O735   O     0.29580   0.54581   0.46179   0.00000  Uiso   1.00
O736   O     0.20419   0.95419   0.53821   0.00000  Uiso   1.00
C737   C     0.05999   0.69014   0.49978   0.00000  Uiso   1.00
C738   C     0.44003   0.80988   0.50022   0.00000  Uiso   1.00
C739   C     0.43842   0.69158   0.50060   0.00000  Uiso   1.00
C740   C     0.06157   0.80843   0.49940   0.00000  Uiso   1.00
C741   C     0.30997   0.94012   0.49978   0.00000  Uiso   1.00
C742   C     0.19001   0.55986   0.50022   0.00000  Uiso   1.00
C743   C     0.18843   0.94157   0.50060   0.00000  Uiso   1.00
C744   C     0.31158   0.55842   0.49940   0.00000  Uiso   1.00
H745   H     0.49446   0.82027   0.37492   0.00000  Uiso   1.00
H746   H     0.00554   0.67973   0.62508   0.00000  Uiso   1.00
H747   H     0.00536   0.67970   0.37624   0.00000  Uiso   1.00
H748   H     0.49464   0.82030   0.62376   0.00000  Uiso   1.00
H749   H     0.24446   0.57027   0.37492   0.00000  Uiso   1.00
H750   H     0.25554   0.92973   0.62508   0.00000  Uiso   1.00
H751   H     0.25536   0.92970   0.37624   0.00000  Uiso   1.00
H752   H     0.24464   0.57030   0.62376   0.00000  Uiso   1.00
N753   N     0.00000   0.75000   0.61907   0.00000  Uiso   1.00
N754   N    -0.00000   0.75000   0.38093   0.00000  Uiso   1.00
N755   N     0.25000   0.50000   0.61907   0.00000  Uiso   1.00
N756   N     0.25000   0.50000   0.38093   0.00000  Uiso   1.00
Zn757  Zn   -0.00000   0.75000   0.55104   0.00000  Uiso   1.00
Zn758  Zn   -0.00000   0.75000   0.44896   0.00000  Uiso   1.00
Zn759  Zn    0.25000   0.50000   0.55104   0.00000  Uiso   1.00
Zn760  Zn    0.25000   0.50000   0.44896   0.00000  Uiso   1.00
C761   C     0.49695   0.78908   0.35697   0.00000  Uiso   1.00
C762   C     0.00305   0.71092   0.64303   0.00000  Uiso   1.00
C763   C     0.00300   0.71092   0.35771   0.00000  Uiso   1.00
C764   C     0.49700   0.78908   0.64229   0.00000  Uiso   1.00
C765   C     0.24695   0.53908   0.35697   0.00000  Uiso   1.00
C766   C     0.25305   0.96092   0.64303   0.00000  Uiso   1.00
C767   C     0.25300   0.96092   0.35771   0.00000  Uiso   1.00
C768   C     0.24700   0.53908   0.64229   0.00000  Uiso   1.00
C769   C     0.37927   0.65413   0.46231   0.00000  Uiso   1.00
C770   C     0.12070   0.84590   0.53771   0.00000  Uiso   1.00
C771   C     0.10215   0.86790   0.45964   0.00000  Uiso   1.00
C772   C     0.39786   0.63208   0.54035   0.00000  Uiso   1.00
C773   C     0.08305   0.61459   0.51744   0.00000  Uiso   1.00
C774   C     0.41686   0.88534   0.48225   0.00000  Uiso   1.00
C775   C     0.36603   0.83259   0.51897   0.00000  Uiso   1.00
C776   C     0.13410   0.66753   0.48136   0.00000  Uiso   1.00
C777   C     0.12930   0.90410   0.46229   0.00000  Uiso   1.00
C778   C     0.37073   0.59587   0.53769   0.00000  Uiso   1.00
C779   C     0.35214   0.61792   0.45965   0.00000  Uiso   1.00
C780   C     0.14785   0.88210   0.54036   0.00000  Uiso   1.00
C781   C     0.33314   0.86466   0.51775   0.00000  Uiso   1.00
C782   C     0.16696   0.63542   0.48256   0.00000  Uiso   1.00
C783   C     0.11591   0.58249   0.51865   0.00000  Uiso   1.00
C784   C     0.38398   0.91741   0.48103   0.00000  Uiso   1.00
C785   C     0.09645   0.83996   0.49813   0.00000  Uiso   1.00
C786   C     0.40355   0.66004   0.50188   0.00000  Uiso   1.00
C787   C     0.40734   0.84336   0.50108   0.00000  Uiso   1.00
C788   C     0.09269   0.65667   0.49892   0.00000  Uiso   1.00
C789   C     0.34645   0.58995   0.49812   0.00000  Uiso   1.00
C790   C     0.15355   0.91004   0.50187   0.00000  Uiso   1.00
C791   C     0.15732   0.59334   0.50108   0.00000  Uiso   1.00
C792   C     0.34266   0.90664   0.49892   0.00000  Uiso   1.00
N793   N     0.38145   0.68521   0.42483   0.00000  Uiso   1.00
O794   O     0.37131   0.72697   0.43096   0.00000  Uiso   1.00
O795   O     0.39365   0.67188   0.38462   0.00000  Uiso   1.00
N796   N     0.11849   0.81485   0.57521   0.00000  Uiso   1.00
O797   O     0.12864   0.77309   0.56915   0.00000  Uiso   1.00
O798   O     0.10626   0.82823   0.61540   0.00000  Uiso   1.00
N799   N     0.08040   0.86017   0.41774   0.00000  Uiso   1.00
O800   O     0.09455   0.82850   0.39126   0.00000  Uiso   1.00
O801   O     0.05286   0.88960   0.40210   0.00000  Uiso   1.00
N802   N     0.41962   0.63981   0.58225   0.00000  Uiso   1.00
O803   O     0.40547   0.67146   0.60874   0.00000  Uiso   1.00
O804   O     0.44718   0.61038   0.59787   0.00000  Uiso   1.00
N805   N     0.04016   0.60454   0.53498   0.00000  Uiso   1.00
O806   O     0.03540   0.58533   0.57452   0.00000  Uiso   1.00
O807   O     0.00607   0.61158   0.51009   0.00000  Uiso   1.00
N808   N     0.45968   0.89533   0.46448   0.00000  Uiso   1.00
O809   O     0.46427   0.91436   0.42482   0.00000  Uiso   1.00
O810   O     0.49386   0.88845   0.48926   0.00000  Uiso   1.00
N811   N     0.35675   0.78838   0.53536   0.00000  Uiso   1.00
O812   O     0.32684   0.76506   0.51618   0.00000  Uiso   1.00
O813   O     0.37384   0.77383   0.57288   0.00000  Uiso   1.00
N814   N     0.14350   0.71184   0.46535   0.00000  Uiso   1.00
O815   O     0.17363   0.73483   0.48457   0.00000  Uiso   1.00
O816   O     0.12623   0.72687   0.42810   0.00000  Uiso   1.00
N817   N     0.13152   0.93514   0.42478   0.00000  Uiso   1.00
O818   O     0.12137   0.97690   0.43084   0.00000  Uiso   1.00
O819   O     0.14376   0.92176   0.38460   0.00000  Uiso   1.00
N820   N     0.36855   0.56479   0.57516   0.00000  Uiso   1.00
O821   O     0.37869   0.52303   0.56904   0.00000  Uiso   1.00
O822   O     0.35636   0.57812   0.61538   0.00000  Uiso   1.00
N823   N     0.33039   0.61019   0.41775   0.00000  Uiso   1.00
O824   O     0.34454   0.57853   0.39126   0.00000  Uiso   1.00
O825   O     0.30283   0.63961   0.40212   0.00000  Uiso   1.00
N826   N     0.16960   0.88983   0.58226   0.00000  Uiso   1.00
O827   O     0.15545   0.92150   0.60874   0.00000  Uiso   1.00
O828   O     0.19714   0.86040   0.59790   0.00000  Uiso   1.00
N829   N     0.29032   0.85467   0.53551   0.00000  Uiso   1.00
O830   O     0.28572   0.83563   0.57516   0.00000  Uiso   1.00
O831   O     0.25614   0.86156   0.51073   0.00000  Uiso   1.00
N832   N     0.20985   0.64546   0.46501   0.00000  Uiso   1.00
O833   O     0.21459   0.66467   0.42546   0.00000  Uiso   1.00
O834   O     0.24394   0.63843   0.48989   0.00000  Uiso   1.00
N835   N     0.10652   0.53818   0.53470   0.00000  Uiso   1.00
O836   O     0.07645   0.51514   0.51544   0.00000  Uiso   1.00
O837   O     0.12374   0.52322   0.57199   0.00000  Uiso   1.00
N838   N     0.39326   0.96162   0.46465   0.00000  Uiso   1.00
O839   O     0.42318   0.98493   0.48382   0.00000  Uiso   1.00
O840   O     0.37615   0.97618   0.42714   0.00000  Uiso   1.00
O841   O     0.54580   0.70419   0.53821   0.00000  Uiso   1.00
O842   O     0.95419   0.79581   0.46179   0.00000  Uiso   1.00
O843   O     0.95419   0.79581   0.53821   0.00000  Uiso   1.00
O844   O     0.54580   0.70419   0.46179   0.00000  Uiso   1.00
O845   O     0.95419   0.70419   0.46179   0.00000  Uiso   1.00
O846   O     0.54580   0.79581   0.53821   0.00000  Uiso   1.00
O847   O     0.54580   0.79581   0.46179   0.00000  Uiso   1.00
O848   O     0.95419   0.70419   0.53821   0.00000  Uiso   1.00
O849   O     0.79580   0.95419   0.53821   0.00000  Uiso   1.00
O850   O     0.70419   0.54581   0.46179   0.00000  Uiso   1.00
O851   O     0.70419   0.54581   0.53821   0.00000  Uiso   1.00
O852   O     0.79580   0.95419   0.46179   0.00000  Uiso   1.00
O853   O     0.70419   0.95419   0.46179   0.00000  Uiso   1.00
O854   O     0.79580   0.54581   0.53821   0.00000  Uiso   1.00
O855   O     0.79580   0.54581   0.46179   0.00000  Uiso   1.00
O856   O     0.70419   0.95419   0.53821   0.00000  Uiso   1.00
C857   C     0.55999   0.69014   0.49978   0.00000  Uiso   1.00
C858   C     0.94003   0.80988   0.50022   0.00000  Uiso   1.00
C859   C     0.93842   0.69158   0.50060   0.00000  Uiso   1.00
C860   C     0.56157   0.80843   0.49940   0.00000  Uiso   1.00
C861   C     0.80997   0.94012   0.49978   0.00000  Uiso   1.00
C862   C     0.69001   0.55986   0.50022   0.00000  Uiso   1.00
C863   C     0.68843   0.94157   0.50060   0.00000  Uiso   1.00
C864   C     0.81158   0.55842   0.49940   0.00000  Uiso   1.00
H865   H     0.99446   0.82027   0.37492   0.00000  Uiso   1.00
H866   H     0.50554   0.67973   0.62508   0.00000  Uiso   1.00
H867   H     0.50536   0.67970   0.37624   0.00000  Uiso   1.00
H868   H     0.99464   0.82030   0.62376   0.00000  Uiso   1.00
H869   H     0.74446   0.57027   0.37492   0.00000  Uiso   1.00
H870   H     0.75554   0.92973   0.62508   0.00000  Uiso   1.00
H871   H     0.75536   0.92970   0.37624   0.00000  Uiso   1.00
H872   H     0.74464   0.57030   0.62376   0.00000  Uiso   1.00
N873   N     0.50000   0.75000   0.61907   0.00000  Uiso   1.00
N874   N     0.50000   0.75000   0.38093   0.00000  Uiso   1.00
N875   N     0.75000   0.50000   0.61907   0.00000  Uiso   1.00
N876   N     0.75000   0.50000   0.38093   0.00000  Uiso   1.00
Zn877  Zn    0.50000   0.75000   0.55104   0.00000  Uiso   1.00
Zn878  Zn    0.50000   0.75000   0.44896   0.00000  Uiso   1.00
Zn879  Zn    0.75000   0.50000   0.55104   0.00000  Uiso   1.00
Zn880  Zn    0.75000   0.50000   0.44896   0.00000  Uiso   1.00
C881   C     0.99695   0.78908   0.35697   0.00000  Uiso   1.00
C882   C     0.50305   0.71092   0.64303   0.00000  Uiso   1.00
C883   C     0.50300   0.71092   0.35771   0.00000  Uiso   1.00
C884   C     0.99700   0.78908   0.64229   0.00000  Uiso   1.00
C885   C     0.74695   0.53908   0.35697   0.00000  Uiso   1.00
C886   C     0.75305   0.96092   0.64303   0.00000  Uiso   1.00
C887   C     0.75300   0.96092   0.35771   0.00000  Uiso   1.00
C888   C     0.74700   0.53908   0.64229   0.00000  Uiso   1.00
C889   C     0.87927   0.65413   0.46231   0.00000  Uiso   1.00
C890   C     0.62070   0.84590   0.53771   0.00000  Uiso   1.00
C891   C     0.60215   0.86790   0.45964   0.00000  Uiso   1.00
C892   C     0.89786   0.63208   0.54035   0.00000  Uiso   1.00
C893   C     0.58305   0.61459   0.51744   0.00000  Uiso   1.00
C894   C     0.91686   0.88534   0.48225   0.00000  Uiso   1.00
C895   C     0.86603   0.83259   0.51897   0.00000  Uiso   1.00
C896   C     0.63410   0.66753   0.48136   0.00000  Uiso   1.00
C897   C     0.62930   0.90410   0.46229   0.00000  Uiso   1.00
C898   C     0.87073   0.59587   0.53769   0.00000  Uiso   1.00
C899   C     0.85214   0.61792   0.45965   0.00000  Uiso   1.00
C900   C     0.64785   0.88210   0.54036   0.00000  Uiso   1.00
C901   C     0.83314   0.86466   0.51775   0.00000  Uiso   1.00
C902   C     0.66696   0.63542   0.48256   0.00000  Uiso   1.00
C903   C     0.61591   0.58249   0.51865   0.00000  Uiso   1.00
C904   C     0.88398   0.91741   0.48103   0.00000  Uiso   1.00
C905   C     0.59645   0.83996   0.49813   0.00000  Uiso   1.00
C906   C     0.90355   0.66004   0.50188   0.00000  Uiso   1.00
C907   C     0.90734   0.84336   0.50108   0.00000  Uiso   1.00
C908   C     0.59269   0.65667   0.49892   0.00000  Uiso   1.00
C909   C     0.84645   0.58995   0.49812   0.00000  Uiso   1.00
C910   C     0.65355   0.91004   0.50187   0.00000  Uiso   1.00
C911   C     0.65732   0.59334   0.50108   0.00000  Uiso   1.00
C912   C     0.84266   0.90664   0.49892   0.00000  Uiso   1.00
N913   N     0.88145   0.68521   0.42483   0.00000  Uiso   1.00
O914   O     0.87131   0.72697   0.43096   0.00000  Uiso   1.00
O915   O     0.89365   0.67188   0.38462   0.00000  Uiso   1.00
N916   N     0.61849   0.81485   0.57521   0.00000  Uiso   1.00
O917   O     0.62864   0.77309   0.56915   0.00000  Uiso   1.00
O918   O     0.60626   0.82823   0.61540   0.00000  Uiso   1.00
N919   N     0.58040   0.86017   0.41774   0.00000  Uiso   1.00
O920   O     0.59455   0.82850   0.39126   0.00000  Uiso   1.00
O921   O     0.55286   0.88960   0.40210   0.00000  Uiso   1.00
N922   N     0.91962   0.63981   0.58225   0.00000  Uiso   1.00
O923   O     0.90547   0.67146   0.60874   0.00000  Uiso   1.00
O924   O     0.94718   0.61038   0.59787   0.00000  Uiso   1.00
N925   N     0.54016   0.60454   0.53498   0.00000  Uiso   1.00
O926   O     0.53540   0.58533   0.57452   0.00000  Uiso   1.00
O927   O     0.50607   0.61158   0.51009   0.00000  Uiso   1.00
N928   N     0.95968   0.89533   0.46448   0.00000  Uiso   1.00
O929   O     0.96427   0.91436   0.42482   0.00000  Uiso   1.00
O930   O     0.99386   0.88845   0.48926   0.00000  Uiso   1.00
N931   N     0.85675   0.78838   0.53536   0.00000  Uiso   1.00
O932   O     0.82684   0.76506   0.51618   0.00000  Uiso   1.00
O933   O     0.87384   0.77383   0.57288   0.00000  Uiso   1.00
N934   N     0.64350   0.71184   0.46535   0.00000  Uiso   1.00
O935   O     0.67363   0.73483   0.48457   0.00000  Uiso   1.00
O936   O     0.62623   0.72687   0.42810   0.00000  Uiso   1.00
N937   N     0.63152   0.93514   0.42478   0.00000  Uiso   1.00
O938   O     0.62137   0.97690   0.43084   0.00000  Uiso   1.00
O939   O     0.64376   0.92176   0.38460   0.00000  Uiso   1.00
N940   N     0.86855   0.56479   0.57516   0.00000  Uiso   1.00
O941   O     0.87869   0.52303   0.56904   0.00000  Uiso   1.00
O942   O     0.85636   0.57812   0.61538   0.00000  Uiso   1.00
N943   N     0.83039   0.61019   0.41775   0.00000  Uiso   1.00
O944   O     0.84454   0.57853   0.39126   0.00000  Uiso   1.00
O945   O     0.80283   0.63961   0.40212   0.00000  Uiso   1.00
N946   N     0.66960   0.88983   0.58226   0.00000  Uiso   1.00
O947   O     0.65545   0.92150   0.60874   0.00000  Uiso   1.00
O948   O     0.69714   0.86040   0.59790   0.00000  Uiso   1.00
N949   N     0.79032   0.85467   0.53551   0.00000  Uiso   1.00
O950   O     0.78572   0.83563   0.57516   0.00000  Uiso   1.00
O951   O     0.75614   0.86156   0.51073   0.00000  Uiso   1.00
N952   N     0.70985   0.64546   0.46501   0.00000  Uiso   1.00
O953   O     0.71459   0.66467   0.42546   0.00000  Uiso   1.00
O954   O     0.74394   0.63843   0.48989   0.00000  Uiso   1.00
N955   N     0.60652   0.53818   0.53470   0.00000  Uiso   1.00
O956   O     0.57645   0.51514   0.51544   0.00000  Uiso   1.00
O957   O     0.62374   0.52322   0.57199   0.00000  Uiso   1.00
N958   N     0.89326   0.96162   0.46465   0.00000  Uiso   1.00
O959   O     0.92318   0.98493   0.48382   0.00000  Uiso   1.00
O960   O     0.87615   0.97618   0.42714   0.00000  Uiso   1.00
O961   O     0.04580   0.20419   0.87154   0.00000  Uiso   1.00
O962   O     0.45419   0.29581   0.79513   0.00000  Uiso   1.00
O963   O     0.45419   0.29581   0.87154   0.00000  Uiso   1.00
O964   O     0.04580   0.20419   0.79513   0.00000  Uiso   1.00
O965   O     0.45419   0.20419   0.79513   0.00000  Uiso   1.00
O966   O     0.04580   0.29581   0.87154   0.00000  Uiso   1.00
O967   O     0.04580   0.29581   0.79513   0.00000  Uiso   1.00
O968   O     0.45419   0.20419   0.87154   0.00000  Uiso   1.00
O969   O     0.29580   0.45419   0.87154   0.00000  Uiso   1.00
O970   O     0.20419   0.04581   0.79513   0.00000  Uiso   1.00
O971   O     0.20419   0.04581   0.87154   0.00000  Uiso   1.00
O972   O     0.29580   0.45419   0.79513   0.00000  Uiso   1.00
O973   O     0.20419   0.45419   0.79513   0.00000  Uiso   1.00
O974   O     0.29580   0.04581   0.87154   0.00000  Uiso   1.00
O975   O     0.29580   0.04581   0.79513   0.00000  Uiso   1.00
O976   O     0.20419   0.45419   0.87154   0.00000  Uiso   1.00
C977   C     0.05999   0.19014   0.83311   0.00000  Uiso   1.00
C978   C     0.44003   0.30988   0.83355   0.00000  Uiso   1.00
C979   C     0.43842   0.19158   0.83393   0.00000  Uiso   1.00
C980   C     0.06157   0.30843   0.83273   0.00000  Uiso   1.00
C981   C     0.30997   0.44012   0.83311   0.00000  Uiso   1.00
C982   C     0.19001   0.05986   0.83355   0.00000  Uiso   1.00
C983   C     0.18843   0.44157   0.83393   0.00000  Uiso   1.00
C984   C     0.31158   0.05842   0.83273   0.00000  Uiso   1.00
H985   H     0.49446   0.32027   0.70825   0.00000  Uiso   1.00
H986   H     0.00554   0.17973   0.95842   0.00000  Uiso   1.00
H987   H     0.00536   0.17970   0.70958   0.00000  Uiso   1.00
H988   H     0.49464   0.32030   0.95709   0.00000  Uiso   1.00
H989   H     0.24446   0.07027   0.70825   0.00000  Uiso   1.00
H990   H     0.25554   0.42973   0.95842   0.00000  Uiso   1.00
H991   H     0.25536   0.42970   0.70958   0.00000  Uiso   1.00
H992   H     0.24464   0.07030   0.95709   0.00000  Uiso   1.00
N993   N     0.00000   0.25000   0.95240   0.00000  Uiso   1.00
N994   N    -0.00000   0.25000   0.71427   0.00000  Uiso   1.00
N995   N     0.25000   0.00000   0.95240   0.00000  Uiso   1.00
N996   N     0.25000   0.00000   0.71427   0.00000  Uiso   1.00
Zn997  Zn   -0.00000   0.25000   0.88437   0.00000  Uiso   1.00
Zn998  Zn   -0.00000   0.25000   0.78229   0.00000  Uiso   1.00
Zn999  Zn    0.25000   0.00000   0.88437   0.00000  Uiso   1.00
Zn1000 Zn    0.25000   0.00000   0.78229   0.00000  Uiso   1.00
C1001  C     0.49695   0.28908   0.69030   0.00000  Uiso   1.00
C1002  C     0.00305   0.21092   0.97636   0.00000  Uiso   1.00
C1003  C     0.00300   0.21092   0.69104   0.00000  Uiso   1.00
C1004  C     0.49700   0.28908   0.97563   0.00000  Uiso   1.00
C1005  C     0.24695   0.03908   0.69030   0.00000  Uiso   1.00
C1006  C     0.25305   0.46092   0.97636   0.00000  Uiso   1.00
C1007  C     0.25300   0.46092   0.69104   0.00000  Uiso   1.00
C1008  C     0.24700   0.03908   0.97563   0.00000  Uiso   1.00
C1009  C     0.37927   0.15413   0.79564   0.00000  Uiso   1.00
C1010  C     0.12070   0.34590   0.87104   0.00000  Uiso   1.00
C1011  C     0.10215   0.36790   0.79297   0.00000  Uiso   1.00
C1012  C     0.39786   0.13208   0.87368   0.00000  Uiso   1.00
C1013  C     0.08305   0.11459   0.85078   0.00000  Uiso   1.00
C1014  C     0.41686   0.38534   0.81558   0.00000  Uiso   1.00
C1015  C     0.36603   0.33259   0.85231   0.00000  Uiso   1.00
C1016  C     0.13410   0.16753   0.81469   0.00000  Uiso   1.00
C1017  C     0.12930   0.40410   0.79562   0.00000  Uiso   1.00
C1018  C     0.37073   0.09587   0.87102   0.00000  Uiso   1.00
C1019  C     0.35214   0.11792   0.79298   0.00000  Uiso   1.00
C1020  C     0.14785   0.38210   0.87369   0.00000  Uiso   1.00
C1021  C     0.33314   0.36466   0.85108   0.00000  Uiso   1.00
C1022  C     0.16696   0.13542   0.81589   0.00000  Uiso   1.00
C1023  C     0.11591   0.08249   0.85199   0.00000  Uiso   1.00
C1024  C     0.38398   0.41741   0.81436   0.00000  Uiso   1.00
C1025  C     0.09645   0.33996   0.83146   0.00000  Uiso   1.00
C1026  C     0.40355   0.16004   0.83521   0.00000  Uiso   1.00
C1027  C     0.40734   0.34336   0.83441   0.00000  Uiso   1.00
C1028  C     0.09269   0.15667   0.83226   0.00000  Uiso   1.00
C1029  C     0.34645   0.08995   0.83145   0.00000  Uiso   1.00
C1030  C     0.15355   0.41004   0.83520   0.00000  Uiso   1.00
C1031  C     0.15732   0.09334   0.83441   0.00000  Uiso   1.00
C1032  C     0.34266   0.40664   0.83225   0.00000  Uiso   1.00
N1033  N     0.38145   0.18521   0.75817   0.00000  Uiso   1.00
O1034  O     0.37131   0.22697   0.76429   0.00000  Uiso   1.00
O1035  O     0.39365   0.17188   0.71796   0.00000  Uiso   1.00
N1036  N     0.11849   0.31485   0.90855   0.00000  Uiso   1.00
O1037  O     0.12864   0.27309   0.90248   0.00000  Uiso   1.00
O1038  O     0.10626   0.32823   0.94873   0.00000  Uiso   1.00
N1039  N     0.08040   0.36017   0.75107   0.00000  Uiso   1.00
O1040  O     0.09455   0.32850   0.72459   0.00000  Uiso   1.00
O1041  O     0.05286   0.38960   0.73543   0.00000  Uiso   1.00
N1042  N     0.41962   0.13981   0.91559   0.00000  Uiso   1.00
O1043  O     0.40547   0.17146   0.94208   0.00000  Uiso   1.00
O1044  O     0.44718   0.11038   0.93120   0.00000  Uiso   1.00
N1045  N     0.04016   0.10454   0.86831   0.00000  Uiso   1.00
O1046  O     0.03540   0.08533   0.90785   0.00000  Uiso   1.00
O1047  O     0.00607   0.11158   0.84342   0.00000  Uiso   1.00
N1048  N     0.45968   0.39533   0.79781   0.00000  Uiso   1.00
O1049  O     0.46427   0.41436   0.75816   0.00000  Uiso   1.00
O1050  O     0.49386   0.38845   0.82260   0.00000  Uiso   1.00
N1051  N     0.35675   0.28838   0.86869   0.00000  Uiso   1.00
O1052  O     0.32684   0.26506   0.84951   0.00000  Uiso   1.00
O1053  O     0.37384   0.27383   0.90621   0.00000  Uiso   1.00
N1054  N     0.14350   0.21184   0.79868   0.00000  Uiso   1.00
O1055  O     0.17363   0.23483   0.81790   0.00000  Uiso   1.00
O1056  O     0.12623   0.22687   0.76144   0.00000  Uiso   1.00
N1057  N     0.13152   0.43514   0.75811   0.00000  Uiso   1.00
O1058  O     0.12137   0.47690   0.76417   0.00000  Uiso   1.00
O1059  O     0.14376   0.42176   0.71793   0.00000  Uiso   1.00
N1060  N     0.36855   0.06479   0.90850   0.00000  Uiso   1.00
O1061  O     0.37869   0.02303   0.90237   0.00000  Uiso   1.00
O1062  O     0.35636   0.07812   0.94871   0.00000  Uiso   1.00
N1063  N     0.33039   0.11019   0.75108   0.00000  Uiso   1.00
O1064  O     0.34454   0.07853   0.72459   0.00000  Uiso   1.00
O1065  O     0.30283   0.13961   0.73546   0.00000  Uiso   1.00
N1066  N     0.16960   0.38983   0.91559   0.00000  Uiso   1.00
O1067  O     0.15545   0.42150   0.94207   0.00000  Uiso   1.00
O1068  O     0.19714   0.36040   0.93123   0.00000  Uiso   1.00
N1069  N     0.29032   0.35467   0.86884   0.00000  Uiso   1.00
O1070  O     0.28572   0.33563   0.90850   0.00000  Uiso   1.00
O1071  O     0.25614   0.36156   0.84406   0.00000  Uiso   1.00
N1072  N     0.20985   0.14546   0.79834   0.00000  Uiso   1.00
O1073  O     0.21459   0.16467   0.75880   0.00000  Uiso   1.00
O1074  O     0.24394   0.13843   0.82323   0.00000  Uiso   1.00
N1075  N     0.10652   0.03818   0.86803   0.00000  Uiso   1.00
O1076  O     0.07645   0.01514   0.84877   0.00000  Uiso   1.00
O1077  O     0.12374   0.02322   0.90533   0.00000  Uiso   1.00
N1078  N     0.39326   0.46162   0.79799   0.00000  Uiso   1.00
O1079  O     0.42318   0.48493   0.81715   0.00000  Uiso   1.00
O1080  O     0.37615   0.47618   0.76047   0.00000  Uiso   1.00
O1081  O     0.54580   0.20419   0.87154   0.00000  Uiso   1.00
O1082  O     0.95419   0.29581   0.79513   0.00000  Uiso   1.00
O1083  O     0.95419   0.29581   0.87154   0.00000  Uiso   1.00
O1084  O     0.54580   0.20419   0.79513   0.00000  Uiso   1.00
O1085  O     0.95419   0.20419   0.79513   0.00000  Uiso   1.00
O1086  O     0.54580   0.29581   0.87154   0.00000  Uiso   1.00
O1087  O     0.54580   0.29581   0.79513   0.00000  Uiso   1.00
O1088  O     0.95419   0.20419   0.87154   0.00000  Uiso   1.00
O1089  O     0.79580   0.45419   0.87154   0.00000  Uiso   1.00
O1090  O     0.70419   0.04581   0.79513   0.00000  Uiso   1.00
O1091  O     0.70419   0.04581   0.87154   0.00000  Uiso   1.00
O1092  O     0.79580   0.45419   0.79513   0.00000  Uiso   1.00
O1093  O     0.70419   0.45419   0.79513   0.00000  Uiso   1.00
O1094  O     0.79580   0.04581   0.87154   0.00000  Uiso   1.00
O1095  O     0.79580   0.04581   0.79513   0.00000  Uiso   1.00
O1096  O     0.70419   0.45419   0.87154   0.00000  Uiso   1.00
C1097  C     0.55999   0.19014   0.83311   0.00000  Uiso   1.00
C1098  C     0.94003   0.30988   0.83355   0.00000  Uiso   1.00
C1099  C     0.93842   0.19158   0.83393   0.00000  Uiso   1.00
C1100  C     0.56157   0.30843   0.83273   0.00000  Uiso   1.00
C1101  C     0.80997   0.44012   0.83311   0.00000  Uiso   1.00
C1102  C     0.69001   0.05986   0.83355   0.00000  Uiso   1.00
C1103  C     0.68843   0.44157   0.83393   0.00000  Uiso   1.00
C1104  C     0.81158   0.05842   0.83273   0.00000  Uiso   1.00
H1105  H     0.99446   0.32027   0.70825   0.00000  Uiso   1.00
H1106  H     0.50554   0.17973   0.95842   0.00000  Uiso   1.00
H1107  H     0.50536   0.17970   0.70958   0.00000  Uiso   1.00
H1108  H     0.99464   0.32030   0.95709   0.00000  Uiso   1.00
H1109  H     0.74446   0.07027   0.70825   0.00000  Uiso   1.00
H1110  H     0.75554   0.42973   0.95842   0.00000  Uiso   1.00
H1111  H     0.75536   0.42970   0.70958   0.00000  Uiso   1.00
H1112  H     0.74464   0.07030   0.95709   0.00000  Uiso   1.00
N1113  N     0.50000   0.25000   0.95240   0.00000  Uiso   1.00
N1114  N     0.50000   0.25000   0.71427   0.00000  Uiso   1.00
N1115  N     0.75000   0.00000   0.95240   0.00000  Uiso   1.00
N1116  N     0.75000   0.00000   0.71427   0.00000  Uiso   1.00
Zn1117 Zn    0.50000   0.25000   0.88437   0.00000  Uiso   1.00
Zn1118 Zn    0.50000   0.25000   0.78229   0.00000  Uiso   1.00
Zn1119 Zn    0.75000   0.00000   0.88437   0.00000  Uiso   1.00
Zn1120 Zn    0.75000   0.00000   0.78229   0.00000  Uiso   1.00
C1121  C     0.99695   0.28908   0.69030   0.00000  Uiso   1.00
C1122  C     0.50305   0.21092   0.97636   0.00000  Uiso   1.00
C1123  C     0.50300   0.21092   0.69104   0.00000  Uiso   1.00
C1124  C     0.99700   0.28908   0.97563   0.00000  Uiso   1.00
C1125  C     0.74695   0.03908   0.69030   0.00000  Uiso   1.00
C1126  C     0.75305   0.46092   0.97636   0.00000  Uiso   1.00
C1127  C     0.75300   0.46092   0.69104   0.00000  Uiso   1.00
C1128  C     0.74700   0.03908   0.97563   0.00000  Uiso   1.00
C1129  C     0.87927   0.15413   0.79564   0.00000  Uiso   1.00
C1130  C     0.62070   0.34590   0.87104   0.00000  Uiso   1.00
C1131  C     0.60215   0.36790   0.79297   0.00000  Uiso   1.00
C1132  C     0.89786   0.13208   0.87368   0.00000  Uiso   1.00
C1133  C     0.58305   0.11459   0.85078   0.00000  Uiso   1.00
C1134  C     0.91686   0.38534   0.81558   0.00000  Uiso   1.00
C1135  C     0.86603   0.33259   0.85231   0.00000  Uiso   1.00
C1136  C     0.63410   0.16753   0.81469   0.00000  Uiso   1.00
C1137  C     0.62930   0.40410   0.79562   0.00000  Uiso   1.00
C1138  C     0.87073   0.09587   0.87102   0.00000  Uiso   1.00
C1139  C     0.85214   0.11792   0.79298   0.00000  Uiso   1.00
C1140  C     0.64785   0.38210   0.87369   0.00000  Uiso   1.00
C1141  C     0.83314   0.36466   0.85108   0.00000  Uiso   1.00
C1142  C     0.66696   0.13542   0.81589   0.00000  Uiso   1.00
C1143  C     0.61591   0.08249   0.85199   0.00000  Uiso   1.00
C1144  C     0.88398   0.41741   0.81436   0.00000  Uiso   1.00
C1145  C     0.59645   0.33996   0.83146   0.00000  Uiso   1.00
C1146  C     0.90355   0.16004   0.83521   0.00000  Uiso   1.00
C1147  C     0.90734   0.34336   0.83441   0.00000  Uiso   1.00
C1148  C     0.59269   0.15667   0.83226   0.00000  Uiso   1.00
C1149  C     0.84645   0.08995   0.83145   0.00000  Uiso   1.00
C1150  C     0.65355   0.41004   0.83520   0.00000  Uiso   1.00
C1151  C     0.65732   0.09334   0.83441   0.00000  Uiso   1.00
C1152  C     0.84266   0.40664   0.83225   0.00000  Uiso   1.00
N1153  N     0.88145   0.18521   0.75817   0.00000  Uiso   1.00
O1154  O     0.87131   0.22697   0.76429   0.00000  Uiso   1.00
O1155  O     0.89365   0.17188   0.71796   0.00000  Uiso   1.00
N1156  N     0.61849   0.31485   0.90855   0.00000  Uiso   1.00
O1157  O     0.62864   0.27309   0.90248   0.00000  Uiso   1.00
O1158  O     0.60626   0.32823   0.94873   0.00000  Uiso   1.00
N1159  N     0.58040   0.36017   0.75107   0.00000  Uiso   1.00
O1160  O     0.59455   0.32850   0.72459   0.00000  Uiso   1.00
O1161  O     0.55286   0.38960   0.73543   0.00000  Uiso   1.00
N1162  N     0.91962   0.13981   0.91559   0.00000  Uiso   1.00
O1163  O     0.90547   0.17146   0.94208   0.00000  Uiso   1.00
O1164  O     0.94718   0.11038   0.93120   0.00000  Uiso   1.00
N1165  N     0.54016   0.10454   0.86831   0.00000  Uiso   1.00
O1166  O     0.53540   0.08533   0.90785   0.00000  Uiso   1.00
O1167  O     0.50607   0.11158   0.84342   0.00000  Uiso   1.00
N1168  N     0.95968   0.39533   0.79781   0.00000  Uiso   1.00
O1169  O     0.96427   0.41436   0.75816   0.00000  Uiso   1.00
O1170  O     0.99386   0.38845   0.82260   0.00000  Uiso   1.00
N1171  N     0.85675   0.28838   0.86869   0.00000  Uiso   1.00
O1172  O     0.82684   0.26506   0.84951   0.00000  Uiso   1.00
O1173  O     0.87384   0.27383   0.90621   0.00000  Uiso   1.00
N1174  N     0.64350   0.21184   0.79868   0.00000  Uiso   1.00
O1175  O     0.67363   0.23483   0.81790   0.00000  Uiso   1.00
O1176  O     0.62623   0.22687   0.76144   0.00000  Uiso   1.00
N1177  N     0.63152   0.43514   0.75811   0.00000  Uiso   1.00
O1178  O     0.62137   0.47690   0.76417   0.00000  Uiso   1.00
O1179  O     0.64376   0.42176   0.71793   0.00000  Uiso   1.00
N1180  N     0.86855   0.06479   0.90850   0.00000  Uiso   1.00
O1181  O     0.87869   0.02303   0.90237   0.00000  Uiso   1.00
O1182  O     0.85636   0.07812   0.94871   0.00000  Uiso   1.00
N1183  N     0.83039   0.11019   0.75108   0.00000  Uiso   1.00
O1184  O     0.84454   0.07853   0.72459   0.00000  Uiso   1.00
O1185  O     0.80283   0.13961   0.73546   0.00000  Uiso   1.00
N1186  N     0.66960   0.38983   0.91559   0.00000  Uiso   1.00
O1187  O     0.65545   0.42150   0.94207   0.00000  Uiso   1.00
O1188  O     0.69714   0.36040   0.93123   0.00000  Uiso   1.00
N1189  N     0.79032   0.35467   0.86884   0.00000  Uiso   1.00
O1190  O     0.78572   0.33563   0.90850   0.00000  Uiso   1.00
O1191  O     0.75614   0.36156   0.84406   0.00000  Uiso   1.00
N1192  N     0.70985   0.14546   0.79834   0.00000  Uiso   1.00
O1193  O     0.71459   0.16467   0.75880   0.00000  Uiso   1.00
O1194  O     0.74394   0.13843   0.82323   0.00000  Uiso   1.00
N1195  N     0.60652   0.03818   0.86803   0.00000  Uiso   1.00
O1196  O     0.57645   0.01514   0.84877   0.00000  Uiso   1.00
O1197  O     0.62374   0.02322   0.90533   0.00000  Uiso   1.00
N1198  N     0.89326   0.46162   0.79799   0.00000  Uiso   1.00
O1199  O     0.92318   0.48493   0.81715   0.00000  Uiso   1.00
O1200  O     0.87615   0.47618   0.76047   0.00000  Uiso   1.00
O1201  O     0.04580   0.70419   0.87154   0.00000  Uiso   1.00
O1202  O     0.45419   0.79581   0.79513   0.00000  Uiso   1.00
O1203  O     0.45419   0.79581   0.87154   0.00000  Uiso   1.00
O1204  O     0.04580   0.70419   0.79513   0.00000  Uiso   1.00
O1205  O     0.45419   0.70419   0.79513   0.00000  Uiso   1.00
O1206  O     0.04580   0.79581   0.87154   0.00000  Uiso   1.00
O1207  O     0.04580   0.79581   0.79513   0.00000  Uiso   1.00
O1208  O     0.45419   0.70419   0.87154   0.00000  Uiso   1.00
O1209  O     0.29580   0.95419   0.87154   0.00000  Uiso   1.00
O1210  O     0.20419   0.54581   0.79513   0.00000  Uiso   1.00
O1211  O     0.20419   0.54581   0.87154   0.00000  Uiso   1.00
O1212  O     0.29580   0.95419   0.79513   0.00000  Uiso   1.00
O1213  O     0.20419   0.95419   0.79513   0.00000  Uiso   1.00
O1214  O     0.29580   0.54581   0.87154   0.00000  Uiso   1.00
O1215  O     0.29580   0.54581   0.79513   0.00000  Uiso   1.00
O1216  O     0.20419   0.95419   0.87154   0.00000  Uiso   1.00
C1217  C     0.05999   0.69014   0.83311   0.00000  Uiso   1.00
C1218  C     0.44003   0.80988   0.83355   0.00000  Uiso   1.00
C1219  C     0.43842   0.69158   0.83393   0.00000  Uiso   1.00
C1220  C     0.06157   0.80843   0.83273   0.00000  Uiso   1.00
C1221  C     0.30997   0.94012   0.83311   0.00000  Uiso   1.00
C1222  C     0.19001   0.55986   0.83355   0.00000  Uiso   1.00
C1223  C     0.18843   0.94157   0.83393   0.00000  Uiso   1.00
C1224  C     0.31158   0.55842   0.83273   0.00000  Uiso   1.00
H1225  H     0.49446   0.82027   0.70825   0.00000  Uiso   1.00
H1226  H     0.00554   0.67973   0.95842   0.00000  Uiso   1.00
H1227  H     0.00536   0.67970   0.70958   0.00000  Uiso   1.00
H1228  H     0.49464   0.82030   0.95709   0.00000  Uiso   1.00
H1229  H     0.24446   0.57027   0.70825   0.00000  Uiso   1.00
H1230  H     0.25554   0.92973   0.95842   0.00000  Uiso   1.00
H1231  H     0.25536   0.92970   0.70958   0.00000  Uiso   1.00
H1232  H     0.24464   0.57030   0.95709   0.00000  Uiso   1.00
N1233  N     0.00000   0.75000   0.95240   0.00000  Uiso   1.00
N1234  N    -0.00000   0.75000   0.71427   0.00000  Uiso   1.00
N1235  N     0.25000   0.50000   0.95240   0.00000  Uiso   1.00
N1236  N     0.25000   0.50000   0.71427   0.00000  Uiso   1.00
Zn1237 Zn   -0.00000   0.75000   0.88437   0.00000  Uiso   1.00
Zn1238 Zn   -0.00000   0.75000   0.78229   0.00000  Uiso   1.00
Zn1239 Zn    0.25000   0.50000   0.88437   0.00000  Uiso   1.00
Zn1240 Zn    0.25000   0.50000   0.78229   0.00000  Uiso   1.00
C1241  C     0.49695   0.78908   0.69030   0.00000  Uiso   1.00
C1242  C     0.00305   0.71092   0.97636   0.00000  Uiso   1.00
C1243  C     0.00300   0.71092   0.69104   0.00000  Uiso   1.00
C1244  C     0.49700   0.78908   0.97563   0.00000  Uiso   1.00
C1245  C     0.24695   0.53908   0.69030   0.00000  Uiso   1.00
C1246  C     0.25305   0.96092   0.97636   0.00000  Uiso   1.00
C1247  C     0.25300   0.96092   0.69104   0.00000  Uiso   1.00
C1248  C     0.24700   0.53908   0.97563   0.00000  Uiso   1.00
C1249  C     0.37927   0.65413   0.79564   0.00000  Uiso   1.00
C1250  C     0.12070   0.84590   0.87104   0.00000  Uiso   1.00
C1251  C     0.10215   0.86790   0.79297   0.00000  Uiso   1.00
C1252  C     0.39786   0.63208   0.87368   0.00000  Uiso   1.00
C1253  C     0.08305   0.61459   0.85078   0.00000  Uiso   1.00
C1254  C     0.41686   0.88534   0.81558   0.00000  Uiso   1.00
C1255  C     0.36603   0.83259   0.85231   0.00000  Uiso   1.00
C1256  C     0.13410   0.66753   0.81469   0.00000  Uiso   1.00
C1257  C     0.12930   0.90410   0.79562   0.00000  Uiso   1.00
C1258  C     0.37073   0.59587   0.87102   0.00000  Uiso   1.00
C1259  C     0.35214   0.61792   0.79298   0.00000  Uiso   1.00
C1260  C     0.14785   0.88210   0.87369   0.00000  Uiso   1.00
C1261  C     0.33314   0.86466   0.85108   0.00000  Uiso   1.00
C1262  C     0.16696   0.63542   0.81589   0.00000  Uiso   1.00
C1263  C     0.11591   0.58249   0.85199   0.00000  Uiso   1.00
C1264  C     0.38398   0.91741   0.81436   0.00000  Uiso   1.00
C1265  C     0.09645   0.83996   0.83146   0.00000  Uiso   1.00
C1266  C     0.40355   0.66004   0.83521   0.00000  Uiso   1.00
C1267  C     0.40734   0.84336   0.83441   0.00000  Uiso   1.00
C1268  C     0.09269   0.65667   0.83226   0.00000  Uiso   1.00
C1269  C     0.34645   0.58995   0.83145   0.00000  Uiso   1.00
C1270  C     0.15355   0.91004   0.83520   0.00000  Uiso   1.00
C1271  C     0.15732   0.59334   0.83441   0.00000  Uiso   1.00
C1272  C     0.34266   0.90664   0.83225   0.00000  Uiso   1.00
N1273  N     0.38145   0.68521   0.75817   0.00000  Uiso   1.00
O1274  O     0.37131   0.72697   0.76429   0.00000  Uiso   1.00
O1275  O     0.39365   0.67188   0.71796   0.00000  Uiso   1.00
N1276  N     0.11849   0.81485   0.90855   0.00000  Uiso   1.00
O1277  O     0.12864   0.77309   0.90248   0.00000  Uiso   1.00
O1278  O     0.10626   0.82823   0.94873   0.00000  Uiso   1.00
N1279  N     0.08040   0.86017   0.75107   0.00000  Uiso   1.00
O1280  O     0.09455   0.82850   0.72459   0.00000  Uiso   1.00
O1281  O     0.05286   0.88960   0.73543   0.00000  Uiso   1.00
N1282  N     0.41962   0.63981   0.91559   0.00000  Uiso   1.00
O1283  O     0.40547   0.67146   0.94208   0.00000  Uiso   1.00
O1284  O     0.44718   0.61038   0.93120   0.00000  Uiso   1.00
N1285  N     0.04016   0.60454   0.86831   0.00000  Uiso   1.00
O1286  O     0.03540   0.58533   0.90785   0.00000  Uiso   1.00
O1287  O     0.00607   0.61158   0.84342   0.00000  Uiso   1.00
N1288  N     0.45968   0.89533   0.79781   0.00000  Uiso   1.00
O1289  O     0.46427   0.91436   0.75816   0.00000  Uiso   1.00
O1290  O     0.49386   0.88845   0.82260   0.00000  Uiso   1.00
N1291  N     0.35675   0.78838   0.86869   0.00000  Uiso   1.00
O1292  O     0.32684   0.76506   0.84951   0.00000  Uiso   1.00
O1293  O     0.37384   0.77383   0.90621   0.00000  Uiso   1.00
N1294  N     0.14350   0.71184   0.79868   0.00000  Uiso   1.00
O1295  O     0.17363   0.73483   0.81790   0.00000  Uiso   1.00
O1296  O     0.12623   0.72687   0.76144   0.00000  Uiso   1.00
N1297  N     0.13152   0.93514   0.75811   0.00000  Uiso   1.00
O1298  O     0.12137   0.97690   0.76417   0.00000  Uiso   1.00
O1299  O     0.14376   0.92176   0.71793   0.00000  Uiso   1.00
N1300  N     0.36855   0.56479   0.90850   0.00000  Uiso   1.00
O1301  O     0.37869   0.52303   0.90237   0.00000  Uiso   1.00
O1302  O     0.35636   0.57812   0.94871   0.00000  Uiso   1.00
N1303  N     0.33039   0.61019   0.75108   0.00000  Uiso   1.00
O1304  O     0.34454   0.57853   0.72459   0.00000  Uiso   1.00
O1305  O     0.30283   0.63961   0.73546   0.00000  Uiso   1.00
N1306  N     0.16960   0.88983   0.91559   0.00000  Uiso   1.00
O1307  O     0.15545   0.92150   0.94207   0.00000  Uiso   1.00
O1308  O     0.19714   0.86040   0.93123   0.00000  Uiso   1.00
N1309  N     0.29032   0.85467   0.86884   0.00000  Uiso   1.00
O1310  O     0.28572   0.83563   0.90850   0.00000  Uiso   1.00
O1311  O     0.25614   0.86156   0.84406   0.00000  Uiso   1.00
N1312  N     0.20985   0.64546   0.79834   0.00000  Uiso   1.00
O1313  O     0.21459   0.66467   0.75880   0.00000  Uiso   1.00
O1314  O     0.24394   0.63843   0.82323   0.00000  Uiso   1.00
N1315  N     0.10652   0.53818   0.86803   0.00000  Uiso   1.00
O1316  O     0.07645   0.51514   0.84877   0.00000  Uiso   1.00
O1317  O     0.12374   0.52322   0.90533   0.00000  Uiso   1.00
N1318  N     0.39326   0.96162   0.79799   0.00000  Uiso   1.00
O1319  O     0.42318   0.98493   0.81715   0.00000  Uiso   1.00
O1320  O     0.37615   0.97618   0.76047   0.00000  Uiso   1.00
O1321  O     0.54580   0.70419   0.87154   0.00000  Uiso   1.00
O1322  O     0.95419   0.79581   0.79513   0.00000  Uiso   1.00
O1323  O     0.95419   0.79581   0.87154   0.00000  Uiso   1.00
O1324  O     0.54580   0.70419   0.79513   0.00000  Uiso   1.00
O1325  O     0.95419   0.70419   0.79513   0.00000  Uiso   1.00
O1326  O     0.54580   0.79581   0.87154   0.00000  Uiso   1.00
O1327  O     0.54580   0.79581   0.79513   0.00000  Uiso   1.00
O1328  O     0.95419   0.70419   0.87154   0.00000  Uiso   1.00
O1329  O     0.79580   0.95419   0.87154   0.00000  Uiso   1.00
O1330  O     0.70419   0.54581   0.79513   0.00000  Uiso   1.00
O1331  O     0.70419   0.54581   0.87154   0.00000  Uiso   1.00
O1332  O     0.79580   0.95419   0.79513   0.00000  Uiso   1.00
O1333  O     0.70419   0.95419   0.79513   0.00000  Uiso   1.00
O1334  O     0.79580   0.54581   0.87154   0.00000  Uiso   1.00
O1335  O     0.79580   0.54581   0.79513   0.00000  Uiso   1.00
O1336  O     0.70419   0.95419   0.87154   0.00000  Uiso   1.00
C1337  C     0.55999   0.69014   0.83311   0.00000  Uiso   1.00
C1338  C     0.94003   0.80988   0.83355   0.00000  Uiso   1.00
C1339  C     0.93842   0.69158   0.83393   0.00000  Uiso   1.00
C1340  C     0.56157   0.80843   0.83273   0.00000  Uiso   1.00
C1341  C     0.80997   0.94012   0.83311   0.00000  Uiso   1.00
C1342  C     0.69001   0.55986   0.83355   0.00000  Uiso   1.00
C1343  C     0.68843   0.94157   0.83393   0.00000  Uiso   1.00
C1344  C     0.81158   0.55842   0.83273   0.00000  Uiso   1.00
H1345  H     0.99446   0.82027   0.70825   0.00000  Uiso   1.00
H1346  H     0.50554   0.67973   0.95842   0.00000  Uiso   1.00
H1347  H     0.50536   0.67970   0.70958   0.00000  Uiso   1.00
H1348  H     0.99464   0.82030   0.95709   0.00000  Uiso   1.00
H1349  H     0.74446   0.57027   0.70825   0.00000  Uiso   1.00
H1350  H     0.75554   0.92973   0.95842   0.00000  Uiso   1.00
H1351  H     0.75536   0.92970   0.70958   0.00000  Uiso   1.00
H1352  H     0.74464   0.57030   0.95709   0.00000  Uiso   1.00
N1353  N     0.50000   0.75000   0.95240   0.00000  Uiso   1.00
N1354  N     0.50000   0.75000   0.71427   0.00000  Uiso   1.00
N1355  N     0.75000   0.50000   0.95240   0.00000  Uiso   1.00
N1356  N     0.75000   0.50000   0.71427   0.00000  Uiso   1.00
Zn1357 Zn    0.50000   0.75000   0.88437   0.00000  Uiso   1.00
Zn1358 Zn    0.50000   0.75000   0.78229   0.00000  Uiso   1.00
Zn1359 Zn    0.75000   0.50000   0.88437   0.00000  Uiso   1.00
Zn1360 Zn    0.75000   0.50000   0.78229   0.00000  Uiso   1.00
C1361  C     0.99695   0.78908   0.69030   0.00000  Uiso   1.00
C1362  C     0.50305   0.71092   0.97636   0.00000  Uiso   1.00
C1363  C     0.50300   0.71092   0.69104   0.00000  Uiso   1.00
C1364  C     0.99700   0.78908   0.97563   0.00000  Uiso   1.00
C1365  C     0.74695   0.53908   0.69030   0.00000  Uiso   1.00
C1366  C     0.75305   0.96092   0.97636   0.00000  Uiso   1.00
C1367  C     0.75300   0.96092   0.69104   0.00000  Uiso   1.00
C1368  C     0.74700   0.53908   0.97563   0.00000  Uiso   1.00
C1369  C     0.87927   0.65413   0.79564   0.00000  Uiso   1.00
C1370  C     0.62070   0.84590   0.87104   0.00000  Uiso   1.00
C1371  C     0.60215   0.86790   0.79297   0.00000  Uiso   1.00
C1372  C     0.89786   0.63208   0.87368   0.00000  Uiso   1.00
C1373  C     0.58305   0.61459   0.85078   0.00000  Uiso   1.00
C1374  C     0.91686   0.88534   0.81558   0.00000  Uiso   1.00
C1375  C     0.86603   0.83259   0.85231   0.00000  Uiso   1.00
C1376  C     0.63410   0.66753   0.81469   0.00000  Uiso   1.00
C1377  C     0.62930   0.90410   0.79562   0.00000  Uiso   1.00
C1378  C     0.87073   0.59587   0.87102   0.00000  Uiso   1.00
C1379  C     0.85214   0.61792   0.79298   0.00000  Uiso   1.00
C1380  C     0.64785   0.88210   0.87369   0.00000  Uiso   1.00
C1381  C     0.83314   0.86466   0.85108   0.00000  Uiso   1.00
C1382  C     0.66696   0.63542   0.81589   0.00000  Uiso   1.00
C1383  C     0.61591   0.58249   0.85199   0.00000  Uiso   1.00
C1384  C     0.88398   0.91741   0.81436   0.00000  Uiso   1.00
C1385  C     0.59645   0.83996   0.83146   0.00000  Uiso   1.00
C1386  C     0.90355   0.66004   0.83521   0.00000  Uiso   1.00
C1387  C     0.90734   0.84336   0.83441   0.00000  Uiso   1.00
C1388  C     0.59269   0.65667   0.83226   0.00000  Uiso   1.00
C1389  C     0.84645   0.58995   0.83145   0.00000  Uiso   1.00
C1390  C     0.65355   0.91004   0.83520   0.00000  Uiso   1.00
C1391  C     0.65732   0.59334   0.83441   0.00000  Uiso   1.00
C1392  C     0.84266   0.90664   0.83225   0.00000  Uiso   1.00
N1393  N     0.88145   0.68521   0.75817   0.00000  Uiso   1.00
O1394  O     0.87131   0.72697   0.76429   0.00000  Uiso   1.00
O1395  O     0.89365   0.67188   0.71796   0.00000  Uiso   1.00
N1396  N     0.61849   0.81485   0.90855   0.00000  Uiso   1.00
O1397  O     0.62864   0.77309   0.90248   0.00000  Uiso   1.00
O1398  O     0.60626   0.82823   0.94873   0.00000  Uiso   1.00
N1399  N     0.58040   0.86017   0.75107   0.00000  Uiso   1.00
O1400  O     0.59455   0.82850   0.72459   0.00000  Uiso   1.00
O1401  O     0.55286   0.88960   0.73543   0.00000  Uiso   1.00
N1402  N     0.91962   0.63981   0.91559   0.00000  Uiso   1.00
O1403  O     0.90547   0.67146   0.94208   0.00000  Uiso   1.00
O1404  O     0.94718   0.61038   0.93120   0.00000  Uiso   1.00
N1405  N     0.54016   0.60454   0.86831   0.00000  Uiso   1.00
O1406  O     0.53540   0.58533   0.90785   0.00000  Uiso   1.00
O1407  O     0.50607   0.61158   0.84342   0.00000  Uiso   1.00
N1408  N     0.95968   0.89533   0.79781   0.00000  Uiso   1.00
O1409  O     0.96427   0.91436   0.75816   0.00000  Uiso   1.00
O1410  O     0.99386   0.88845   0.82260   0.00000  Uiso   1.00
N1411  N     0.85675   0.78838   0.86869   0.00000  Uiso   1.00
O1412  O     0.82684   0.76506   0.84951   0.00000  Uiso   1.00
O1413  O     0.87384   0.77383   0.90621   0.00000  Uiso   1.00
N1414  N     0.64350   0.71184   0.79868   0.00000  Uiso   1.00
O1415  O     0.67363   0.73483   0.81790   0.00000  Uiso   1.00
O1416  O     0.62623   0.72687   0.76144   0.00000  Uiso   1.00
N1417  N     0.63152   0.93514   0.75811   0.00000  Uiso   1.00
O1418  O     0.62137   0.97690   0.76417   0.00000  Uiso   1.00
O1419  O     0.64376   0.92176   0.71793   0.00000  Uiso   1.00
N1420  N     0.86855   0.56479   0.90850   0.00000  Uiso   1.00
O1421  O     0.87869   0.52303   0.90237   0.00000  Uiso   1.00
O1422  O     0.85636   0.57812   0.94871   0.00000  Uiso   1.00
N1423  N     0.83039   0.61019   0.75108   0.00000  Uiso   1.00
O1424  O     0.84454   0.57853   0.72459   0.00000  Uiso   1.00
O1425  O     0.80283   0.63961   0.73546   0.00000  Uiso   1.00
N1426  N     0.66960   0.88983   0.91559   0.00000  Uiso   1.00
O1427  O     0.65545   0.92150   0.94207   0.00000  Uiso   1.00
O1428  O     0.69714   0.86040   0.93123   0.00000  Uiso   1.00
N1429  N     0.79032   0.85467   0.86884   0.00000  Uiso   1.00
O1430  O     0.78572   0.83563   0.90850   0.00000  Uiso   1.00
O1431  O     0.75614   0.86156   0.84406   0.00000  Uiso   1.00
N1432  N     0.70985   0.64546   0.79834   0.00000  Uiso   1.00
O1433  O     0.71459   0.66467   0.75880   0.00000  Uiso   1.00
O1434  O     0.74394   0.63843   0.82323   0.00000  Uiso   1.00
N1435  N     0.60652   0.53818   0.86803   0.00000  Uiso   1.00
O1436  O     0.57645   0.51514   0.84877   0.00000  Uiso   1.00
O1437  O     0.62374   0.52322   0.90533   0.00000  Uiso   1.00
N1438  N     0.89326   0.96162   0.79799   0.00000  Uiso   1.00
O1439  O     0.92318   0.98493   0.81715   0.00000  Uiso   1.00
O1440  O     0.87615   0.97618   0.76047   0.00000  Uiso   1.00
loop_
_geom_bond_atom_site_label_1
_geom_bond_atom_site_label_2
_geom_bond_distance
_geom_bond_site_symmetry_2
_ccdc_geom_bond_type
O1     C17     1.279   .     A
O1     Zn37    1.986   .     S
O2     C18     1.279   .     A
O2     Zn158   1.986   .     S
O3     C18     1.274   .     A
O3     Zn157   1.991   .     S
O4     C17     1.274   .     A
O4     Zn38    1.991   .     S
O5     Zn158   2.005   .     S
O5     C19     1.288   .     A
O6     C20     1.288   .     A
O6     Zn37    2.005   .     S
O7     C20     1.280   .     A
O7     Zn38    2.021   .     S
O8     C19     1.280   .     A
O8     Zn157   2.021   .     S
O9     Zn279   1.986   .     S
O9     C21     1.279   .     A
O10    C22     1.279   .     A
O10    Zn40    1.986   .     S
O11    C22     1.274   .     A
O11    Zn39    1.991   .     S
O12    C21     1.274   .     A
O12    Zn280   1.991   .     S
O13    C23     1.288   .     A
O13    Zn280   2.005   .     S
O14    C24     1.288   .     A
O14    Zn39    2.005   .     S
O15    C24     1.280   .     A
O15    Zn40    2.021   .     S
O16    C23     1.280   .     A
O16    Zn279   2.021   .     S
C17    C68     1.410   .     S
C18    C67     1.410   .     S
C19    C66     1.436   .     S
C20    C65     1.436   .     S
C21    C72     1.410   .     S
C22    C71     1.410   .     S
C23    C70     1.436   .     S
C24    C69     1.436   .     S
H25    C41     1.082   .     S
H26    C42     1.082   .     S
H27    C43     1.082   .     S
H28    C44     1.082   .     S
H29    C45     1.082   .     S
H30    C46     1.082   .     S
H31    C47     1.082   .     S
H32    C48     1.082   .     S
N33    C42     1.366   .     A
N33    Zn37    2.004   .     S
N33    C164    1.366   1_455 S
N34    C161    1.366   1_455 A
N34    Zn38    2.004   .     S
N34    C43     1.366   .     S
N35    C48     1.366   .     A
N35    Zn39    2.004   .     S
N35    C286    1.366   1_545 S
N36    C287    1.366   1_545 A
N36    Zn40    2.004   .     S
N36    C45     1.366   .     S
Zn37   O123    1.991   1_455 S
Zn37   O128    2.021   1_455 S
Zn38   O125    2.005   1_455 S
Zn38   O122    1.986   1_455 S
Zn39   O249    1.986   1_545 S
Zn39   O256    2.021   1_545 S
Zn40   O253    2.005   1_545 S
Zn40   O252    1.991   1_545 S
C41    N154    1.366   .     A
C41    C1004   1.415   1_554 S
C42    C523    1.415   .     S
C43    C1002   1.415   1_554 S
C44    C521    1.415   .     S
C44    N153    1.366   .     S
C45    C1008   1.415   1_554 S
C46    N275    1.366   .     S
C46    C527    1.415   .     S
C47    N276    1.366   .     A
C47    C1006   1.415   1_554 S
C48    C525    1.415   .     S
C49    C66     1.408   .     A
C49    C59     1.380   .     A
C49    N73     1.439   .     S
C50    N76     1.439   .     S
C50    C60     1.380   .     A
C50    C65     1.408   .     A
C51    C65     1.413   .     A
C51    C57     1.380   .     A
C51    N79     1.436   .     S
C52    N82     1.436   .     S
C52    C58     1.380   .     A
C52    C66     1.413   .     A
C53    C68     1.403   .     A
C53    C63     1.385   .     A
C53    N85     1.437   .     S
C54    C67     1.403   .     A
C54    N88     1.437   .     S
C54    C64     1.385   .     A
C55    N91     1.437   .     S
C55    C67     1.402   .     A
C55    C61     1.385   .     A
C56    N94     1.438   .     S
C56    C68     1.402   .     A
C56    C62     1.385   .     A
C57    C70     1.408   .     A
C57    N97     1.439   .     S
C58    N100    1.439   .     S
C58    C69     1.408   .     A
C59    C69     1.413   .     A
C59    N103    1.436   .     S
C60    N106    1.436   .     S
C60    C70     1.413   .     A
C61    N109    1.437   .     S
C61    C72     1.403   .     A
C62    C71     1.403   .     A
C62    N112    1.437   .     S
C63    N115    1.437   .     S
C63    C71     1.402   .     A
C64    N118    1.437   .     S
C64    C72     1.402   .     A
N73    O75     1.301   .     A
N73    O74     1.301   .     A
N76    O78     1.301   .     A
N76    O77     1.301   .     A
N79    O81     1.301   .     A
N79    O80     1.301   .     A
N82    O84     1.300   .     A
N82    O83     1.301   .     A
N85    O86     1.301   .     A
N85    O87     1.301   .     A
N88    O90     1.301   .     A
N88    O89     1.301   .     A
N91    O92     1.301   .     A
N91    O93     1.301   .     A
N94    O96     1.301   .     A
N94    O95     1.301   .     A
N97    O98     1.301   .     A
N97    O99     1.301   .     A
N100   O102    1.301   .     A
N100   O101    1.301   .     A
N103   O105    1.300   .     A
N103   O104    1.301   .     A
N106   O108    1.301   .     A
N106   O107    1.301   .     A
N109   O111    1.301   .     A
N109   O110    1.301   .     A
N112   O114    1.301   .     A
N112   O113    1.301   .     A
N115   O116    1.301   .     A
N115   O117    1.301   .     A
N118   O119    1.301   .     A
N118   O120    1.301   .     A
O121   C137    1.279   .     A
O121   Zn157   1.986   .     S
O122   C138    1.279   .     A
O122   Zn38    1.986   1_655 S
O123   C138    1.274   .     A
O123   Zn37    1.991   1_655 S
O124   C137    1.274   .     A
O124   Zn158   1.991   .     S
O125   Zn38    2.005   1_655 S
O125   C139    1.288   .     A
O126   C140    1.288   .     A
O126   Zn157   2.005   .     S
O127   C140    1.280   .     A
O127   Zn158   2.021   .     S
O128   C139    1.280   .     A
O128   Zn37    2.021   1_655 S
O129   Zn399   1.986   .     S
O129   C141    1.279   .     A
O130   C142    1.279   .     A
O130   Zn160   1.986   .     S
O131   C142    1.274   .     A
O131   Zn159   1.991   .     S
O132   C141    1.274   .     A
O132   Zn400   1.991   .     S
O133   C143    1.288   .     A
O133   Zn400   2.005   .     S
O134   C144    1.288   .     A
O134   Zn159   2.005   .     S
O135   C144    1.280   .     A
O135   Zn160   2.021   .     S
O136   C143    1.280   .     A
O136   Zn399   2.021   .     S
C137   C188    1.410   .     S
C138   C187    1.410   .     S
C139   C186    1.436   .     S
C140   C185    1.436   .     S
C141   C192    1.410   .     S
C142   C191    1.410   .     S
C143   C190    1.436   .     S
C144   C189    1.436   .     S
H145   C161    1.082   .     S
H146   C162    1.082   .     S
H147   C163    1.082   .     S
H148   C164    1.082   .     S
H149   C165    1.082   .     S
H150   C166    1.082   .     S
H151   C167    1.082   .     S
H152   C168    1.082   .     S
N153   C162    1.366   .     A
N153   Zn157   2.004   .     S
N154   Zn158   2.004   .     S
N154   C163    1.366   .     S
N155   C168    1.366   .     A
N155   Zn159   2.004   .     S
N155   C406    1.366   1_545 S
N156   C407    1.366   1_545 A
N156   Zn160   2.004   .     S
N156   C165    1.366   .     S
Zn159  O369    1.986   1_545 S
Zn159  O376    2.021   1_545 S
Zn160  O373    2.005   1_545 S
Zn160  O372    1.991   1_545 S
C161   N34     1.366   1_655 A
C161   C1124   1.415   1_554 S
C162   C643    1.415   .     S
C163   C1122   1.415   1_554 S
C164   C641    1.415   .     S
C164   N33     1.366   1_655 S
C165   C1128   1.415   1_554 S
C166   N395    1.366   .     S
C166   C647    1.415   .     S
C167   N396    1.366   .     A
C167   C1126   1.415   1_554 S
C168   C645    1.415   .     S
C169   C186    1.408   .     A
C169   C179    1.380   .     A
C169   N193    1.439   .     S
C170   N196    1.439   .     S
C170   C180    1.380   .     A
C170   C185    1.408   .     A
C171   C185    1.413   .     A
C171   C177    1.380   .     A
C171   N199    1.436   .     S
C172   N202    1.436   .     S
C172   C178    1.380   .     A
C172   C186    1.413   .     A
C173   C188    1.403   .     A
C173   C183    1.385   .     A
C173   N205    1.437   .     S
C174   C187    1.403   .     A
C174   N208    1.437   .     S
C174   C184    1.385   .     A
C175   N211    1.437   .     S
C175   C187    1.402   .     A
C175   C181    1.385   .     A
C176   N214    1.438   .     S
C176   C188    1.402   .     A
C176   C182    1.385   .     A
C177   C190    1.408   .     A
C177   N217    1.439   .     S
C178   N220    1.439   .     S
C178   C189    1.408   .     A
C179   C189    1.413   .     A
C179   N223    1.436   .     S
C180   N226    1.436   .     S
C180   C190    1.413   .     A
C181   N229    1.437   .     S
C181   C192    1.403   .     A
C182   C191    1.403   .     A
C182   N232    1.437   .     S
C183   N235    1.437   .     S
C183   C191    1.402   .     A
C184   N238    1.437   .     S
C184   C192    1.402   .     A
N193   O195    1.301   .     A
N193   O194    1.301   .     A
N196   O198    1.301   .     A
N196   O197    1.301   .     A
N199   O201    1.301   .     A
N199   O200    1.301   .     A
N202   O204    1.300   .     A
N202   O203    1.301   .     A
N205   O206    1.301   .     A
N205   O207    1.301   .     A
N208   O210    1.301   .     A
N208   O209    1.301   .     A
N211   O212    1.301   .     A
N211   O213    1.301   .     A
N214   O216    1.301   .     A
N214   O215    1.301   .     A
N217   O218    1.301   .     A
N217   O219    1.301   .     A
N220   O222    1.301   .     A
N220   O221    1.301   .     A
N223   O225    1.300   .     A
N223   O224    1.301   .     A
N226   O228    1.301   .     A
N226   O227    1.301   .     A
N229   O231    1.301   .     A
N229   O230    1.301   .     A
N232   O234    1.301   .     A
N232   O233    1.301   .     A
N235   O236    1.301   .     A
N235   O237    1.301   .     A
N238   O239    1.301   .     A
N238   O240    1.301   .     A
O241   C257    1.279   .     A
O241   Zn277   1.986   .     S
O242   C258    1.279   .     A
O242   Zn398   1.986   .     S
O243   C258    1.274   .     A
O243   Zn397   1.991   .     S
O244   C257    1.274   .     A
O244   Zn278   1.991   .     S
O245   Zn398   2.005   .     S
O245   C259    1.288   .     A
O246   C260    1.288   .     A
O246   Zn277   2.005   .     S
O247   C260    1.280   .     A
O247   Zn278   2.021   .     S
O248   C259    1.280   .     A
O248   Zn397   2.021   .     S
O249   Zn39    1.986   1_565 S
O249   C261    1.279   .     A
O250   C262    1.279   .     A
O250   Zn280   1.986   .     S
O251   C262    1.274   .     A
O251   Zn279   1.991   .     S
O252   C261    1.274   .     A
O252   Zn40    1.991   1_565 S
O253   C263    1.288   .     A
O253   Zn40    2.005   1_565 S
O254   C264    1.288   .     A
O254   Zn279   2.005   .     S
O255   C264    1.280   .     A
O255   Zn280   2.021   .     S
O256   C263    1.280   .     A
O256   Zn39    2.021   1_565 S
C257   C308    1.410   .     S
C258   C307    1.410   .     S
C259   C306    1.436   .     S
C260   C305    1.436   .     S
C261   C312    1.410   .     S
C262   C311    1.410   .     S
C263   C310    1.436   .     S
C264   C309    1.436   .     S
H265   C281    1.082   .     S
H266   C282    1.082   .     S
H267   C283    1.082   .     S
H268   C284    1.082   .     S
H269   C285    1.082   .     S
H270   C286    1.082   .     S
H271   C287    1.082   .     S
H272   C288    1.082   .     S
N273   C282    1.366   .     A
N273   Zn277   2.004   .     S
N273   C404    1.366   1_455 S
N274   C401    1.366   1_455 A
N274   Zn278   2.004   .     S
N274   C283    1.366   .     S
N275   C288    1.366   .     A
N275   Zn279   2.004   .     S
N276   Zn280   2.004   .     S
N276   C285    1.366   .     S
Zn277  O363    1.991   1_455 S
Zn277  O368    2.021   1_455 S
Zn278  O365    2.005   1_455 S
Zn278  O362    1.986   1_455 S
C281   N394    1.366   .     A
C281   C1244   1.415   1_554 S
C282   C763    1.415   .     S
C283   C1242   1.415   1_554 S
C284   C761    1.415   .     S
C284   N393    1.366   .     S
C285   C1248   1.415   1_554 S
C286   N35     1.366   1_565 S
C286   C767    1.415   .     S
C287   N36     1.366   1_565 A
C287   C1246   1.415   1_554 S
C288   C765    1.415   .     S
C289   C306    1.408   .     A
C289   C299    1.380   .     A
C289   N313    1.439   .     S
C290   N316    1.439   .     S
C290   C300    1.380   .     A
C290   C305    1.408   .     A
C291   C305    1.413   .     A
C291   C297    1.380   .     A
C291   N319    1.436   .     S
C292   N322    1.436   .     S
C292   C298    1.380   .     A
C292   C306    1.413   .     A
C293   C308    1.403   .     A
C293   C303    1.385   .     A
C293   N325    1.437   .     S
C294   C307    1.403   .     A
C294   N328    1.437   .     S
C294   C304    1.385   .     A
C295   N331    1.437   .     S
C295   C307    1.402   .     A
C295   C301    1.385   .     A
C296   N334    1.438   .     S
C296   C308    1.402   .     A
C296   C302    1.385   .     A
C297   C310    1.408   .     A
C297   N337    1.439   .     S
C298   N340    1.439   .     S
C298   C309    1.408   .     A
C299   C309    1.413   .     A
C299   N343    1.436   .     S
C300   N346    1.436   .     S
C300   C310    1.413   .     A
C301   N349    1.437   .     S
C301   C312    1.403   .     A
C302   C311    1.403   .     A
C302   N352    1.437   .     S
C303   N355    1.437   .     S
C303   C311    1.402   .     A
C304   N358    1.437   .     S
C304   C312    1.402   .     A
N313   O315    1.301   .     A
N313   O314    1.301   .     A
N316   O318    1.301   .     A
N316   O317    1.301   .     A
N319   O321    1.301   .     A
N319   O320    1.301   .     A
N322   O324    1.300   .     A
N322   O323    1.301   .     A
N325   O326    1.301   .     A
N325   O327    1.301   .     A
N328   O330    1.301   .     A
N328   O329    1.301   .     A
N331   O332    1.301   .     A
N331   O333    1.301   .     A
N334   O336    1.301   .     A
N334   O335    1.301   .     A
N337   O338    1.301   .     A
N337   O339    1.301   .     A
N340   O342    1.301   .     A
N340   O341    1.301   .     A
N343   O345    1.300   .     A
N343   O344    1.301   .     A
N346   O348    1.301   .     A
N346   O347    1.301   .     A
N349   O351    1.301   .     A
N349   O350    1.301   .     A
N352   O354    1.301   .     A
N352   O353    1.301   .     A
N355   O356    1.301   .     A
N355   O357    1.301   .     A
N358   O359    1.301   .     A
N358   O360    1.301   .     A
O361   C377    1.279   .     A
O361   Zn397   1.986   .     S
O362   C378    1.279   .     A
O362   Zn278   1.986   1_655 S
O363   C378    1.274   .     A
O363   Zn277   1.991   1_655 S
O364   C377    1.274   .     A
O364   Zn398   1.991   .     S
O365   Zn278   2.005   1_655 S
O365   C379    1.288   .     A
O366   C380    1.288   .     A
O366   Zn397   2.005   .     S
O367   C380    1.280   .     A
O367   Zn398   2.021   .     S
O368   C379    1.280   .     A
O368   Zn277   2.021   1_655 S
O369   Zn159   1.986   1_565 S
O369   C381    1.279   .     A
O370   C382    1.279   .     A
O370   Zn400   1.986   .     S
O371   C382    1.274   .     A
O371   Zn399   1.991   .     S
O372   C381    1.274   .     A
O372   Zn160   1.991   1_565 S
O373   C383    1.288   .     A
O373   Zn160   2.005   1_565 S
O374   C384    1.288   .     A
O374   Zn399   2.005   .     S
O375   C384    1.280   .     A
O375   Zn400   2.021   .     S
O376   C383    1.280   .     A
O376   Zn159   2.021   1_565 S
C377   C428    1.410   .     S
C378   C427    1.410   .     S
C379   C426    1.436   .     S
C380   C425    1.436   .     S
C381   C432    1.410   .     S
C382   C431    1.410   .     S
C383   C430    1.436   .     S
C384   C429    1.436   .     S
H385   C401    1.082   .     S
H386   C402    1.082   .     S
H387   C403    1.082   .     S
H388   C404    1.082   .     S
H389   C405    1.082   .     S
H390   C406    1.082   .     S
H391   C407    1.082   .     S
H392   C408    1.082   .     S
N393   C402    1.366   .     A
N393   Zn397   2.004   .     S
N394   Zn398   2.004   .     S
N394   C403    1.366   .     S
N395   C408    1.366   .     A
N395   Zn399   2.004   .     S
N396   Zn400   2.004   .     S
N396   C405    1.366   .     S
C401   N274    1.366   1_655 A
C401   C1364   1.415   1_554 S
C402   C883    1.415   .     S
C403   C1362   1.415   1_554 S
C404   C881    1.415   .     S
C404   N273    1.366   1_655 S
C405   C1368   1.415   1_554 S
C406   N155    1.366   1_565 S
C406   C887    1.415   .     S
C407   N156    1.366   1_565 A
C407   C1366   1.415   1_554 S
C408   C885    1.415   .     S
C409   C426    1.408   .     A
C409   C419    1.380   .     A
C409   N433    1.439   .     S
C410   N436    1.439   .     S
C410   C420    1.380   .     A
C410   C425    1.408   .     A
C411   C425    1.413   .     A
C411   C417    1.380   .     A
C411   N439    1.436   .     S
C412   N442    1.436   .     S
C412   C418    1.380   .     A
C412   C426    1.413   .     A
C413   C428    1.403   .     A
C413   C423    1.385   .     A
C413   N445    1.437   .     S
C414   C427    1.403   .     A
C414   N448    1.437   .     S
C414   C424    1.385   .     A
C415   N451    1.437   .     S
C415   C427    1.402   .     A
C415   C421    1.385   .     A
C416   N454    1.438   .     S
C416   C428    1.402   .     A
C416   C422    1.385   .     A
C417   C430    1.408   .     A
C417   N457    1.439   .     S
C418   N460    1.439   .     S
C418   C429    1.408   .     A
C419   C429    1.413   .     A
C419   N463    1.436   .     S
C420   N466    1.436   .     S
C420   C430    1.413   .     A
C421   N469    1.437   .     S
C421   C432    1.403   .     A
C422   C431    1.403   .     A
C422   N472    1.437   .     S
C423   N475    1.437   .     S
C423   C431    1.402   .     A
C424   N478    1.437   .     S
C424   C432    1.402   .     A
N433   O435    1.301   .     A
N433   O434    1.301   .     A
N436   O438    1.301   .     A
N436   O437    1.301   .     A
N439   O441    1.301   .     A
N439   O440    1.301   .     A
N442   O444    1.300   .     A
N442   O443    1.301   .     A
N445   O446    1.301   .     A
N445   O447    1.301   .     A
N448   O450    1.301   .     A
N448   O449    1.301   .     A
N451   O452    1.301   .     A
N451   O453    1.301   .     A
N454   O456    1.301   .     A
N454   O455    1.301   .     A
N457   O458    1.301   .     A
N457   O459    1.301   .     A
N460   O462    1.301   .     A
N460   O461    1.301   .     A
N463   O465    1.300   .     A
N463   O464    1.301   .     A
N466   O468    1.301   .     A
N466   O467    1.301   .     A
N469   O471    1.301   .     A
N469   O470    1.301   .     A
N472   O474    1.301   .     A
N472   O473    1.301   .     A
N475   O476    1.301   .     A
N475   O477    1.301   .     A
N478   O479    1.301   .     A
N478   O480    1.301   .     A
O481   C497    1.279   .     A
O481   Zn517   1.986   .     S
O482   C498    1.279   .     A
O482   Zn638   1.986   .     S
O483   C498    1.274   .     A
O483   Zn637   1.991   .     S
O484   C497    1.274   .     A
O484   Zn518   1.991   .     S
O485   Zn638   2.005   .     S
O485   C499    1.288   .     A
O486   C500    1.288   .     A
O486   Zn517   2.005   .     S
O487   C500    1.280   .     A
O487   Zn518   2.021   .     S
O488   C499    1.280   .     A
O488   Zn637   2.021   .     S
O489   Zn759   1.986   .     S
O489   C501    1.279   .     A
O490   C502    1.279   .     A
O490   Zn520   1.986   .     S
O491   C502    1.274   .     A
O491   Zn519   1.991   .     S
O492   C501    1.274   .     A
O492   Zn760   1.991   .     S
O493   C503    1.288   .     A
O493   Zn760   2.005   .     S
O494   C504    1.288   .     A
O494   Zn519   2.005   .     S
O495   C504    1.280   .     A
O495   Zn520   2.021   .     S
O496   C503    1.280   .     A
O496   Zn759   2.021   .     S
C497   C548    1.410   .     S
C498   C547    1.410   .     S
C499   C546    1.436   .     S
C500   C545    1.436   .     S
C501   C552    1.410   .     S
C502   C551    1.410   .     S
C503   C550    1.436   .     S
C504   C549    1.436   .     S
H505   C521    1.082   .     S
H506   C522    1.082   .     S
H507   C523    1.082   .     S
H508   C524    1.082   .     S
H509   C525    1.082   .     S
H510   C526    1.082   .     S
H511   C527    1.082   .     S
H512   C528    1.082   .     S
N513   C522    1.366   .     A
N513   Zn517   2.004   .     S
N513   C644    1.366   1_455 S
N514   C641    1.366   1_455 A
N514   Zn518   2.004   .     S
N514   C523    1.366   .     S
N515   C528    1.366   .     A
N515   Zn519   2.004   .     S
N515   C766    1.366   1_545 S
N516   C767    1.366   1_545 A
N516   Zn520   2.004   .     S
N516   C525    1.366   .     S
Zn517  O603    1.991   1_455 S
Zn517  O608    2.021   1_455 S
Zn518  O605    2.005   1_455 S
Zn518  O602    1.986   1_455 S
Zn519  O729    1.986   1_545 S
Zn519  O736    2.021   1_545 S
Zn520  O733    2.005   1_545 S
Zn520  O732    1.991   1_545 S
C521   N634    1.366   .     A
C522   C1003   1.415   .     S
C524   C1001   1.415   .     S
C524   N633    1.366   .     S
C526   N755    1.366   .     S
C526   C1007   1.415   .     S
C527   N756    1.366   .     A
C528   C1005   1.415   .     S
C529   C546    1.408   .     A
C529   C539    1.380   .     A
C529   N553    1.439   .     S
C530   N556    1.439   .     S
C530   C540    1.380   .     A
C530   C545    1.408   .     A
C531   C545    1.413   .     A
C531   C537    1.380   .     A
C531   N559    1.436   .     S
C532   N562    1.436   .     S
C532   C538    1.380   .     A
C532   C546    1.413   .     A
C533   C548    1.403   .     A
C533   C543    1.385   .     A
C533   N565    1.437   .     S
C534   C547    1.403   .     A
C534   N568    1.437   .     S
C534   C544    1.385   .     A
C535   N571    1.437   .     S
C535   C547    1.402   .     A
C535   C541    1.385   .     A
C536   N574    1.438   .     S
C536   C548    1.402   .     A
C536   C542    1.385   .     A
C537   C550    1.408   .     A
C537   N577    1.439   .     S
C538   N580    1.439   .     S
C538   C549    1.408   .     A
C539   C549    1.413   .     A
C539   N583    1.436   .     S
C540   N586    1.436   .     S
C540   C550    1.413   .     A
C541   N589    1.437   .     S
C541   C552    1.403   .     A
C542   C551    1.403   .     A
C542   N592    1.437   .     S
C543   N595    1.437   .     S
C543   C551    1.402   .     A
C544   N598    1.437   .     S
C544   C552    1.402   .     A
N553   O555    1.301   .     A
N553   O554    1.301   .     A
N556   O558    1.301   .     A
N556   O557    1.301   .     A
N559   O561    1.301   .     A
N559   O560    1.301   .     A
N562   O564    1.300   .     A
N562   O563    1.301   .     A
N565   O566    1.301   .     A
N565   O567    1.301   .     A
N568   O570    1.301   .     A
N568   O569    1.301   .     A
N571   O572    1.301   .     A
N571   O573    1.301   .     A
N574   O576    1.301   .     A
N574   O575    1.301   .     A
N577   O578    1.301   .     A
N577   O579    1.301   .     A
N580   O582    1.301   .     A
N580   O581    1.301   .     A
N583   O585    1.300   .     A
N583   O584    1.301   .     A
N586   O588    1.301   .     A
N586   O587    1.301   .     A
N589   O591    1.301   .     A
N589   O590    1.301   .     A
N592   O594    1.301   .     A
N592   O593    1.301   .     A
N595   O596    1.301   .     A
N595   O597    1.301   .     A
N598   O599    1.301   .     A
N598   O600    1.301   .     A
O601   C617    1.279   .     A
O601   Zn637   1.986   .     S
O602   C618    1.279   .     A
O602   Zn518   1.986   1_655 S
O603   C618    1.274   .     A
O603   Zn517   1.991   1_655 S
O604   C617    1.274   .     A
O604   Zn638   1.991   .     S
O605   Zn518   2.005   1_655 S
O605   C619    1.288   .     A
O606   C620    1.288   .     A
O606   Zn637   2.005   .     S
O607   C620    1.280   .     A
O607   Zn638   2.021   .     S
O608   C619    1.280   .     A
O608   Zn517   2.021   1_655 S
O609   Zn879   1.986   .     S
O609   C621    1.279   .     A
O610   C622    1.279   .     A
O610   Zn640   1.986   .     S
O611   C622    1.274   .     A
O611   Zn639   1.991   .     S
O612   C621    1.274   .     A
O612   Zn880   1.991   .     S
O613   C623    1.288   .     A
O613   Zn880   2.005   .     S
O614   C624    1.288   .     A
O614   Zn639   2.005   .     S
O615   C624    1.280   .     A
O615   Zn640   2.021   .     S
O616   C623    1.280   .     A
O616   Zn879   2.021   .     S
C617   C668    1.410   .     S
C618   C667    1.410   .     S
C619   C666    1.436   .     S
C620   C665    1.436   .     S
C621   C672    1.410   .     S
C622   C671    1.410   .     S
C623   C670    1.436   .     S
C624   C669    1.436   .     S
H625   C641    1.082   .     S
H626   C642    1.082   .     S
H627   C643    1.082   .     S
H628   C644    1.082   .     S
H629   C645    1.082   .     S
H630   C646    1.082   .     S
H631   C647    1.082   .     S
H632   C648    1.082   .     S
N633   C642    1.366   .     A
N633   Zn637   2.004   .     S
N634   Zn638   2.004   .     S
N634   C643    1.366   .     S
N635   C648    1.366   .     A
N635   Zn639   2.004   .     S
N635   C886    1.366   1_545 S
N636   C887    1.366   1_545 A
N636   Zn640   2.004   .     S
N636   C645    1.366   .     S
Zn639  O849    1.986   1_545 S
Zn639  O856    2.021   1_545 S
Zn640  O853    2.005   1_545 S
Zn640  O852    1.991   1_545 S
C641   N514    1.366   1_655 A
C642   C1123   1.415   .     S
C644   C1121   1.415   .     S
C644   N513    1.366   1_655 S
C646   N875    1.366   .     S
C646   C1127   1.415   .     S
C647   N876    1.366   .     A
C648   C1125   1.415   .     S
C649   C666    1.408   .     A
C649   C659    1.380   .     A
C649   N673    1.439   .     S
C650   N676    1.439   .     S
C650   C660    1.380   .     A
C650   C665    1.408   .     A
C651   C665    1.413   .     A
C651   C657    1.380   .     A
C651   N679    1.436   .     S
C652   N682    1.436   .     S
C652   C658    1.380   .     A
C652   C666    1.413   .     A
C653   C668    1.403   .     A
C653   C663    1.385   .     A
C653   N685    1.437   .     S
C654   C667    1.403   .     A
C654   N688    1.437   .     S
C654   C664    1.385   .     A
C655   N691    1.437   .     S
C655   C667    1.402   .     A
C655   C661    1.385   .     A
C656   N694    1.438   .     S
C656   C668    1.402   .     A
C656   C662    1.385   .     A
C657   C670    1.408   .     A
C657   N697    1.439   .     S
C658   N700    1.439   .     S
C658   C669    1.408   .     A
C659   C669    1.413   .     A
C659   N703    1.436   .     S
C660   N706    1.436   .     S
C660   C670    1.413   .     A
C661   N709    1.437   .     S
C661   C672    1.403   .     A
C662   C671    1.403   .     A
C662   N712    1.437   .     S
C663   N715    1.437   .     S
C663   C671    1.402   .     A
C664   N718    1.437   .     S
C664   C672    1.402   .     A
N673   O675    1.301   .     A
N673   O674    1.301   .     A
N676   O678    1.301   .     A
N676   O677    1.301   .     A
N679   O681    1.301   .     A
N679   O680    1.301   .     A
N682   O684    1.300   .     A
N682   O683    1.301   .     A
N685   O686    1.301   .     A
N685   O687    1.301   .     A
N688   O690    1.301   .     A
N688   O689    1.301   .     A
N691   O692    1.301   .     A
N691   O693    1.301   .     A
N694   O696    1.301   .     A
N694   O695    1.301   .     A
N697   O698    1.301   .     A
N697   O699    1.301   .     A
N700   O702    1.301   .     A
N700   O701    1.301   .     A
N703   O705    1.300   .     A
N703   O704    1.301   .     A
N706   O708    1.301   .     A
N706   O707    1.301   .     A
N709   O711    1.301   .     A
N709   O710    1.301   .     A
N712   O714    1.301   .     A
N712   O713    1.301   .     A
N715   O716    1.301   .     A
N715   O717    1.301   .     A
N718   O719    1.301   .     A
N718   O720    1.301   .     A
O721   C737    1.279   .     A
O721   Zn757   1.986   .     S
O722   C738    1.279   .     A
O722   Zn878   1.986   .     S
O723   C738    1.274   .     A
O723   Zn877   1.991   .     S
O724   C737    1.274   .     A
O724   Zn758   1.991   .     S
O725   Zn878   2.005   .     S
O725   C739    1.288   .     A
O726   C740    1.288   .     A
O726   Zn757   2.005   .     S
O727   C740    1.280   .     A
O727   Zn758   2.021   .     S
O728   C739    1.280   .     A
O728   Zn877   2.021   .     S
O729   Zn519   1.986   1_565 S
O729   C741    1.279   .     A
O730   C742    1.279   .     A
O730   Zn760   1.986   .     S
O731   C742    1.274   .     A
O731   Zn759   1.991   .     S
O732   C741    1.274   .     A
O732   Zn520   1.991   1_565 S
O733   C743    1.288   .     A
O733   Zn520   2.005   1_565 S
O734   C744    1.288   .     A
O734   Zn759   2.005   .     S
O735   C744    1.280   .     A
O735   Zn760   2.021   .     S
O736   C743    1.280   .     A
O736   Zn519   2.021   1_565 S
C737   C788    1.410   .     S
C738   C787    1.410   .     S
C739   C786    1.436   .     S
C740   C785    1.436   .     S
C741   C792    1.410   .     S
C742   C791    1.410   .     S
C743   C790    1.436   .     S
C744   C789    1.436   .     S
H745   C761    1.082   .     S
H746   C762    1.082   .     S
H747   C763    1.082   .     S
H748   C764    1.082   .     S
H749   C765    1.082   .     S
H750   C766    1.082   .     S
H751   C767    1.082   .     S
H752   C768    1.082   .     S
N753   C762    1.366   .     A
N753   Zn757   2.004   .     S
N753   C884    1.366   1_455 S
N754   C881    1.366   1_455 A
N754   Zn758   2.004   .     S
N754   C763    1.366   .     S
N755   C768    1.366   .     A
N755   Zn759   2.004   .     S
N756   Zn760   2.004   .     S
N756   C765    1.366   .     S
Zn757  O843    1.991   1_455 S
Zn757  O848    2.021   1_455 S
Zn758  O845    2.005   1_455 S
Zn758  O842    1.986   1_455 S
C761   N874    1.366   .     A
C762   C1243   1.415   .     S
C764   C1241   1.415   .     S
C764   N873    1.366   .     S
C766   N515    1.366   1_565 S
C766   C1247   1.415   .     S
C767   N516    1.366   1_565 A
C768   C1245   1.415   .     S
C769   C786    1.408   .     A
C769   C779    1.380   .     A
C769   N793    1.439   .     S
C770   N796    1.439   .     S
C770   C780    1.380   .     A
C770   C785    1.408   .     A
C771   C785    1.413   .     A
C771   C777    1.380   .     A
C771   N799    1.436   .     S
C772   N802    1.436   .     S
C772   C778    1.380   .     A
C772   C786    1.413   .     A
C773   C788    1.403   .     A
C773   C783    1.385   .     A
C773   N805    1.437   .     S
C774   C787    1.403   .     A
C774   N808    1.437   .     S
C774   C784    1.385   .     A
C775   N811    1.437   .     S
C775   C787    1.402   .     A
C775   C781    1.385   .     A
C776   N814    1.438   .     S
C776   C788    1.402   .     A
C776   C782    1.385   .     A
C777   C790    1.408   .     A
C777   N817    1.439   .     S
C778   N820    1.439   .     S
C778   C789    1.408   .     A
C779   C789    1.413   .     A
C779   N823    1.436   .     S
C780   N826    1.436   .     S
C780   C790    1.413   .     A
C781   N829    1.437   .     S
C781   C792    1.403   .     A
C782   C791    1.403   .     A
C782   N832    1.437   .     S
C783   N835    1.437   .     S
C783   C791    1.402   .     A
C784   N838    1.437   .     S
C784   C792    1.402   .     A
N793   O795    1.301   .     A
N793   O794    1.301   .     A
N796   O798    1.301   .     A
N796   O797    1.301   .     A
N799   O801    1.301   .     A
N799   O800    1.301   .     A
N802   O804    1.300   .     A
N802   O803    1.301   .     A
N805   O806    1.301   .     A
N805   O807    1.301   .     A
N808   O810    1.301   .     A
N808   O809    1.301   .     A
N811   O812    1.301   .     A
N811   O813    1.301   .     A
N814   O816    1.301   .     A
N814   O815    1.301   .     A
N817   O818    1.301   .     A
N817   O819    1.301   .     A
N820   O822    1.301   .     A
N820   O821    1.301   .     A
N823   O825    1.300   .     A
N823   O824    1.301   .     A
N826   O828    1.301   .     A
N826   O827    1.301   .     A
N829   O831    1.301   .     A
N829   O830    1.301   .     A
N832   O834    1.301   .     A
N832   O833    1.301   .     A
N835   O836    1.301   .     A
N835   O837    1.301   .     A
N838   O839    1.301   .     A
N838   O840    1.301   .     A
O841   C857    1.279   .     A
O841   Zn877   1.986   .     S
O842   C858    1.279   .     A
O842   Zn758   1.986   1_655 S
O843   C858    1.274   .     A
O843   Zn757   1.991   1_655 S
O844   C857    1.274   .     A
O844   Zn878   1.991   .     S
O845   Zn758   2.005   1_655 S
O845   C859    1.288   .     A
O846   C860    1.288   .     A
O846   Zn877   2.005   .     S
O847   C860    1.280   .     A
O847   Zn878   2.021   .     S
O848   C859    1.280   .     A
O848   Zn757   2.021   1_655 S
O849   Zn639   1.986   1_565 S
O849   C861    1.279   .     A
O850   C862    1.279   .     A
O850   Zn880   1.986   .     S
O851   C862    1.274   .     A
O851   Zn879   1.991   .     S
O852   C861    1.274   .     A
O852   Zn640   1.991   1_565 S
O853   C863    1.288   .     A
O853   Zn640   2.005   1_565 S
O854   C864    1.288   .     A
O854   Zn879   2.005   .     S
O855   C864    1.280   .     A
O855   Zn880   2.021   .     S
O856   C863    1.280   .     A
O856   Zn639   2.021   1_565 S
C857   C908    1.410   .     S
C858   C907    1.410   .     S
C859   C906    1.436   .     S
C860   C905    1.436   .     S
C861   C912    1.410   .     S
C862   C911    1.410   .     S
C863   C910    1.436   .     S
C864   C909    1.436   .     S
H865   C881    1.082   .     S
H866   C882    1.082   .     S
H867   C883    1.082   .     S
H868   C884    1.082   .     S
H869   C885    1.082   .     S
H870   C886    1.082   .     S
H871   C887    1.082   .     S
H872   C888    1.082   .     S
N873   C882    1.366   .     A
N873   Zn877   2.004   .     S
N874   Zn878   2.004   .     S
N874   C883    1.366   .     S
N875   C888    1.366   .     A
N875   Zn879   2.004   .     S
N876   Zn880   2.004   .     S
N876   C885    1.366   .     S
C881   N754    1.366   1_655 A
C882   C1363   1.415   .     S
C884   C1361   1.415   .     S
C884   N753    1.366   1_655 S
C886   N635    1.366   1_565 S
C886   C1367   1.415   .     S
C887   N636    1.366   1_565 A
C888   C1365   1.415   .     S
C889   C906    1.408   .     A
C889   C899    1.380   .     A
C889   N913    1.439   .     S
C890   N916    1.439   .     S
C890   C900    1.380   .     A
C890   C905    1.408   .     A
C891   C905    1.413   .     A
C891   C897    1.380   .     A
C891   N919    1.436   .     S
C892   N922    1.436   .     S
C892   C898    1.380   .     A
C892   C906    1.413   .     A
C893   C908    1.403   .     A
C893   C903    1.385   .     A
C893   N925    1.437   .     S
C894   C907    1.403   .     A
C894   N928    1.437   .     S
C894   C904    1.385   .     A
C895   N931    1.437   .     S
C895   C907    1.402   .     A
C895   C901    1.385   .     A
C896   N934    1.438   .     S
C896   C908    1.402   .     A
C896   C902    1.385   .     A
C897   C910    1.408   .     A
C897   N937    1.439   .     S
C898   N940    1.439   .     S
C898   C909    1.408   .     A
C899   C909    1.413   .     A
C899   N943    1.436   .     S
C900   N946    1.436   .     S
C900   C910    1.413   .     A
C901   N949    1.437   .     S
C901   C912    1.403   .     A
C902   C911    1.403   .     A
C902   N952    1.437   .     S
C903   N955    1.437   .     S
C903   C911    1.402   .     A
C904   N958    1.437   .     S
C904   C912    1.402   .     A
N913   O915    1.301   .     A
N913   O914    1.301   .     A
N916   O918    1.301   .     A
N916   O917    1.301   .     A
N919   O921    1.301   .     A
N919   O920    1.301   .     A
N922   O924    1.300   .     A
N922   O923    1.301   .     A
N925   O926    1.301   .     A
N925   O927    1.301   .     A
N928   O930    1.301   .     A
N928   O929    1.301   .     A
N931   O932    1.301   .     A
N931   O933    1.301   .     A
N934   O936    1.301   .     A
N934   O935    1.301   .     A
N937   O938    1.301   .     A
N937   O939    1.301   .     A
N940   O942    1.301   .     A
N940   O941    1.301   .     A
N943   O945    1.300   .     A
N943   O944    1.301   .     A
N946   O948    1.301   .     A
N946   O947    1.301   .     A
N949   O951    1.301   .     A
N949   O950    1.301   .     A
N952   O954    1.301   .     A
N952   O953    1.301   .     A
N955   O956    1.301   .     A
N955   O957    1.301   .     A
N958   O959    1.301   .     A
N958   O960    1.301   .     A
O961   C977    1.279   .     A
O961   Zn997   1.986   .     S
O962   C978    1.279   .     A
O962   Zn1118  1.986   .     S
O963   C978    1.274   .     A
O963   Zn1117  1.991   .     S
O964   C977    1.274   .     A
O964   Zn998   1.991   .     S
O965   Zn1118  2.005   .     S
O965   C979    1.288   .     A
O966   C980    1.288   .     A
O966   Zn997   2.005   .     S
O967   C980    1.280   .     A
O967   Zn998   2.021   .     S
O968   C979    1.280   .     A
O968   Zn1117  2.021   .     S
O969   Zn1239  1.986   .     S
O969   C981    1.279   .     A
O970   C982    1.279   .     A
O970   Zn1000  1.986   .     S
O971   C982    1.274   .     A
O971   Zn999   1.991   .     S
O972   C981    1.274   .     A
O972   Zn1240  1.991   .     S
O973   C983    1.288   .     A
O973   Zn1240  2.005   .     S
O974   C984    1.288   .     A
O974   Zn999   2.005   .     S
O975   C984    1.280   .     A
O975   Zn1000  2.021   .     S
O976   C983    1.280   .     A
O976   Zn1239  2.021   .     S
C977   C1028   1.410   .     S
C978   C1027   1.410   .     S
C979   C1026   1.436   .     S
C980   C1025   1.436   .     S
C981   C1032   1.410   .     S
C982   C1031   1.410   .     S
C983   C1030   1.436   .     S
C984   C1029   1.436   .     S
H985   C1001   1.082   .     S
H986   C1002   1.082   .     S
H987   C1003   1.082   .     S
H988   C1004   1.082   .     S
H989   C1005   1.082   .     S
H990   C1006   1.082   .     S
H991   C1007   1.082   .     S
H992   C1008   1.082   .     S
N993   C1002   1.366   .     A
N993   Zn997   2.004   .     S
N993   C1124   1.366   1_455 S
N994   C1121   1.366   1_455 A
N994   Zn998   2.004   .     S
N994   C1003   1.366   .     S
N995   C1008   1.366   .     A
N995   Zn999   2.004   .     S
N995   C1246   1.366   1_545 S
N996   C1247   1.366   1_545 A
N996   Zn1000  2.004   .     S
N996   C1005   1.366   .     S
Zn997  O1083   1.991   1_455 S
Zn997  O1088   2.021   1_455 S
Zn998  O1085   2.005   1_455 S
Zn998  O1082   1.986   1_455 S
Zn999  O1209   1.986   1_545 S
Zn999  O1216   2.021   1_545 S
Zn1000 O1213   2.005   1_545 S
Zn1000 O1212   1.991   1_545 S
C1001  N1114   1.366   .     A
C1002  C43     1.415   1_556 S
C1004  C41     1.415   1_556 S
C1004  N1113   1.366   .     S
C1006  N1235   1.366   .     S
C1006  C47     1.415   1_556 S
C1007  N1236   1.366   .     A
C1008  C45     1.415   1_556 S
C1009  C1026   1.408   .     A
C1009  C1019   1.380   .     A
C1009  N1033   1.439   .     S
C1010  N1036   1.439   .     S
C1010  C1020   1.380   .     A
C1010  C1025   1.408   .     A
C1011  C1025   1.413   .     A
C1011  C1017   1.380   .     A
C1011  N1039   1.436   .     S
C1012  N1042   1.436   .     S
C1012  C1018   1.380   .     A
C1012  C1026   1.413   .     A
C1013  C1028   1.403   .     A
C1013  C1023   1.385   .     A
C1013  N1045   1.437   .     S
C1014  C1027   1.403   .     A
C1014  N1048   1.437   .     S
C1014  C1024   1.385   .     A
C1015  N1051   1.437   .     S
C1015  C1027   1.402   .     A
C1015  C1021   1.385   .     A
C1016  N1054   1.438   .     S
C1016  C1028   1.402   .     A
C1016  C1022   1.385   .     A
C1017  C1030   1.408   .     A
C1017  N1057   1.439   .     S
C1018  N1060   1.439   .     S
C1018  C1029   1.408   .     A
C1019  C1029   1.413   .     A
C1019  N1063   1.436   .     S
C1020  N1066   1.436   .     S
C1020  C1030   1.413   .     A
C1021  N1069   1.437   .     S
C1021  C1032   1.403   .     A
C1022  C1031   1.403   .     A
C1022  N1072   1.437   .     S
C1023  N1075   1.437   .     S
C1023  C1031   1.402   .     A
C1024  N1078   1.437   .     S
C1024  C1032   1.402   .     A
N1033  O1035   1.301   .     A
N1033  O1034   1.301   .     A
N1036  O1038   1.301   .     A
N1036  O1037   1.301   .     A
N1039  O1041   1.301   .     A
N1039  O1040   1.301   .     A
N1042  O1044   1.300   .     A
N1042  O1043   1.301   .     A
N1045  O1046   1.301   .     A
N1045  O1047   1.301   .     A
N1048  O1050   1.301   .     A
N1048  O1049   1.301   .     A
N1051  O1052   1.301   .     A
N1051  O1053   1.301   .     A
N1054  O1056   1.301   .     A
N1054  O1055   1.301   .     A
N1057  O1058   1.301   .     A
N1057  O1059   1.301   .     A
N1060  O1062   1.301   .     A
N1060  O1061   1.301   .     A
N1063  O1065   1.300   .     A
N1063  O1064   1.301   .     A
N1066  O1068   1.301   .     A
N1066  O1067   1.301   .     A
N1069  O1071   1.301   .     A
N1069  O1070   1.301   .     A
N1072  O1074   1.301   .     A
N1072  O1073   1.301   .     A
N1075  O1076   1.301   .     A
N1075  O1077   1.301   .     A
N1078  O1079   1.301   .     A
N1078  O1080   1.301   .     A
O1081  C1097   1.279   .     A
O1081  Zn1117  1.986   .     S
O1082  C1098   1.279   .     A
O1082  Zn998   1.986   1_655 S
O1083  C1098   1.274   .     A
O1083  Zn997   1.991   1_655 S
O1084  C1097   1.274   .     A
O1084  Zn1118  1.991   .     S
O1085  Zn998   2.005   1_655 S
O1085  C1099   1.288   .     A
O1086  C1100   1.288   .     A
O1086  Zn1117  2.005   .     S
O1087  C1100   1.280   .     A
O1087  Zn1118  2.021   .     S
O1088  C1099   1.280   .     A
O1088  Zn997   2.021   1_655 S
O1089  Zn1359  1.986   .     S
O1089  C1101   1.279   .     A
O1090  C1102   1.279   .     A
O1090  Zn1120  1.986   .     S
O1091  C1102   1.274   .     A
O1091  Zn1119  1.991   .     S
O1092  C1101   1.274   .     A
O1092  Zn1360  1.991   .     S
O1093  C1103   1.288   .     A
O1093  Zn1360  2.005   .     S
O1094  C1104   1.288   .     A
O1094  Zn1119  2.005   .     S
O1095  C1104   1.280   .     A
O1095  Zn1120  2.021   .     S
O1096  C1103   1.280   .     A
O1096  Zn1359  2.021   .     S
C1097  C1148   1.410   .     S
C1098  C1147   1.410   .     S
C1099  C1146   1.436   .     S
C1100  C1145   1.436   .     S
C1101  C1152   1.410   .     S
C1102  C1151   1.410   .     S
C1103  C1150   1.436   .     S
C1104  C1149   1.436   .     S
H1105  C1121   1.082   .     S
H1106  C1122   1.082   .     S
H1107  C1123   1.082   .     S
H1108  C1124   1.082   .     S
H1109  C1125   1.082   .     S
H1110  C1126   1.082   .     S
H1111  C1127   1.082   .     S
H1112  C1128   1.082   .     S
N1113  C1122   1.366   .     A
N1113  Zn1117  2.004   .     S
N1114  Zn1118  2.004   .     S
N1114  C1123   1.366   .     S
N1115  C1128   1.366   .     A
N1115  Zn1119  2.004   .     S
N1115  C1366   1.366   1_545 S
N1116  C1367   1.366   1_545 A
N1116  Zn1120  2.004   .     S
N1116  C1125   1.366   .     S
Zn1119 O1329   1.986   1_545 S
Zn1119 O1336   2.021   1_545 S
Zn1120 O1333   2.005   1_545 S
Zn1120 O1332   1.991   1_545 S
C1121  N994    1.366   1_655 A
C1122  C163    1.415   1_556 S
C1124  C161    1.415   1_556 S
C1124  N993    1.366   1_655 S
C1126  N1355   1.366   .     S
C1126  C167    1.415   1_556 S
C1127  N1356   1.366   .     A
C1128  C165    1.415   1_556 S
C1129  C1146   1.408   .     A
C1129  C1139   1.380   .     A
C1129  N1153   1.439   .     S
C1130  N1156   1.439   .     S
C1130  C1140   1.380   .     A
C1130  C1145   1.408   .     A
C1131  C1145   1.413   .     A
C1131  C1137   1.380   .     A
C1131  N1159   1.436   .     S
C1132  N1162   1.436   .     S
C1132  C1138   1.380   .     A
C1132  C1146   1.413   .     A
C1133  C1148   1.403   .     A
C1133  C1143   1.385   .     A
C1133  N1165   1.437   .     S
C1134  C1147   1.403   .     A
C1134  N1168   1.437   .     S
C1134  C1144   1.385   .     A
C1135  N1171   1.437   .     S
C1135  C1147   1.402   .     A
C1135  C1141   1.385   .     A
C1136  N1174   1.438   .     S
C1136  C1148   1.402   .     A
C1136  C1142   1.385   .     A
C1137  C1150   1.408   .     A
C1137  N1177   1.439   .     S
C1138  N1180   1.439   .     S
C1138  C1149   1.408   .     A
C1139  C1149   1.413   .     A
C1139  N1183   1.436   .     S
C1140  N1186   1.436   .     S
C1140  C1150   1.413   .     A
C1141  N1189   1.437   .     S
C1141  C1152   1.403   .     A
C1142  C1151   1.403   .     A
C1142  N1192   1.437   .     S
C1143  N1195   1.437   .     S
C1143  C1151   1.402   .     A
C1144  N1198   1.437   .     S
C1144  C1152   1.402   .     A
N1153  O1155   1.301   .     A
N1153  O1154   1.301   .     A
N1156  O1158   1.301   .     A
N1156  O1157   1.301   .     A
N1159  O1161   1.301   .     A
N1159  O1160   1.301   .     A
N1162  O1164   1.300   .     A
N1162  O1163   1.301   .     A
N1165  O1166   1.301   .     A
N1165  O1167   1.301   .     A
N1168  O1170   1.301   .     A
N1168  O1169   1.301   .     A
N1171  O1172   1.301   .     A
N1171  O1173   1.301   .     A
N1174  O1176   1.301   .     A
N1174  O1175   1.301   .     A
N1177  O1178   1.301   .     A
N1177  O1179   1.301   .     A
N1180  O1182   1.301   .     A
N1180  O1181   1.301   .     A
N1183  O1185   1.300   .     A
N1183  O1184   1.301   .     A
N1186  O1188   1.301   .     A
N1186  O1187   1.301   .     A
N1189  O1191   1.301   .     A
N1189  O1190   1.301   .     A
N1192  O1194   1.301   .     A
N1192  O1193   1.301   .     A
N1195  O1196   1.301   .     A
N1195  O1197   1.301   .     A
N1198  O1199   1.301   .     A
N1198  O1200   1.301   .     A
O1201  C1217   1.279   .     A
O1201  Zn1237  1.986   .     S
O1202  C1218   1.279   .     A
O1202  Zn1358  1.986   .     S
O1203  C1218   1.274   .     A
O1203  Zn1357  1.991   .     S
O1204  C1217   1.274   .     A
O1204  Zn1238  1.991   .     S
O1205  Zn1358  2.005   .     S
O1205  C1219   1.288   .     A
O1206  C1220   1.288   .     A
O1206  Zn1237  2.005   .     S
O1207  C1220   1.280   .     A
O1207  Zn1238  2.021   .     S
O1208  C1219   1.280   .     A
O1208  Zn1357  2.021   .     S
O1209  Zn999   1.986   1_565 S
O1209  C1221   1.279   .     A
O1210  C1222   1.279   .     A
O1210  Zn1240  1.986   .     S
O1211  C1222   1.274   .     A
O1211  Zn1239  1.991   .     S
O1212  C1221   1.274   .     A
O1212  Zn1000  1.991   1_565 S
O1213  C1223   1.288   .     A
O1213  Zn1000  2.005   1_565 S
O1214  C1224   1.288   .     A
O1214  Zn1239  2.005   .     S
O1215  C1224   1.280   .     A
O1215  Zn1240  2.021   .     S
O1216  C1223   1.280   .     A
O1216  Zn999   2.021   1_565 S
C1217  C1268   1.410   .     S
C1218  C1267   1.410   .     S
C1219  C1266   1.436   .     S
C1220  C1265   1.436   .     S
C1221  C1272   1.410   .     S
C1222  C1271   1.410   .     S
C1223  C1270   1.436   .     S
C1224  C1269   1.436   .     S
H1225  C1241   1.082   .     S
H1226  C1242   1.082   .     S
H1227  C1243   1.082   .     S
H1228  C1244   1.082   .     S
H1229  C1245   1.082   .     S
H1230  C1246   1.082   .     S
H1231  C1247   1.082   .     S
H1232  C1248   1.082   .     S
N1233  C1242   1.366   .     A
N1233  Zn1237  2.004   .     S
N1233  C1364   1.366   1_455 S
N1234  C1361   1.366   1_455 A
N1234  Zn1238  2.004   .     S
N1234  C1243   1.366   .     S
N1235  C1248   1.366   .     A
N1235  Zn1239  2.004   .     S
N1236  Zn1240  2.004   .     S
N1236  C1245   1.366   .     S
Zn1237 O1323   1.991   1_455 S
Zn1237 O1328   2.021   1_455 S
Zn1238 O1325   2.005   1_455 S
Zn1238 O1322   1.986   1_455 S
C1241  N1354   1.366   .     A
C1242  C283    1.415   1_556 S
C1244  C281    1.415   1_556 S
C1244  N1353   1.366   .     S
C1246  N995    1.366   1_565 S
C1246  C287    1.415   1_556 S
C1247  N996    1.366   1_565 A
C1248  C285    1.415   1_556 S
C1249  C1266   1.408   .     A
C1249  C1259   1.380   .     A
C1249  N1273   1.439   .     S
C1250  N1276   1.439   .     S
C1250  C1260   1.380   .     A
C1250  C1265   1.408   .     A
C1251  C1265   1.413   .     A
C1251  C1257   1.380   .     A
C1251  N1279   1.436   .     S
C1252  N1282   1.436   .     S
C1252  C1258   1.380   .     A
C1252  C1266   1.413   .     A
C1253  C1268   1.403   .     A
C1253  C1263   1.385   .     A
C1253  N1285   1.437   .     S
C1254  C1267   1.403   .     A
C1254  N1288   1.437   .     S
C1254  C1264   1.385   .     A
C1255  N1291   1.437   .     S
C1255  C1267   1.402   .     A
C1255  C1261   1.385   .     A
C1256  N1294   1.438   .     S
C1256  C1268   1.402   .     A
C1256  C1262   1.385   .     A
C1257  C1270   1.408   .     A
C1257  N1297   1.439   .     S
C1258  N1300   1.439   .     S
C1258  C1269   1.408   .     A
C1259  C1269   1.413   .     A
C1259  N1303   1.436   .     S
C1260  N1306   1.436   .     S
C1260  C1270   1.413   .     A
C1261  N1309   1.437   .     S
C1261  C1272   1.403   .     A
C1262  C1271   1.403   .     A
C1262  N1312   1.437   .     S
C1263  N1315   1.437   .     S
C1263  C1271   1.402   .     A
C1264  N1318   1.437   .     S
C1264  C1272   1.402   .     A
N1273  O1275   1.301   .     A
N1273  O1274   1.301   .     A
N1276  O1278   1.301   .     A
N1276  O1277   1.301   .     A
N1279  O1281   1.301   .     A
N1279  O1280   1.301   .     A
N1282  O1284   1.300   .     A
N1282  O1283   1.301   .     A
N1285  O1286   1.301   .     A
N1285  O1287   1.301   .     A
N1288  O1290   1.301   .     A
N1288  O1289   1.301   .     A
N1291  O1292   1.301   .     A
N1291  O1293   1.301   .     A
N1294  O1296   1.301   .     A
N1294  O1295   1.301   .     A
N1297  O1298   1.301   .     A
N1297  O1299   1.301   .     A
N1300  O1302   1.301   .     A
N1300  O1301   1.301   .     A
N1303  O1305   1.300   .     A
N1303  O1304   1.301   .     A
N1306  O1308   1.301   .     A
N1306  O1307   1.301   .     A
N1309  O1311   1.301   .     A
N1309  O1310   1.301   .     A
N1312  O1314   1.301   .     A
N1312  O1313   1.301   .     A
N1315  O1316   1.301   .     A
N1315  O1317   1.301   .     A
N1318  O1319   1.301   .     A
N1318  O1320   1.301   .     A
O1321  C1337   1.279   .     A
O1321  Zn1357  1.986   .     S
O1322  C1338   1.279   .     A
O1322  Zn1238  1.986   1_655 S
O1323  C1338   1.274   .     A
O1323  Zn1237  1.991   1_655 S
O1324  C1337   1.274   .     A
O1324  Zn1358  1.991   .     S
O1325  Zn1238  2.005   1_655 S
O1325  C1339   1.288   .     A
O1326  C1340   1.288   .     A
O1326  Zn1357  2.005   .     S
O1327  C1340   1.280   .     A
O1327  Zn1358  2.021   .     S
O1328  C1339   1.280   .     A
O1328  Zn1237  2.021   1_655 S
O1329  Zn1119  1.986   1_565 S
O1329  C1341   1.279   .     A
O1330  C1342   1.279   .     A
O1330  Zn1360  1.986   .     S
O1331  C1342   1.274   .     A
O1331  Zn1359  1.991   .     S
O1332  C1341   1.274   .     A
O1332  Zn1120  1.991   1_565 S
O1333  C1343   1.288   .     A
O1333  Zn1120  2.005   1_565 S
O1334  C1344   1.288   .     A
O1334  Zn1359  2.005   .     S
O1335  C1344   1.280   .     A
O1335  Zn1360  2.021   .     S
O1336  C1343   1.280   .     A
O1336  Zn1119  2.021   1_565 S
C1337  C1388   1.410   .     S
C1338  C1387   1.410   .     S
C1339  C1386   1.436   .     S
C1340  C1385   1.436   .     S
C1341  C1392   1.410   .     S
C1342  C1391   1.410   .     S
C1343  C1390   1.436   .     S
C1344  C1389   1.436   .     S
H1345  C1361   1.082   .     S
H1346  C1362   1.082   .     S
H1347  C1363   1.082   .     S
H1348  C1364   1.082   .     S
H1349  C1365   1.082   .     S
H1350  C1366   1.082   .     S
H1351  C1367   1.082   .     S
H1352  C1368   1.082   .     S
N1353  C1362   1.366   .     A
N1353  Zn1357  2.004   .     S
N1354  Zn1358  2.004   .     S
N1354  C1363   1.366   .     S
N1355  C1368   1.366   .     A
N1355  Zn1359  2.004   .     S
N1356  Zn1360  2.004   .     S
N1356  C1365   1.366   .     S
C1361  N1234   1.366   1_655 A
C1362  C403    1.415   1_556 S
C1364  C401    1.415   1_556 S
C1364  N1233   1.366   1_655 S
C1366  N1115   1.366   1_565 S
C1366  C407    1.415   1_556 S
C1367  N1116   1.366   1_565 A
C1368  C405    1.415   1_556 S
C1369  C1386   1.408   .     A
C1369  C1379   1.380   .     A
C1369  N1393   1.439   .     S
C1370  N1396   1.439   .     S
C1370  C1380   1.380   .     A
C1370  C1385   1.408   .     A
C1371  C1385   1.413   .     A
C1371  C1377   1.380   .     A
C1371  N1399   1.436   .     S
C1372  N1402   1.436   .     S
C1372  C1378   1.380   .     A
C1372  C1386   1.413   .     A
C1373  C1388   1.403   .     A
C1373  C1383   1.385   .     A
C1373  N1405   1.437   .     S
C1374  C1387   1.403   .     A
C1374  N1408   1.437   .     S
C1374  C1384   1.385   .     A
C1375  N1411   1.437   .     S
C1375  C1387   1.402   .     A
C1375  C1381   1.385   .     A
C1376  N1414   1.438   .     S
C1376  C1388   1.402   .     A
C1376  C1382   1.385   .     A
C1377  C1390   1.408   .     A
C1377  N1417   1.439   .     S
C1378  N1420   1.439   .     S
C1378  C1389   1.408   .     A
C1379  C1389   1.413   .     A
C1379  N1423   1.436   .     S
C1380  N1426   1.436   .     S
C1380  C1390   1.413   .     A
C1381  N1429   1.437   .     S
C1381  C1392   1.403   .     A
C1382  C1391   1.403   .     A
C1382  N1432   1.437   .     S
C1383  N1435   1.437   .     S
C1383  C1391   1.402   .     A
C1384  N1438   1.437   .     S
C1384  C1392   1.402   .     A
N1393  O1395   1.301   .     A
N1393  O1394   1.301   .     A
N1396  O1398   1.301   .     A
N1396  O1397   1.301   .     A
N1399  O1401   1.301   .     A
N1399  O1400   1.301   .     A
N1402  O1404   1.300   .     A
N1402  O1403   1.301   .     A
N1405  O1406   1.301   .     A
N1405  O1407   1.301   .     A
N1408  O1410   1.301   .     A
N1408  O1409   1.301   .     A
N1411  O1412   1.301   .     A
N1411  O1413   1.301   .     A
N1414  O1416   1.301   .     A
N1414  O1415   1.301   .     A
N1417  O1418   1.301   .     A
N1417  O1419   1.301   .     A
N1420  O1422   1.301   .     A
N1420  O1421   1.301   .     A
N1423  O1425   1.300   .     A
N1423  O1424   1.301   .     A
N1426  O1428   1.301   .     A
N1426  O1427   1.301   .     A
N1429  O1431   1.301   .     A
N1429  O1430   1.301   .     A
N1432  O1434   1.301   .     A
N1432  O1433   1.301   .     A
N1435  O1436   1.301   .     A
N1435  O1437   1.301   .     A
N1438  O1439   1.301   .     A
N1438  O1440   1.301   .     A
