data_str_m3_o10_o17_pcu_sym.129
_audit_creation_date              2020-01-03
_audit_creation_method            'Materials Studio'
_symmetry_space_group_name_H-M    'P1'
_symmetry_Int_Tables_number       1
_symmetry_cell_setting            triclinic
loop_
_symmetry_equiv_pos_as_xyz
  x,y,z
_cell_length_a                    23.4055
_cell_length_b                    25.9705
_cell_length_c                    29.7764
_cell_angle_alpha                 91.5902
_cell_angle_beta                  85.9913
_cell_angle_gamma                 93.3950
loop_
_atom_site_label
_atom_site_type_symbol
_atom_site_fract_x
_atom_site_fract_y
_atom_site_fract_z
_atom_site_U_iso_or_equiv
_atom_site_adp_type
_atom_site_occupancy
C1     C     0.18189   0.26463   0.25359   0.00000  Uiso   1.00
C2     C     0.18053   0.21267   0.40660   0.00000  Uiso   1.00
C3     C     0.16394   0.16806   0.11629   0.00000  Uiso   1.00
C4     C     0.16932   0.16600   0.38390   0.00000  Uiso   1.00
C5     C     0.17290   0.21485   0.09428   0.00000  Uiso   1.00
C6     C     0.15943   0.11947   0.40622   0.00000  Uiso   1.00
C7     C     0.18274   0.21334   0.04729   0.00000  Uiso   1.00
C8     C     0.14909   0.12135   0.45312   0.00000  Uiso   1.00
C9     C     0.16497   0.16758   0.02368   0.00000  Uiso   1.00
C10    C     0.16699   0.16710   0.47666   0.00000  Uiso   1.00
C11    C     0.14532   0.12226   0.04723   0.00000  Uiso   1.00
C12    C     0.15197   0.06897   0.25573   0.00000  Uiso   1.00
C13    C     0.18702   0.21227   0.45303   0.00000  Uiso   1.00
C14    C     0.21170   0.25465   0.02348   0.00000  Uiso   1.00
C15    C     0.11979   0.08021   0.47695   0.00000  Uiso   1.00
C16    C     0.16568   0.26481   0.12091   0.00000  Uiso   1.00
C17    C     0.16633   0.06923   0.38010   0.00000  Uiso   1.00
C18    C     0.25321   0.00559   0.26590   0.00000  Uiso   1.00
C19    C     0.08432   0.32994   0.28424   0.00000  Uiso   1.00
C20    C     0.21357   0.25429   0.47645   0.00000  Uiso   1.00
C21    C     0.11838   0.08040   0.02392   0.00000  Uiso   1.00
C22    C     0.19086   0.31888   0.26283   0.00000  Uiso   1.00
C23    C     0.14462   0.01559   0.26712   0.00000  Uiso   1.00
C24    C     0.16735   0.16606   0.33623   0.00000  Uiso   1.00
C25    C     0.16602   0.16762   0.16384   0.00000  Uiso   1.00
C26    C     0.15261   0.12153   0.09349   0.00000  Uiso   1.00
Cl27   Cl    0.15408   0.06376   0.12370   0.00000  Uiso   1.00
Cl28   Cl    0.17976   0.27024   0.37607   0.00000  Uiso   1.00
Cl29   Cl    0.25519   0.30254   0.05092   0.00000  Uiso   1.00
Cl30   Cl    0.07564   0.03277   0.44959   0.00000  Uiso   1.00
Cl31   Cl    0.25824   0.30261   0.44829   0.00000  Uiso   1.00
Cl32   Cl    0.07390   0.03209   0.05225   0.00000  Uiso   1.00
Cl33   Cl    0.01345   0.11123   0.19782   0.00000  Uiso   1.00
Cl34   Cl    0.32006   0.21859   0.30489   0.00000  Uiso   1.00
H35    H     0.20517   0.27626   0.13819   0.00000  Uiso   1.00
H36    H     0.05980   0.02827   0.30042   0.00000  Uiso   1.00
H37    H     0.05992   0.31367   0.25595   0.00000  Uiso   1.00
H38    H     0.08607   0.30127   0.31103   0.00000  Uiso   1.00
H39    H     0.15438   0.29550   0.09868   0.00000  Uiso   1.00
H40    H     0.12900   0.26073   0.14654   0.00000  Uiso   1.00
H41    H     0.12680   0.05795   0.36290   0.00000  Uiso   1.00
H42    H     0.20310   0.07297   0.35463   0.00000  Uiso   1.00
H43    H     0.17721   0.03859   0.40256   0.00000  Uiso   1.00
H44    H     0.28050   0.30881   0.27651   0.00000  Uiso   1.00
H45    H     0.27157   0.01911   0.23261   0.00000  Uiso   1.00
H46    H     0.25709   0.03638   0.29226   0.00000  Uiso   1.00
N47    N     0.31678   0.15265   0.23783   0.00000  Uiso   1.00
N48    N     0.01656   0.18068   0.26217   0.00000  Uiso   1.00
O49    O     0.12975   0.24619   0.25298   0.00000  Uiso   1.00
O50    O     0.20358   0.08714   0.24701   0.00000  Uiso   1.00
O51    O     0.22613   0.23721   0.24518   0.00000  Uiso   1.00
O52    O     0.10720   0.09613   0.25481   0.00000  Uiso   1.00
O53    O     0.11847   0.17117   0.31997   0.00000  Uiso   1.00
O54    O     0.21486   0.16216   0.18002   0.00000  Uiso   1.00
O55    O     0.21485   0.16219   0.31217   0.00000  Uiso   1.00
O56    O     0.11848   0.17115   0.18782   0.00000  Uiso   1.00
Zn57   Zn    0.10231   0.17266   0.25521   0.00000  Uiso   1.00
Zn58   Zn    0.23102   0.16067   0.24479   0.00000  Uiso   1.00
C59    C     0.51522   0.26463   0.25359   0.00000  Uiso   1.00
C60    C     0.51386   0.21267   0.40660   0.00000  Uiso   1.00
C61    C     0.49727   0.16806   0.11629   0.00000  Uiso   1.00
C62    C     0.50265   0.16600   0.38390   0.00000  Uiso   1.00
C63    C     0.50624   0.21485   0.09428   0.00000  Uiso   1.00
C64    C     0.49276   0.11947   0.40622   0.00000  Uiso   1.00
C65    C     0.51607   0.21334   0.04729   0.00000  Uiso   1.00
C66    C     0.48242   0.12135   0.45312   0.00000  Uiso   1.00
C67    C     0.49830   0.16758   0.02368   0.00000  Uiso   1.00
C68    C     0.50032   0.16710   0.47666   0.00000  Uiso   1.00
C69    C     0.47865   0.12226   0.04723   0.00000  Uiso   1.00
C70    C     0.48530   0.06897   0.25573   0.00000  Uiso   1.00
C71    C     0.52035   0.21227   0.45303   0.00000  Uiso   1.00
C72    C     0.54504   0.25465   0.02348   0.00000  Uiso   1.00
C73    C     0.45313   0.08021   0.47695   0.00000  Uiso   1.00
C74    C     0.49901   0.26481   0.12091   0.00000  Uiso   1.00
C75    C     0.49966   0.06923   0.38010   0.00000  Uiso   1.00
C76    C     0.58654   0.00559   0.26590   0.00000  Uiso   1.00
C77    C     0.41765   0.32994   0.28424   0.00000  Uiso   1.00
C78    C     0.54690   0.25429   0.47645   0.00000  Uiso   1.00
C79    C     0.45171   0.08040   0.02392   0.00000  Uiso   1.00
C80    C     0.52420   0.31888   0.26283   0.00000  Uiso   1.00
C81    C     0.47795   0.01559   0.26712   0.00000  Uiso   1.00
C82    C     0.50069   0.16606   0.33623   0.00000  Uiso   1.00
C83    C     0.49936   0.16762   0.16384   0.00000  Uiso   1.00
C84    C     0.48595   0.12153   0.09349   0.00000  Uiso   1.00
Cl85   Cl    0.48741   0.06376   0.12370   0.00000  Uiso   1.00
Cl86   Cl    0.51309   0.27024   0.37607   0.00000  Uiso   1.00
Cl87   Cl    0.58852   0.30254   0.05092   0.00000  Uiso   1.00
Cl88   Cl    0.40897   0.03277   0.44959   0.00000  Uiso   1.00
Cl89   Cl    0.59157   0.30261   0.44829   0.00000  Uiso   1.00
Cl90   Cl    0.40723   0.03209   0.05225   0.00000  Uiso   1.00
Cl91   Cl    0.34679   0.11123   0.19782   0.00000  Uiso   1.00
Cl92   Cl    0.65339   0.21859   0.30489   0.00000  Uiso   1.00
H93    H     0.53850   0.27626   0.13819   0.00000  Uiso   1.00
H94    H     0.39313   0.02827   0.30042   0.00000  Uiso   1.00
H95    H     0.39325   0.31367   0.25595   0.00000  Uiso   1.00
H96    H     0.41940   0.30127   0.31103   0.00000  Uiso   1.00
H97    H     0.48771   0.29550   0.09868   0.00000  Uiso   1.00
H98    H     0.46233   0.26073   0.14654   0.00000  Uiso   1.00
H99    H     0.46014   0.05795   0.36290   0.00000  Uiso   1.00
H100   H     0.53643   0.07297   0.35463   0.00000  Uiso   1.00
H101   H     0.51054   0.03859   0.40256   0.00000  Uiso   1.00
H102   H     0.61383   0.30881   0.27651   0.00000  Uiso   1.00
H103   H     0.60490   0.01911   0.23261   0.00000  Uiso   1.00
H104   H     0.59043   0.03638   0.29226   0.00000  Uiso   1.00
N105   N     0.65011   0.15265   0.23783   0.00000  Uiso   1.00
N106   N     0.34989   0.18068   0.26217   0.00000  Uiso   1.00
O107   O     0.46308   0.24619   0.25298   0.00000  Uiso   1.00
O108   O     0.53692   0.08714   0.24701   0.00000  Uiso   1.00
O109   O     0.55946   0.23721   0.24518   0.00000  Uiso   1.00
O110   O     0.44054   0.09613   0.25481   0.00000  Uiso   1.00
O111   O     0.45181   0.17117   0.31997   0.00000  Uiso   1.00
O112   O     0.54819   0.16216   0.18002   0.00000  Uiso   1.00
O113   O     0.54819   0.16219   0.31217   0.00000  Uiso   1.00
O114   O     0.45181   0.17115   0.18782   0.00000  Uiso   1.00
Zn115  Zn    0.43565   0.17266   0.25521   0.00000  Uiso   1.00
Zn116  Zn    0.56435   0.16067   0.24479   0.00000  Uiso   1.00
C117   C     0.84856   0.26463   0.25359   0.00000  Uiso   1.00
C118   C     0.84719   0.21267   0.40660   0.00000  Uiso   1.00
C119   C     0.83061   0.16806   0.11629   0.00000  Uiso   1.00
C120   C     0.83599   0.16600   0.38390   0.00000  Uiso   1.00
C121   C     0.83957   0.21485   0.09428   0.00000  Uiso   1.00
C122   C     0.82610   0.11947   0.40622   0.00000  Uiso   1.00
C123   C     0.84941   0.21334   0.04729   0.00000  Uiso   1.00
C124   C     0.81575   0.12135   0.45312   0.00000  Uiso   1.00
C125   C     0.83164   0.16758   0.02368   0.00000  Uiso   1.00
C126   C     0.83366   0.16710   0.47666   0.00000  Uiso   1.00
C127   C     0.81198   0.12226   0.04723   0.00000  Uiso   1.00
C128   C     0.81863   0.06897   0.25573   0.00000  Uiso   1.00
C129   C     0.85368   0.21227   0.45303   0.00000  Uiso   1.00
C130   C     0.87837   0.25465   0.02348   0.00000  Uiso   1.00
C131   C     0.78646   0.08021   0.47695   0.00000  Uiso   1.00
C132   C     0.83234   0.26481   0.12091   0.00000  Uiso   1.00
C133   C     0.83300   0.06923   0.38010   0.00000  Uiso   1.00
C134   C     0.91988   0.00559   0.26590   0.00000  Uiso   1.00
C135   C     0.75098   0.32994   0.28424   0.00000  Uiso   1.00
C136   C     0.88023   0.25429   0.47645   0.00000  Uiso   1.00
C137   C     0.78504   0.08040   0.02392   0.00000  Uiso   1.00
C138   C     0.85753   0.31888   0.26283   0.00000  Uiso   1.00
C139   C     0.81129   0.01559   0.26712   0.00000  Uiso   1.00
C140   C     0.83402   0.16606   0.33623   0.00000  Uiso   1.00
C141   C     0.83269   0.16762   0.16384   0.00000  Uiso   1.00
C142   C     0.81928   0.12153   0.09349   0.00000  Uiso   1.00
Cl143  Cl    0.82074   0.06376   0.12370   0.00000  Uiso   1.00
Cl144  Cl    0.84643   0.27024   0.37607   0.00000  Uiso   1.00
Cl145  Cl    0.92186   0.30254   0.05092   0.00000  Uiso   1.00
Cl146  Cl    0.74231   0.03277   0.44959   0.00000  Uiso   1.00
Cl147  Cl    0.92490   0.30261   0.44829   0.00000  Uiso   1.00
Cl148  Cl    0.74057   0.03209   0.05225   0.00000  Uiso   1.00
Cl149  Cl    0.68012   0.11123   0.19782   0.00000  Uiso   1.00
Cl150  Cl    0.98673   0.21859   0.30489   0.00000  Uiso   1.00
H151   H     0.87183   0.27626   0.13819   0.00000  Uiso   1.00
H152   H     0.72647   0.02827   0.30042   0.00000  Uiso   1.00
H153   H     0.72658   0.31367   0.25595   0.00000  Uiso   1.00
H154   H     0.75273   0.30127   0.31103   0.00000  Uiso   1.00
H155   H     0.82104   0.29550   0.09868   0.00000  Uiso   1.00
H156   H     0.79567   0.26073   0.14654   0.00000  Uiso   1.00
H157   H     0.79347   0.05795   0.36290   0.00000  Uiso   1.00
H158   H     0.86976   0.07297   0.35463   0.00000  Uiso   1.00
H159   H     0.84387   0.03859   0.40256   0.00000  Uiso   1.00
H160   H     0.94716   0.30881   0.27651   0.00000  Uiso   1.00
H161   H     0.93823   0.01911   0.23261   0.00000  Uiso   1.00
H162   H     0.92376   0.03638   0.29226   0.00000  Uiso   1.00
N163   N     0.98344   0.15265   0.23783   0.00000  Uiso   1.00
N164   N     0.68322   0.18068   0.26217   0.00000  Uiso   1.00
O165   O     0.79642   0.24619   0.25298   0.00000  Uiso   1.00
O166   O     0.87025   0.08714   0.24701   0.00000  Uiso   1.00
O167   O     0.89280   0.23721   0.24518   0.00000  Uiso   1.00
O168   O     0.77387   0.09613   0.25481   0.00000  Uiso   1.00
O169   O     0.78514   0.17117   0.31997   0.00000  Uiso   1.00
O170   O     0.88153   0.16216   0.18002   0.00000  Uiso   1.00
O171   O     0.88152   0.16219   0.31217   0.00000  Uiso   1.00
O172   O     0.78515   0.17115   0.18782   0.00000  Uiso   1.00
Zn173  Zn    0.76898   0.17266   0.25521   0.00000  Uiso   1.00
Zn174  Zn    0.89769   0.16067   0.24479   0.00000  Uiso   1.00
C175   C     0.18189   0.59796   0.25359   0.00000  Uiso   1.00
C176   C     0.18053   0.54600   0.40660   0.00000  Uiso   1.00
C177   C     0.16394   0.50139   0.11629   0.00000  Uiso   1.00
C178   C     0.16932   0.49933   0.38390   0.00000  Uiso   1.00
C179   C     0.17290   0.54818   0.09428   0.00000  Uiso   1.00
C180   C     0.15943   0.45281   0.40622   0.00000  Uiso   1.00
C181   C     0.18274   0.54667   0.04729   0.00000  Uiso   1.00
C182   C     0.14909   0.45468   0.45312   0.00000  Uiso   1.00
C183   C     0.16497   0.50091   0.02368   0.00000  Uiso   1.00
C184   C     0.16699   0.50044   0.47666   0.00000  Uiso   1.00
C185   C     0.14532   0.45559   0.04723   0.00000  Uiso   1.00
C186   C     0.15197   0.40230   0.25573   0.00000  Uiso   1.00
C187   C     0.18702   0.54560   0.45303   0.00000  Uiso   1.00
C188   C     0.21170   0.58799   0.02348   0.00000  Uiso   1.00
C189   C     0.11979   0.41355   0.47695   0.00000  Uiso   1.00
C190   C     0.16568   0.59814   0.12091   0.00000  Uiso   1.00
C191   C     0.16633   0.40257   0.38010   0.00000  Uiso   1.00
C192   C     0.25321   0.33892   0.26590   0.00000  Uiso   1.00
C193   C     0.08432   0.66327   0.28424   0.00000  Uiso   1.00
C194   C     0.21357   0.58762   0.47645   0.00000  Uiso   1.00
C195   C     0.11838   0.41373   0.02392   0.00000  Uiso   1.00
C196   C     0.19086   0.65221   0.26283   0.00000  Uiso   1.00
C197   C     0.14462   0.34893   0.26712   0.00000  Uiso   1.00
C198   C     0.16735   0.49939   0.33623   0.00000  Uiso   1.00
C199   C     0.16602   0.50095   0.16384   0.00000  Uiso   1.00
C200   C     0.15261   0.45486   0.09349   0.00000  Uiso   1.00
Cl201  Cl    0.15408   0.39710   0.12370   0.00000  Uiso   1.00
Cl202  Cl    0.17976   0.60357   0.37607   0.00000  Uiso   1.00
Cl203  Cl    0.25519   0.63587   0.05092   0.00000  Uiso   1.00
Cl204  Cl    0.07564   0.36610   0.44959   0.00000  Uiso   1.00
Cl205  Cl    0.25824   0.63594   0.44829   0.00000  Uiso   1.00
Cl206  Cl    0.07390   0.36543   0.05225   0.00000  Uiso   1.00
Cl207  Cl    0.01345   0.44457   0.19782   0.00000  Uiso   1.00
Cl208  Cl    0.32006   0.55192   0.30489   0.00000  Uiso   1.00
H209   H     0.20517   0.60960   0.13819   0.00000  Uiso   1.00
H210   H     0.05980   0.36161   0.30042   0.00000  Uiso   1.00
H211   H     0.05992   0.64700   0.25595   0.00000  Uiso   1.00
H212   H     0.08607   0.63460   0.31103   0.00000  Uiso   1.00
H213   H     0.15438   0.62884   0.09868   0.00000  Uiso   1.00
H214   H     0.12900   0.59406   0.14654   0.00000  Uiso   1.00
H215   H     0.12680   0.39129   0.36290   0.00000  Uiso   1.00
H216   H     0.20310   0.40630   0.35463   0.00000  Uiso   1.00
H217   H     0.17721   0.37192   0.40256   0.00000  Uiso   1.00
H218   H     0.28050   0.64215   0.27651   0.00000  Uiso   1.00
H219   H     0.27157   0.35244   0.23261   0.00000  Uiso   1.00
H220   H     0.25709   0.36972   0.29226   0.00000  Uiso   1.00
N221   N     0.31678   0.48598   0.23783   0.00000  Uiso   1.00
N222   N     0.01656   0.51402   0.26217   0.00000  Uiso   1.00
O223   O     0.12975   0.57952   0.25298   0.00000  Uiso   1.00
O224   O     0.20358   0.42048   0.24701   0.00000  Uiso   1.00
O225   O     0.22613   0.57054   0.24518   0.00000  Uiso   1.00
O226   O     0.10720   0.42946   0.25481   0.00000  Uiso   1.00
O227   O     0.11847   0.50450   0.31997   0.00000  Uiso   1.00
O228   O     0.21486   0.49550   0.18002   0.00000  Uiso   1.00
O229   O     0.21485   0.49552   0.31217   0.00000  Uiso   1.00
O230   O     0.11848   0.50448   0.18782   0.00000  Uiso   1.00
Zn231  Zn    0.10231   0.50600   0.25521   0.00000  Uiso   1.00
Zn232  Zn    0.23102   0.49400   0.24479   0.00000  Uiso   1.00
C233   C     0.51522   0.59796   0.25359   0.00000  Uiso   1.00
C234   C     0.51386   0.54600   0.40660   0.00000  Uiso   1.00
C235   C     0.49727   0.50139   0.11629   0.00000  Uiso   1.00
C236   C     0.50265   0.49933   0.38390   0.00000  Uiso   1.00
C237   C     0.50624   0.54818   0.09428   0.00000  Uiso   1.00
C238   C     0.49276   0.45281   0.40622   0.00000  Uiso   1.00
C239   C     0.51607   0.54667   0.04729   0.00000  Uiso   1.00
C240   C     0.48242   0.45468   0.45312   0.00000  Uiso   1.00
C241   C     0.49830   0.50091   0.02368   0.00000  Uiso   1.00
C242   C     0.50032   0.50044   0.47666   0.00000  Uiso   1.00
C243   C     0.47865   0.45559   0.04723   0.00000  Uiso   1.00
C244   C     0.48530   0.40230   0.25573   0.00000  Uiso   1.00
C245   C     0.52035   0.54560   0.45303   0.00000  Uiso   1.00
C246   C     0.54504   0.58799   0.02348   0.00000  Uiso   1.00
C247   C     0.45313   0.41355   0.47695   0.00000  Uiso   1.00
C248   C     0.49901   0.59814   0.12091   0.00000  Uiso   1.00
C249   C     0.49966   0.40257   0.38010   0.00000  Uiso   1.00
C250   C     0.58654   0.33892   0.26590   0.00000  Uiso   1.00
C251   C     0.41765   0.66327   0.28424   0.00000  Uiso   1.00
C252   C     0.54690   0.58762   0.47645   0.00000  Uiso   1.00
C253   C     0.45171   0.41373   0.02392   0.00000  Uiso   1.00
C254   C     0.52420   0.65221   0.26283   0.00000  Uiso   1.00
C255   C     0.47795   0.34893   0.26712   0.00000  Uiso   1.00
C256   C     0.50069   0.49939   0.33623   0.00000  Uiso   1.00
C257   C     0.49936   0.50095   0.16384   0.00000  Uiso   1.00
C258   C     0.48595   0.45486   0.09349   0.00000  Uiso   1.00
Cl259  Cl    0.48741   0.39710   0.12370   0.00000  Uiso   1.00
Cl260  Cl    0.51309   0.60357   0.37607   0.00000  Uiso   1.00
Cl261  Cl    0.58852   0.63587   0.05092   0.00000  Uiso   1.00
Cl262  Cl    0.40897   0.36610   0.44959   0.00000  Uiso   1.00
Cl263  Cl    0.59157   0.63594   0.44829   0.00000  Uiso   1.00
Cl264  Cl    0.40723   0.36543   0.05225   0.00000  Uiso   1.00
Cl265  Cl    0.34679   0.44457   0.19782   0.00000  Uiso   1.00
Cl266  Cl    0.65339   0.55192   0.30489   0.00000  Uiso   1.00
H267   H     0.53850   0.60960   0.13819   0.00000  Uiso   1.00
H268   H     0.39313   0.36161   0.30042   0.00000  Uiso   1.00
H269   H     0.39325   0.64700   0.25595   0.00000  Uiso   1.00
H270   H     0.41940   0.63460   0.31103   0.00000  Uiso   1.00
H271   H     0.48771   0.62884   0.09868   0.00000  Uiso   1.00
H272   H     0.46233   0.59406   0.14654   0.00000  Uiso   1.00
H273   H     0.46014   0.39129   0.36290   0.00000  Uiso   1.00
H274   H     0.53643   0.40630   0.35463   0.00000  Uiso   1.00
H275   H     0.51054   0.37192   0.40256   0.00000  Uiso   1.00
H276   H     0.61383   0.64215   0.27651   0.00000  Uiso   1.00
H277   H     0.60490   0.35244   0.23261   0.00000  Uiso   1.00
H278   H     0.59043   0.36972   0.29226   0.00000  Uiso   1.00
N279   N     0.65011   0.48598   0.23783   0.00000  Uiso   1.00
N280   N     0.34989   0.51402   0.26217   0.00000  Uiso   1.00
O281   O     0.46308   0.57952   0.25298   0.00000  Uiso   1.00
O282   O     0.53692   0.42048   0.24701   0.00000  Uiso   1.00
O283   O     0.55946   0.57054   0.24518   0.00000  Uiso   1.00
O284   O     0.44054   0.42946   0.25481   0.00000  Uiso   1.00
O285   O     0.45181   0.50450   0.31997   0.00000  Uiso   1.00
O286   O     0.54819   0.49550   0.18002   0.00000  Uiso   1.00
O287   O     0.54819   0.49552   0.31217   0.00000  Uiso   1.00
O288   O     0.45181   0.50448   0.18782   0.00000  Uiso   1.00
Zn289  Zn    0.43565   0.50600   0.25521   0.00000  Uiso   1.00
Zn290  Zn    0.56435   0.49400   0.24479   0.00000  Uiso   1.00
C291   C     0.84856   0.59796   0.25359   0.00000  Uiso   1.00
C292   C     0.84719   0.54600   0.40660   0.00000  Uiso   1.00
C293   C     0.83061   0.50139   0.11629   0.00000  Uiso   1.00
C294   C     0.83599   0.49933   0.38390   0.00000  Uiso   1.00
C295   C     0.83957   0.54818   0.09428   0.00000  Uiso   1.00
C296   C     0.82610   0.45281   0.40622   0.00000  Uiso   1.00
C297   C     0.84941   0.54667   0.04729   0.00000  Uiso   1.00
C298   C     0.81575   0.45468   0.45312   0.00000  Uiso   1.00
C299   C     0.83164   0.50091   0.02368   0.00000  Uiso   1.00
C300   C     0.83366   0.50044   0.47666   0.00000  Uiso   1.00
C301   C     0.81198   0.45559   0.04723   0.00000  Uiso   1.00
C302   C     0.81863   0.40230   0.25573   0.00000  Uiso   1.00
C303   C     0.85368   0.54560   0.45303   0.00000  Uiso   1.00
C304   C     0.87837   0.58799   0.02348   0.00000  Uiso   1.00
C305   C     0.78646   0.41355   0.47695   0.00000  Uiso   1.00
C306   C     0.83234   0.59814   0.12091   0.00000  Uiso   1.00
C307   C     0.83300   0.40257   0.38010   0.00000  Uiso   1.00
C308   C     0.91988   0.33892   0.26590   0.00000  Uiso   1.00
C309   C     0.75098   0.66327   0.28424   0.00000  Uiso   1.00
C310   C     0.88023   0.58762   0.47645   0.00000  Uiso   1.00
C311   C     0.78504   0.41373   0.02392   0.00000  Uiso   1.00
C312   C     0.85753   0.65221   0.26283   0.00000  Uiso   1.00
C313   C     0.81129   0.34893   0.26712   0.00000  Uiso   1.00
C314   C     0.83402   0.49939   0.33623   0.00000  Uiso   1.00
C315   C     0.83269   0.50095   0.16384   0.00000  Uiso   1.00
C316   C     0.81928   0.45486   0.09349   0.00000  Uiso   1.00
Cl317  Cl    0.82074   0.39710   0.12370   0.00000  Uiso   1.00
Cl318  Cl    0.84643   0.60357   0.37607   0.00000  Uiso   1.00
Cl319  Cl    0.92186   0.63587   0.05092   0.00000  Uiso   1.00
Cl320  Cl    0.74231   0.36610   0.44959   0.00000  Uiso   1.00
Cl321  Cl    0.92490   0.63594   0.44829   0.00000  Uiso   1.00
Cl322  Cl    0.74057   0.36543   0.05225   0.00000  Uiso   1.00
Cl323  Cl    0.68012   0.44457   0.19782   0.00000  Uiso   1.00
Cl324  Cl    0.98673   0.55192   0.30489   0.00000  Uiso   1.00
H325   H     0.87183   0.60960   0.13819   0.00000  Uiso   1.00
H326   H     0.72647   0.36161   0.30042   0.00000  Uiso   1.00
H327   H     0.72658   0.64700   0.25595   0.00000  Uiso   1.00
H328   H     0.75273   0.63460   0.31103   0.00000  Uiso   1.00
H329   H     0.82104   0.62884   0.09868   0.00000  Uiso   1.00
H330   H     0.79567   0.59406   0.14654   0.00000  Uiso   1.00
H331   H     0.79347   0.39129   0.36290   0.00000  Uiso   1.00
H332   H     0.86976   0.40630   0.35463   0.00000  Uiso   1.00
H333   H     0.84387   0.37192   0.40256   0.00000  Uiso   1.00
H334   H     0.94716   0.64215   0.27651   0.00000  Uiso   1.00
H335   H     0.93823   0.35244   0.23261   0.00000  Uiso   1.00
H336   H     0.92376   0.36972   0.29226   0.00000  Uiso   1.00
N337   N     0.98344   0.48598   0.23783   0.00000  Uiso   1.00
N338   N     0.68322   0.51402   0.26217   0.00000  Uiso   1.00
O339   O     0.79642   0.57952   0.25298   0.00000  Uiso   1.00
O340   O     0.87025   0.42048   0.24701   0.00000  Uiso   1.00
O341   O     0.89280   0.57054   0.24518   0.00000  Uiso   1.00
O342   O     0.77387   0.42946   0.25481   0.00000  Uiso   1.00
O343   O     0.78514   0.50450   0.31997   0.00000  Uiso   1.00
O344   O     0.88153   0.49550   0.18002   0.00000  Uiso   1.00
O345   O     0.88152   0.49552   0.31217   0.00000  Uiso   1.00
O346   O     0.78515   0.50448   0.18782   0.00000  Uiso   1.00
Zn347  Zn    0.76898   0.50600   0.25521   0.00000  Uiso   1.00
Zn348  Zn    0.89769   0.49400   0.24479   0.00000  Uiso   1.00
C349   C     0.18189   0.93129   0.25359   0.00000  Uiso   1.00
C350   C     0.18053   0.87933   0.40660   0.00000  Uiso   1.00
C351   C     0.16394   0.83473   0.11629   0.00000  Uiso   1.00
C352   C     0.16932   0.83266   0.38390   0.00000  Uiso   1.00
C353   C     0.17290   0.88152   0.09428   0.00000  Uiso   1.00
C354   C     0.15943   0.78614   0.40622   0.00000  Uiso   1.00
C355   C     0.18274   0.88000   0.04729   0.00000  Uiso   1.00
C356   C     0.14909   0.78802   0.45312   0.00000  Uiso   1.00
C357   C     0.16497   0.83425   0.02368   0.00000  Uiso   1.00
C358   C     0.16699   0.83377   0.47666   0.00000  Uiso   1.00
C359   C     0.14532   0.78893   0.04723   0.00000  Uiso   1.00
C360   C     0.15197   0.73564   0.25573   0.00000  Uiso   1.00
C361   C     0.18702   0.87893   0.45303   0.00000  Uiso   1.00
C362   C     0.21170   0.92132   0.02348   0.00000  Uiso   1.00
C363   C     0.11979   0.74688   0.47695   0.00000  Uiso   1.00
C364   C     0.16568   0.93147   0.12091   0.00000  Uiso   1.00
C365   C     0.16633   0.73590   0.38010   0.00000  Uiso   1.00
C366   C     0.25321   0.67226   0.26590   0.00000  Uiso   1.00
C367   C     0.08432   0.99661   0.28424   0.00000  Uiso   1.00
C368   C     0.21357   0.92096   0.47645   0.00000  Uiso   1.00
C369   C     0.11838   0.74707   0.02392   0.00000  Uiso   1.00
C370   C     0.19086   0.98555   0.26283   0.00000  Uiso   1.00
C371   C     0.14462   0.68226   0.26712   0.00000  Uiso   1.00
C372   C     0.16735   0.83273   0.33623   0.00000  Uiso   1.00
C373   C     0.16602   0.83429   0.16384   0.00000  Uiso   1.00
C374   C     0.15261   0.78820   0.09349   0.00000  Uiso   1.00
Cl375  Cl    0.15408   0.73043   0.12370   0.00000  Uiso   1.00
Cl376  Cl    0.17976   0.93691   0.37607   0.00000  Uiso   1.00
Cl377  Cl    0.25519   0.96920   0.05092   0.00000  Uiso   1.00
Cl378  Cl    0.07564   0.69944   0.44959   0.00000  Uiso   1.00
Cl379  Cl    0.25824   0.96928   0.44829   0.00000  Uiso   1.00
Cl380  Cl    0.07390   0.69876   0.05225   0.00000  Uiso   1.00
Cl381  Cl    0.01345   0.77790   0.19782   0.00000  Uiso   1.00
Cl382  Cl    0.32006   0.88526   0.30489   0.00000  Uiso   1.00
H383   H     0.20517   0.94293   0.13819   0.00000  Uiso   1.00
H384   H     0.05980   0.69494   0.30042   0.00000  Uiso   1.00
H385   H     0.05992   0.98033   0.25595   0.00000  Uiso   1.00
H386   H     0.08607   0.96794   0.31103   0.00000  Uiso   1.00
H387   H     0.15438   0.96217   0.09868   0.00000  Uiso   1.00
H388   H     0.12900   0.92739   0.14654   0.00000  Uiso   1.00
H389   H     0.12680   0.72462   0.36290   0.00000  Uiso   1.00
H390   H     0.20310   0.73963   0.35463   0.00000  Uiso   1.00
H391   H     0.17721   0.70525   0.40256   0.00000  Uiso   1.00
H392   H     0.28050   0.97548   0.27651   0.00000  Uiso   1.00
H393   H     0.27157   0.68577   0.23261   0.00000  Uiso   1.00
H394   H     0.25709   0.70305   0.29226   0.00000  Uiso   1.00
N395   N     0.31678   0.81932   0.23783   0.00000  Uiso   1.00
N396   N     0.01656   0.84735   0.26217   0.00000  Uiso   1.00
O397   O     0.12975   0.91286   0.25298   0.00000  Uiso   1.00
O398   O     0.20358   0.75381   0.24701   0.00000  Uiso   1.00
O399   O     0.22613   0.90387   0.24518   0.00000  Uiso   1.00
O400   O     0.10720   0.76279   0.25481   0.00000  Uiso   1.00
O401   O     0.11847   0.83784   0.31997   0.00000  Uiso   1.00
O402   O     0.21486   0.82883   0.18002   0.00000  Uiso   1.00
O403   O     0.21485   0.82885   0.31217   0.00000  Uiso   1.00
O404   O     0.11848   0.83781   0.18782   0.00000  Uiso   1.00
Zn405  Zn    0.10231   0.83933   0.25521   0.00000  Uiso   1.00
Zn406  Zn    0.23102   0.82734   0.24479   0.00000  Uiso   1.00
C407   C     0.51522   0.93129   0.25359   0.00000  Uiso   1.00
C408   C     0.51386   0.87933   0.40660   0.00000  Uiso   1.00
C409   C     0.49727   0.83473   0.11629   0.00000  Uiso   1.00
C410   C     0.50265   0.83266   0.38390   0.00000  Uiso   1.00
C411   C     0.50624   0.88152   0.09428   0.00000  Uiso   1.00
C412   C     0.49276   0.78614   0.40622   0.00000  Uiso   1.00
C413   C     0.51607   0.88000   0.04729   0.00000  Uiso   1.00
C414   C     0.48242   0.78802   0.45312   0.00000  Uiso   1.00
C415   C     0.49830   0.83425   0.02368   0.00000  Uiso   1.00
C416   C     0.50032   0.83377   0.47666   0.00000  Uiso   1.00
C417   C     0.47865   0.78893   0.04723   0.00000  Uiso   1.00
C418   C     0.48530   0.73564   0.25573   0.00000  Uiso   1.00
C419   C     0.52035   0.87893   0.45303   0.00000  Uiso   1.00
C420   C     0.54504   0.92132   0.02348   0.00000  Uiso   1.00
C421   C     0.45313   0.74688   0.47695   0.00000  Uiso   1.00
C422   C     0.49901   0.93147   0.12091   0.00000  Uiso   1.00
C423   C     0.49966   0.73590   0.38010   0.00000  Uiso   1.00
C424   C     0.58654   0.67226   0.26590   0.00000  Uiso   1.00
C425   C     0.41765   0.99661   0.28424   0.00000  Uiso   1.00
C426   C     0.54690   0.92096   0.47645   0.00000  Uiso   1.00
C427   C     0.45171   0.74707   0.02392   0.00000  Uiso   1.00
C428   C     0.52420   0.98555   0.26283   0.00000  Uiso   1.00
C429   C     0.47795   0.68226   0.26712   0.00000  Uiso   1.00
C430   C     0.50069   0.83273   0.33623   0.00000  Uiso   1.00
C431   C     0.49936   0.83429   0.16384   0.00000  Uiso   1.00
C432   C     0.48595   0.78820   0.09349   0.00000  Uiso   1.00
Cl433  Cl    0.48741   0.73043   0.12370   0.00000  Uiso   1.00
Cl434  Cl    0.51309   0.93691   0.37607   0.00000  Uiso   1.00
Cl435  Cl    0.58852   0.96920   0.05092   0.00000  Uiso   1.00
Cl436  Cl    0.40897   0.69944   0.44959   0.00000  Uiso   1.00
Cl437  Cl    0.59157   0.96928   0.44829   0.00000  Uiso   1.00
Cl438  Cl    0.40723   0.69876   0.05225   0.00000  Uiso   1.00
Cl439  Cl    0.34679   0.77790   0.19782   0.00000  Uiso   1.00
Cl440  Cl    0.65339   0.88526   0.30489   0.00000  Uiso   1.00
H441   H     0.53850   0.94293   0.13819   0.00000  Uiso   1.00
H442   H     0.39313   0.69494   0.30042   0.00000  Uiso   1.00
H443   H     0.39325   0.98033   0.25595   0.00000  Uiso   1.00
H444   H     0.41940   0.96794   0.31103   0.00000  Uiso   1.00
H445   H     0.48771   0.96217   0.09868   0.00000  Uiso   1.00
H446   H     0.46233   0.92739   0.14654   0.00000  Uiso   1.00
H447   H     0.46014   0.72462   0.36290   0.00000  Uiso   1.00
H448   H     0.53643   0.73963   0.35463   0.00000  Uiso   1.00
H449   H     0.51054   0.70525   0.40256   0.00000  Uiso   1.00
H450   H     0.61383   0.97548   0.27651   0.00000  Uiso   1.00
H451   H     0.60490   0.68577   0.23261   0.00000  Uiso   1.00
H452   H     0.59043   0.70305   0.29226   0.00000  Uiso   1.00
N453   N     0.65011   0.81932   0.23783   0.00000  Uiso   1.00
N454   N     0.34989   0.84735   0.26217   0.00000  Uiso   1.00
O455   O     0.46308   0.91286   0.25298   0.00000  Uiso   1.00
O456   O     0.53692   0.75381   0.24701   0.00000  Uiso   1.00
O457   O     0.55946   0.90387   0.24518   0.00000  Uiso   1.00
O458   O     0.44054   0.76279   0.25481   0.00000  Uiso   1.00
O459   O     0.45181   0.83784   0.31997   0.00000  Uiso   1.00
O460   O     0.54819   0.82883   0.18002   0.00000  Uiso   1.00
O461   O     0.54819   0.82885   0.31217   0.00000  Uiso   1.00
O462   O     0.45181   0.83781   0.18782   0.00000  Uiso   1.00
Zn463  Zn    0.43565   0.83933   0.25521   0.00000  Uiso   1.00
Zn464  Zn    0.56435   0.82734   0.24479   0.00000  Uiso   1.00
C465   C     0.84856   0.93129   0.25359   0.00000  Uiso   1.00
C466   C     0.84719   0.87933   0.40660   0.00000  Uiso   1.00
C467   C     0.83061   0.83473   0.11629   0.00000  Uiso   1.00
C468   C     0.83599   0.83266   0.38390   0.00000  Uiso   1.00
C469   C     0.83957   0.88152   0.09428   0.00000  Uiso   1.00
C470   C     0.82610   0.78614   0.40622   0.00000  Uiso   1.00
C471   C     0.84941   0.88000   0.04729   0.00000  Uiso   1.00
C472   C     0.81575   0.78802   0.45312   0.00000  Uiso   1.00
C473   C     0.83164   0.83425   0.02368   0.00000  Uiso   1.00
C474   C     0.83366   0.83377   0.47666   0.00000  Uiso   1.00
C475   C     0.81198   0.78893   0.04723   0.00000  Uiso   1.00
C476   C     0.81863   0.73564   0.25573   0.00000  Uiso   1.00
C477   C     0.85368   0.87893   0.45303   0.00000  Uiso   1.00
C478   C     0.87837   0.92132   0.02348   0.00000  Uiso   1.00
C479   C     0.78646   0.74688   0.47695   0.00000  Uiso   1.00
C480   C     0.83234   0.93147   0.12091   0.00000  Uiso   1.00
C481   C     0.83300   0.73590   0.38010   0.00000  Uiso   1.00
C482   C     0.91988   0.67226   0.26590   0.00000  Uiso   1.00
C483   C     0.75098   0.99661   0.28424   0.00000  Uiso   1.00
C484   C     0.88023   0.92096   0.47645   0.00000  Uiso   1.00
C485   C     0.78504   0.74707   0.02392   0.00000  Uiso   1.00
C486   C     0.85753   0.98555   0.26283   0.00000  Uiso   1.00
C487   C     0.81129   0.68226   0.26712   0.00000  Uiso   1.00
C488   C     0.83402   0.83273   0.33623   0.00000  Uiso   1.00
C489   C     0.83269   0.83429   0.16384   0.00000  Uiso   1.00
C490   C     0.81928   0.78820   0.09349   0.00000  Uiso   1.00
Cl491  Cl    0.82074   0.73043   0.12370   0.00000  Uiso   1.00
Cl492  Cl    0.84643   0.93691   0.37607   0.00000  Uiso   1.00
Cl493  Cl    0.92186   0.96920   0.05092   0.00000  Uiso   1.00
Cl494  Cl    0.74231   0.69944   0.44959   0.00000  Uiso   1.00
Cl495  Cl    0.92490   0.96928   0.44829   0.00000  Uiso   1.00
Cl496  Cl    0.74057   0.69876   0.05225   0.00000  Uiso   1.00
Cl497  Cl    0.68012   0.77790   0.19782   0.00000  Uiso   1.00
Cl498  Cl    0.98673   0.88526   0.30489   0.00000  Uiso   1.00
H499   H     0.87183   0.94293   0.13819   0.00000  Uiso   1.00
H500   H     0.72647   0.69494   0.30042   0.00000  Uiso   1.00
H501   H     0.72658   0.98033   0.25595   0.00000  Uiso   1.00
H502   H     0.75273   0.96794   0.31103   0.00000  Uiso   1.00
H503   H     0.82104   0.96217   0.09868   0.00000  Uiso   1.00
H504   H     0.79567   0.92739   0.14654   0.00000  Uiso   1.00
H505   H     0.79347   0.72462   0.36290   0.00000  Uiso   1.00
H506   H     0.86976   0.73963   0.35463   0.00000  Uiso   1.00
H507   H     0.84387   0.70525   0.40256   0.00000  Uiso   1.00
H508   H     0.94716   0.97548   0.27651   0.00000  Uiso   1.00
H509   H     0.93823   0.68577   0.23261   0.00000  Uiso   1.00
H510   H     0.92376   0.70305   0.29226   0.00000  Uiso   1.00
N511   N     0.98344   0.81932   0.23783   0.00000  Uiso   1.00
N512   N     0.68322   0.84735   0.26217   0.00000  Uiso   1.00
O513   O     0.79642   0.91286   0.25298   0.00000  Uiso   1.00
O514   O     0.87025   0.75381   0.24701   0.00000  Uiso   1.00
O515   O     0.89280   0.90387   0.24518   0.00000  Uiso   1.00
O516   O     0.77387   0.76279   0.25481   0.00000  Uiso   1.00
O517   O     0.78514   0.83784   0.31997   0.00000  Uiso   1.00
O518   O     0.88153   0.82883   0.18002   0.00000  Uiso   1.00
O519   O     0.88152   0.82885   0.31217   0.00000  Uiso   1.00
O520   O     0.78515   0.83781   0.18782   0.00000  Uiso   1.00
Zn521  Zn    0.76898   0.83933   0.25521   0.00000  Uiso   1.00
Zn522  Zn    0.89769   0.82734   0.24479   0.00000  Uiso   1.00
C523   C     0.18189   0.26463   0.75359   0.00000  Uiso   1.00
C524   C     0.18053   0.21267   0.90660   0.00000  Uiso   1.00
C525   C     0.16394   0.16806   0.61629   0.00000  Uiso   1.00
C526   C     0.16932   0.16600   0.88390   0.00000  Uiso   1.00
C527   C     0.17290   0.21485   0.59428   0.00000  Uiso   1.00
C528   C     0.15943   0.11947   0.90622   0.00000  Uiso   1.00
C529   C     0.18274   0.21334   0.54729   0.00000  Uiso   1.00
C530   C     0.14909   0.12135   0.95312   0.00000  Uiso   1.00
C531   C     0.16497   0.16758   0.52368   0.00000  Uiso   1.00
C532   C     0.16699   0.16710   0.97666   0.00000  Uiso   1.00
C533   C     0.14532   0.12226   0.54723   0.00000  Uiso   1.00
C534   C     0.15197   0.06897   0.75573   0.00000  Uiso   1.00
C535   C     0.18702   0.21227   0.95303   0.00000  Uiso   1.00
C536   C     0.21170   0.25465   0.52348   0.00000  Uiso   1.00
C537   C     0.11979   0.08021   0.97695   0.00000  Uiso   1.00
C538   C     0.16568   0.26481   0.62091   0.00000  Uiso   1.00
C539   C     0.16633   0.06923   0.88010   0.00000  Uiso   1.00
C540   C     0.25321   0.00559   0.76590   0.00000  Uiso   1.00
C541   C     0.08432   0.32994   0.78424   0.00000  Uiso   1.00
C542   C     0.21357   0.25429   0.97645   0.00000  Uiso   1.00
C543   C     0.11838   0.08040   0.52392   0.00000  Uiso   1.00
C544   C     0.19086   0.31888   0.76283   0.00000  Uiso   1.00
C545   C     0.14462   0.01559   0.76712   0.00000  Uiso   1.00
C546   C     0.16735   0.16606   0.83623   0.00000  Uiso   1.00
C547   C     0.16602   0.16762   0.66384   0.00000  Uiso   1.00
C548   C     0.15261   0.12153   0.59349   0.00000  Uiso   1.00
Cl549  Cl    0.15408   0.06376   0.62370   0.00000  Uiso   1.00
Cl550  Cl    0.17976   0.27024   0.87607   0.00000  Uiso   1.00
Cl551  Cl    0.25519   0.30254   0.55092   0.00000  Uiso   1.00
Cl552  Cl    0.07564   0.03277   0.94959   0.00000  Uiso   1.00
Cl553  Cl    0.25824   0.30261   0.94829   0.00000  Uiso   1.00
Cl554  Cl    0.07390   0.03209   0.55225   0.00000  Uiso   1.00
Cl555  Cl    0.01345   0.11123   0.69782   0.00000  Uiso   1.00
Cl556  Cl    0.32006   0.21859   0.80489   0.00000  Uiso   1.00
H557   H     0.20517   0.27626   0.63819   0.00000  Uiso   1.00
H558   H     0.05980   0.02827   0.80042   0.00000  Uiso   1.00
H559   H     0.05992   0.31367   0.75595   0.00000  Uiso   1.00
H560   H     0.08607   0.30127   0.81103   0.00000  Uiso   1.00
H561   H     0.15438   0.29550   0.59868   0.00000  Uiso   1.00
H562   H     0.12900   0.26073   0.64654   0.00000  Uiso   1.00
H563   H     0.12680   0.05795   0.86290   0.00000  Uiso   1.00
H564   H     0.20310   0.07297   0.85463   0.00000  Uiso   1.00
H565   H     0.17721   0.03859   0.90256   0.00000  Uiso   1.00
H566   H     0.28050   0.30881   0.77651   0.00000  Uiso   1.00
H567   H     0.27157   0.01911   0.73261   0.00000  Uiso   1.00
H568   H     0.25709   0.03638   0.79226   0.00000  Uiso   1.00
N569   N     0.31678   0.15265   0.73783   0.00000  Uiso   1.00
N570   N     0.01656   0.18068   0.76217   0.00000  Uiso   1.00
O571   O     0.12975   0.24619   0.75298   0.00000  Uiso   1.00
O572   O     0.20358   0.08714   0.74701   0.00000  Uiso   1.00
O573   O     0.22613   0.23721   0.74518   0.00000  Uiso   1.00
O574   O     0.10720   0.09613   0.75481   0.00000  Uiso   1.00
O575   O     0.11847   0.17117   0.81997   0.00000  Uiso   1.00
O576   O     0.21486   0.16216   0.68002   0.00000  Uiso   1.00
O577   O     0.21485   0.16219   0.81217   0.00000  Uiso   1.00
O578   O     0.11848   0.17115   0.68782   0.00000  Uiso   1.00
Zn579  Zn    0.10231   0.17266   0.75521   0.00000  Uiso   1.00
Zn580  Zn    0.23102   0.16067   0.74479   0.00000  Uiso   1.00
C581   C     0.51522   0.26463   0.75359   0.00000  Uiso   1.00
C582   C     0.51386   0.21267   0.90660   0.00000  Uiso   1.00
C583   C     0.49727   0.16806   0.61629   0.00000  Uiso   1.00
C584   C     0.50265   0.16600   0.88390   0.00000  Uiso   1.00
C585   C     0.50624   0.21485   0.59428   0.00000  Uiso   1.00
C586   C     0.49276   0.11947   0.90622   0.00000  Uiso   1.00
C587   C     0.51607   0.21334   0.54729   0.00000  Uiso   1.00
C588   C     0.48242   0.12135   0.95312   0.00000  Uiso   1.00
C589   C     0.49830   0.16758   0.52368   0.00000  Uiso   1.00
C590   C     0.50032   0.16710   0.97666   0.00000  Uiso   1.00
C591   C     0.47865   0.12226   0.54723   0.00000  Uiso   1.00
C592   C     0.48530   0.06897   0.75573   0.00000  Uiso   1.00
C593   C     0.52035   0.21227   0.95303   0.00000  Uiso   1.00
C594   C     0.54504   0.25465   0.52348   0.00000  Uiso   1.00
C595   C     0.45313   0.08021   0.97695   0.00000  Uiso   1.00
C596   C     0.49901   0.26481   0.62091   0.00000  Uiso   1.00
C597   C     0.49966   0.06923   0.88010   0.00000  Uiso   1.00
C598   C     0.58654   0.00559   0.76590   0.00000  Uiso   1.00
C599   C     0.41765   0.32994   0.78424   0.00000  Uiso   1.00
C600   C     0.54690   0.25429   0.97645   0.00000  Uiso   1.00
C601   C     0.45171   0.08040   0.52392   0.00000  Uiso   1.00
C602   C     0.52420   0.31888   0.76283   0.00000  Uiso   1.00
C603   C     0.47795   0.01559   0.76712   0.00000  Uiso   1.00
C604   C     0.50069   0.16606   0.83623   0.00000  Uiso   1.00
C605   C     0.49936   0.16762   0.66384   0.00000  Uiso   1.00
C606   C     0.48595   0.12153   0.59349   0.00000  Uiso   1.00
Cl607  Cl    0.48741   0.06376   0.62370   0.00000  Uiso   1.00
Cl608  Cl    0.51309   0.27024   0.87607   0.00000  Uiso   1.00
Cl609  Cl    0.58852   0.30254   0.55092   0.00000  Uiso   1.00
Cl610  Cl    0.40897   0.03277   0.94959   0.00000  Uiso   1.00
Cl611  Cl    0.59157   0.30261   0.94829   0.00000  Uiso   1.00
Cl612  Cl    0.40723   0.03209   0.55225   0.00000  Uiso   1.00
Cl613  Cl    0.34679   0.11123   0.69782   0.00000  Uiso   1.00
Cl614  Cl    0.65339   0.21859   0.80489   0.00000  Uiso   1.00
H615   H     0.53850   0.27626   0.63819   0.00000  Uiso   1.00
H616   H     0.39313   0.02827   0.80042   0.00000  Uiso   1.00
H617   H     0.39325   0.31367   0.75595   0.00000  Uiso   1.00
H618   H     0.41940   0.30127   0.81103   0.00000  Uiso   1.00
H619   H     0.48771   0.29550   0.59868   0.00000  Uiso   1.00
H620   H     0.46233   0.26073   0.64654   0.00000  Uiso   1.00
H621   H     0.46014   0.05795   0.86290   0.00000  Uiso   1.00
H622   H     0.53643   0.07297   0.85463   0.00000  Uiso   1.00
H623   H     0.51054   0.03859   0.90256   0.00000  Uiso   1.00
H624   H     0.61383   0.30881   0.77651   0.00000  Uiso   1.00
H625   H     0.60490   0.01911   0.73261   0.00000  Uiso   1.00
H626   H     0.59043   0.03638   0.79226   0.00000  Uiso   1.00
N627   N     0.65011   0.15265   0.73783   0.00000  Uiso   1.00
N628   N     0.34989   0.18068   0.76217   0.00000  Uiso   1.00
O629   O     0.46308   0.24619   0.75298   0.00000  Uiso   1.00
O630   O     0.53692   0.08714   0.74701   0.00000  Uiso   1.00
O631   O     0.55946   0.23721   0.74518   0.00000  Uiso   1.00
O632   O     0.44054   0.09613   0.75481   0.00000  Uiso   1.00
O633   O     0.45181   0.17117   0.81997   0.00000  Uiso   1.00
O634   O     0.54819   0.16216   0.68002   0.00000  Uiso   1.00
O635   O     0.54819   0.16219   0.81217   0.00000  Uiso   1.00
O636   O     0.45181   0.17115   0.68782   0.00000  Uiso   1.00
Zn637  Zn    0.43565   0.17266   0.75521   0.00000  Uiso   1.00
Zn638  Zn    0.56435   0.16067   0.74479   0.00000  Uiso   1.00
C639   C     0.84856   0.26463   0.75359   0.00000  Uiso   1.00
C640   C     0.84719   0.21267   0.90660   0.00000  Uiso   1.00
C641   C     0.83061   0.16806   0.61629   0.00000  Uiso   1.00
C642   C     0.83599   0.16600   0.88390   0.00000  Uiso   1.00
C643   C     0.83957   0.21485   0.59428   0.00000  Uiso   1.00
C644   C     0.82610   0.11947   0.90622   0.00000  Uiso   1.00
C645   C     0.84941   0.21334   0.54729   0.00000  Uiso   1.00
C646   C     0.81575   0.12135   0.95312   0.00000  Uiso   1.00
C647   C     0.83164   0.16758   0.52368   0.00000  Uiso   1.00
C648   C     0.83366   0.16710   0.97666   0.00000  Uiso   1.00
C649   C     0.81198   0.12226   0.54723   0.00000  Uiso   1.00
C650   C     0.81863   0.06897   0.75573   0.00000  Uiso   1.00
C651   C     0.85368   0.21227   0.95303   0.00000  Uiso   1.00
C652   C     0.87837   0.25465   0.52348   0.00000  Uiso   1.00
C653   C     0.78646   0.08021   0.97695   0.00000  Uiso   1.00
C654   C     0.83234   0.26481   0.62091   0.00000  Uiso   1.00
C655   C     0.83300   0.06923   0.88010   0.00000  Uiso   1.00
C656   C     0.91988   0.00559   0.76590   0.00000  Uiso   1.00
C657   C     0.75098   0.32994   0.78424   0.00000  Uiso   1.00
C658   C     0.88023   0.25429   0.97645   0.00000  Uiso   1.00
C659   C     0.78504   0.08040   0.52392   0.00000  Uiso   1.00
C660   C     0.85753   0.31888   0.76283   0.00000  Uiso   1.00
C661   C     0.81129   0.01559   0.76712   0.00000  Uiso   1.00
C662   C     0.83402   0.16606   0.83623   0.00000  Uiso   1.00
C663   C     0.83269   0.16762   0.66384   0.00000  Uiso   1.00
C664   C     0.81928   0.12153   0.59349   0.00000  Uiso   1.00
Cl665  Cl    0.82074   0.06376   0.62370   0.00000  Uiso   1.00
Cl666  Cl    0.84643   0.27024   0.87607   0.00000  Uiso   1.00
Cl667  Cl    0.92186   0.30254   0.55092   0.00000  Uiso   1.00
Cl668  Cl    0.74231   0.03277   0.94959   0.00000  Uiso   1.00
Cl669  Cl    0.92490   0.30261   0.94829   0.00000  Uiso   1.00
Cl670  Cl    0.74057   0.03209   0.55225   0.00000  Uiso   1.00
Cl671  Cl    0.68012   0.11123   0.69782   0.00000  Uiso   1.00
Cl672  Cl    0.98673   0.21859   0.80489   0.00000  Uiso   1.00
H673   H     0.87183   0.27626   0.63819   0.00000  Uiso   1.00
H674   H     0.72647   0.02827   0.80042   0.00000  Uiso   1.00
H675   H     0.72658   0.31367   0.75595   0.00000  Uiso   1.00
H676   H     0.75273   0.30127   0.81103   0.00000  Uiso   1.00
H677   H     0.82104   0.29550   0.59868   0.00000  Uiso   1.00
H678   H     0.79567   0.26073   0.64654   0.00000  Uiso   1.00
H679   H     0.79347   0.05795   0.86290   0.00000  Uiso   1.00
H680   H     0.86976   0.07297   0.85463   0.00000  Uiso   1.00
H681   H     0.84387   0.03859   0.90256   0.00000  Uiso   1.00
H682   H     0.94716   0.30881   0.77651   0.00000  Uiso   1.00
H683   H     0.93823   0.01911   0.73261   0.00000  Uiso   1.00
H684   H     0.92376   0.03638   0.79226   0.00000  Uiso   1.00
N685   N     0.98344   0.15265   0.73783   0.00000  Uiso   1.00
N686   N     0.68322   0.18068   0.76217   0.00000  Uiso   1.00
O687   O     0.79642   0.24619   0.75298   0.00000  Uiso   1.00
O688   O     0.87025   0.08714   0.74701   0.00000  Uiso   1.00
O689   O     0.89280   0.23721   0.74518   0.00000  Uiso   1.00
O690   O     0.77387   0.09613   0.75481   0.00000  Uiso   1.00
O691   O     0.78514   0.17117   0.81997   0.00000  Uiso   1.00
O692   O     0.88153   0.16216   0.68002   0.00000  Uiso   1.00
O693   O     0.88152   0.16219   0.81217   0.00000  Uiso   1.00
O694   O     0.78515   0.17115   0.68782   0.00000  Uiso   1.00
Zn695  Zn    0.76898   0.17266   0.75521   0.00000  Uiso   1.00
Zn696  Zn    0.89769   0.16067   0.74479   0.00000  Uiso   1.00
C697   C     0.18189   0.59796   0.75359   0.00000  Uiso   1.00
C698   C     0.18053   0.54600   0.90660   0.00000  Uiso   1.00
C699   C     0.16394   0.50139   0.61629   0.00000  Uiso   1.00
C700   C     0.16932   0.49933   0.88390   0.00000  Uiso   1.00
C701   C     0.17290   0.54818   0.59428   0.00000  Uiso   1.00
C702   C     0.15943   0.45281   0.90622   0.00000  Uiso   1.00
C703   C     0.18274   0.54667   0.54729   0.00000  Uiso   1.00
C704   C     0.14909   0.45468   0.95312   0.00000  Uiso   1.00
C705   C     0.16497   0.50091   0.52368   0.00000  Uiso   1.00
C706   C     0.16699   0.50044   0.97666   0.00000  Uiso   1.00
C707   C     0.14532   0.45559   0.54723   0.00000  Uiso   1.00
C708   C     0.15197   0.40230   0.75573   0.00000  Uiso   1.00
C709   C     0.18702   0.54560   0.95303   0.00000  Uiso   1.00
C710   C     0.21170   0.58799   0.52348   0.00000  Uiso   1.00
C711   C     0.11979   0.41355   0.97695   0.00000  Uiso   1.00
C712   C     0.16568   0.59814   0.62091   0.00000  Uiso   1.00
C713   C     0.16633   0.40257   0.88010   0.00000  Uiso   1.00
C714   C     0.25321   0.33892   0.76590   0.00000  Uiso   1.00
C715   C     0.08432   0.66327   0.78424   0.00000  Uiso   1.00
C716   C     0.21357   0.58762   0.97645   0.00000  Uiso   1.00
C717   C     0.11838   0.41373   0.52392   0.00000  Uiso   1.00
C718   C     0.19086   0.65221   0.76283   0.00000  Uiso   1.00
C719   C     0.14462   0.34893   0.76712   0.00000  Uiso   1.00
C720   C     0.16735   0.49939   0.83623   0.00000  Uiso   1.00
C721   C     0.16602   0.50095   0.66384   0.00000  Uiso   1.00
C722   C     0.15261   0.45486   0.59349   0.00000  Uiso   1.00
Cl723  Cl    0.15408   0.39710   0.62370   0.00000  Uiso   1.00
Cl724  Cl    0.17976   0.60357   0.87607   0.00000  Uiso   1.00
Cl725  Cl    0.25519   0.63587   0.55092   0.00000  Uiso   1.00
Cl726  Cl    0.07564   0.36610   0.94959   0.00000  Uiso   1.00
Cl727  Cl    0.25824   0.63594   0.94829   0.00000  Uiso   1.00
Cl728  Cl    0.07390   0.36543   0.55225   0.00000  Uiso   1.00
Cl729  Cl    0.01345   0.44457   0.69782   0.00000  Uiso   1.00
Cl730  Cl    0.32006   0.55192   0.80489   0.00000  Uiso   1.00
H731   H     0.20517   0.60960   0.63819   0.00000  Uiso   1.00
H732   H     0.05980   0.36161   0.80042   0.00000  Uiso   1.00
H733   H     0.05992   0.64700   0.75595   0.00000  Uiso   1.00
H734   H     0.08607   0.63460   0.81103   0.00000  Uiso   1.00
H735   H     0.15438   0.62884   0.59868   0.00000  Uiso   1.00
H736   H     0.12900   0.59406   0.64654   0.00000  Uiso   1.00
H737   H     0.12680   0.39129   0.86290   0.00000  Uiso   1.00
H738   H     0.20310   0.40630   0.85463   0.00000  Uiso   1.00
H739   H     0.17721   0.37192   0.90256   0.00000  Uiso   1.00
H740   H     0.28050   0.64215   0.77651   0.00000  Uiso   1.00
H741   H     0.27157   0.35244   0.73261   0.00000  Uiso   1.00
H742   H     0.25709   0.36972   0.79226   0.00000  Uiso   1.00
N743   N     0.31678   0.48598   0.73783   0.00000  Uiso   1.00
N744   N     0.01656   0.51402   0.76217   0.00000  Uiso   1.00
O745   O     0.12975   0.57952   0.75298   0.00000  Uiso   1.00
O746   O     0.20358   0.42048   0.74701   0.00000  Uiso   1.00
O747   O     0.22613   0.57054   0.74518   0.00000  Uiso   1.00
O748   O     0.10720   0.42946   0.75481   0.00000  Uiso   1.00
O749   O     0.11847   0.50450   0.81997   0.00000  Uiso   1.00
O750   O     0.21486   0.49550   0.68002   0.00000  Uiso   1.00
O751   O     0.21485   0.49552   0.81217   0.00000  Uiso   1.00
O752   O     0.11848   0.50448   0.68782   0.00000  Uiso   1.00
Zn753  Zn    0.10231   0.50600   0.75521   0.00000  Uiso   1.00
Zn754  Zn    0.23102   0.49400   0.74479   0.00000  Uiso   1.00
C755   C     0.51522   0.59796   0.75359   0.00000  Uiso   1.00
C756   C     0.51386   0.54600   0.90660   0.00000  Uiso   1.00
C757   C     0.49727   0.50139   0.61629   0.00000  Uiso   1.00
C758   C     0.50265   0.49933   0.88390   0.00000  Uiso   1.00
C759   C     0.50624   0.54818   0.59428   0.00000  Uiso   1.00
C760   C     0.49276   0.45281   0.90622   0.00000  Uiso   1.00
C761   C     0.51607   0.54667   0.54729   0.00000  Uiso   1.00
C762   C     0.48242   0.45468   0.95312   0.00000  Uiso   1.00
C763   C     0.49830   0.50091   0.52368   0.00000  Uiso   1.00
C764   C     0.50032   0.50044   0.97666   0.00000  Uiso   1.00
C765   C     0.47865   0.45559   0.54723   0.00000  Uiso   1.00
C766   C     0.48530   0.40230   0.75573   0.00000  Uiso   1.00
C767   C     0.52035   0.54560   0.95303   0.00000  Uiso   1.00
C768   C     0.54504   0.58799   0.52348   0.00000  Uiso   1.00
C769   C     0.45313   0.41355   0.97695   0.00000  Uiso   1.00
C770   C     0.49901   0.59814   0.62091   0.00000  Uiso   1.00
C771   C     0.49966   0.40257   0.88010   0.00000  Uiso   1.00
C772   C     0.58654   0.33892   0.76590   0.00000  Uiso   1.00
C773   C     0.41765   0.66327   0.78424   0.00000  Uiso   1.00
C774   C     0.54690   0.58762   0.97645   0.00000  Uiso   1.00
C775   C     0.45171   0.41373   0.52392   0.00000  Uiso   1.00
C776   C     0.52420   0.65221   0.76283   0.00000  Uiso   1.00
C777   C     0.47795   0.34893   0.76712   0.00000  Uiso   1.00
C778   C     0.50069   0.49939   0.83623   0.00000  Uiso   1.00
C779   C     0.49936   0.50095   0.66384   0.00000  Uiso   1.00
C780   C     0.48595   0.45486   0.59349   0.00000  Uiso   1.00
Cl781  Cl    0.48741   0.39710   0.62370   0.00000  Uiso   1.00
Cl782  Cl    0.51309   0.60357   0.87607   0.00000  Uiso   1.00
Cl783  Cl    0.58852   0.63587   0.55092   0.00000  Uiso   1.00
Cl784  Cl    0.40897   0.36610   0.94959   0.00000  Uiso   1.00
Cl785  Cl    0.59157   0.63594   0.94829   0.00000  Uiso   1.00
Cl786  Cl    0.40723   0.36543   0.55225   0.00000  Uiso   1.00
Cl787  Cl    0.34679   0.44457   0.69782   0.00000  Uiso   1.00
Cl788  Cl    0.65339   0.55192   0.80489   0.00000  Uiso   1.00
H789   H     0.53850   0.60960   0.63819   0.00000  Uiso   1.00
H790   H     0.39313   0.36161   0.80042   0.00000  Uiso   1.00
H791   H     0.39325   0.64700   0.75595   0.00000  Uiso   1.00
H792   H     0.41940   0.63460   0.81103   0.00000  Uiso   1.00
H793   H     0.48771   0.62884   0.59868   0.00000  Uiso   1.00
H794   H     0.46233   0.59406   0.64654   0.00000  Uiso   1.00
H795   H     0.46014   0.39129   0.86290   0.00000  Uiso   1.00
H796   H     0.53643   0.40630   0.85463   0.00000  Uiso   1.00
H797   H     0.51054   0.37192   0.90256   0.00000  Uiso   1.00
H798   H     0.61383   0.64215   0.77651   0.00000  Uiso   1.00
H799   H     0.60490   0.35244   0.73261   0.00000  Uiso   1.00
H800   H     0.59043   0.36972   0.79226   0.00000  Uiso   1.00
N801   N     0.65011   0.48598   0.73783   0.00000  Uiso   1.00
N802   N     0.34989   0.51402   0.76217   0.00000  Uiso   1.00
O803   O     0.46308   0.57952   0.75298   0.00000  Uiso   1.00
O804   O     0.53692   0.42048   0.74701   0.00000  Uiso   1.00
O805   O     0.55946   0.57054   0.74518   0.00000  Uiso   1.00
O806   O     0.44054   0.42946   0.75481   0.00000  Uiso   1.00
O807   O     0.45181   0.50450   0.81997   0.00000  Uiso   1.00
O808   O     0.54819   0.49550   0.68002   0.00000  Uiso   1.00
O809   O     0.54819   0.49552   0.81217   0.00000  Uiso   1.00
O810   O     0.45181   0.50448   0.68782   0.00000  Uiso   1.00
Zn811  Zn    0.43565   0.50600   0.75521   0.00000  Uiso   1.00
Zn812  Zn    0.56435   0.49400   0.74479   0.00000  Uiso   1.00
C813   C     0.84856   0.59796   0.75359   0.00000  Uiso   1.00
C814   C     0.84719   0.54600   0.90660   0.00000  Uiso   1.00
C815   C     0.83061   0.50139   0.61629   0.00000  Uiso   1.00
C816   C     0.83599   0.49933   0.88390   0.00000  Uiso   1.00
C817   C     0.83957   0.54818   0.59428   0.00000  Uiso   1.00
C818   C     0.82610   0.45281   0.90622   0.00000  Uiso   1.00
C819   C     0.84941   0.54667   0.54729   0.00000  Uiso   1.00
C820   C     0.81575   0.45468   0.95312   0.00000  Uiso   1.00
C821   C     0.83164   0.50091   0.52368   0.00000  Uiso   1.00
C822   C     0.83366   0.50044   0.97666   0.00000  Uiso   1.00
C823   C     0.81198   0.45559   0.54723   0.00000  Uiso   1.00
C824   C     0.81863   0.40230   0.75573   0.00000  Uiso   1.00
C825   C     0.85368   0.54560   0.95303   0.00000  Uiso   1.00
C826   C     0.87837   0.58799   0.52348   0.00000  Uiso   1.00
C827   C     0.78646   0.41355   0.97695   0.00000  Uiso   1.00
C828   C     0.83234   0.59814   0.62091   0.00000  Uiso   1.00
C829   C     0.83300   0.40257   0.88010   0.00000  Uiso   1.00
C830   C     0.91988   0.33892   0.76590   0.00000  Uiso   1.00
C831   C     0.75098   0.66327   0.78424   0.00000  Uiso   1.00
C832   C     0.88023   0.58762   0.97645   0.00000  Uiso   1.00
C833   C     0.78504   0.41373   0.52392   0.00000  Uiso   1.00
C834   C     0.85753   0.65221   0.76283   0.00000  Uiso   1.00
C835   C     0.81129   0.34893   0.76712   0.00000  Uiso   1.00
C836   C     0.83402   0.49939   0.83623   0.00000  Uiso   1.00
C837   C     0.83269   0.50095   0.66384   0.00000  Uiso   1.00
C838   C     0.81928   0.45486   0.59349   0.00000  Uiso   1.00
Cl839  Cl    0.82074   0.39710   0.62370   0.00000  Uiso   1.00
Cl840  Cl    0.84643   0.60357   0.87607   0.00000  Uiso   1.00
Cl841  Cl    0.92186   0.63587   0.55092   0.00000  Uiso   1.00
Cl842  Cl    0.74231   0.36610   0.94959   0.00000  Uiso   1.00
Cl843  Cl    0.92490   0.63594   0.94829   0.00000  Uiso   1.00
Cl844  Cl    0.74057   0.36543   0.55225   0.00000  Uiso   1.00
Cl845  Cl    0.68012   0.44457   0.69782   0.00000  Uiso   1.00
Cl846  Cl    0.98673   0.55192   0.80489   0.00000  Uiso   1.00
H847   H     0.87183   0.60960   0.63819   0.00000  Uiso   1.00
H848   H     0.72647   0.36161   0.80042   0.00000  Uiso   1.00
H849   H     0.72658   0.64700   0.75595   0.00000  Uiso   1.00
H850   H     0.75273   0.63460   0.81103   0.00000  Uiso   1.00
H851   H     0.82104   0.62884   0.59868   0.00000  Uiso   1.00
H852   H     0.79567   0.59406   0.64654   0.00000  Uiso   1.00
H853   H     0.79347   0.39129   0.86290   0.00000  Uiso   1.00
H854   H     0.86976   0.40630   0.85463   0.00000  Uiso   1.00
H855   H     0.84387   0.37192   0.90256   0.00000  Uiso   1.00
H856   H     0.94716   0.64215   0.77651   0.00000  Uiso   1.00
H857   H     0.93823   0.35244   0.73261   0.00000  Uiso   1.00
H858   H     0.92376   0.36972   0.79226   0.00000  Uiso   1.00
N859   N     0.98344   0.48598   0.73783   0.00000  Uiso   1.00
N860   N     0.68322   0.51402   0.76217   0.00000  Uiso   1.00
O861   O     0.79642   0.57952   0.75298   0.00000  Uiso   1.00
O862   O     0.87025   0.42048   0.74701   0.00000  Uiso   1.00
O863   O     0.89280   0.57054   0.74518   0.00000  Uiso   1.00
O864   O     0.77387   0.42946   0.75481   0.00000  Uiso   1.00
O865   O     0.78514   0.50450   0.81997   0.00000  Uiso   1.00
O866   O     0.88153   0.49550   0.68002   0.00000  Uiso   1.00
O867   O     0.88152   0.49552   0.81217   0.00000  Uiso   1.00
O868   O     0.78515   0.50448   0.68782   0.00000  Uiso   1.00
Zn869  Zn    0.76898   0.50600   0.75521   0.00000  Uiso   1.00
Zn870  Zn    0.89769   0.49400   0.74479   0.00000  Uiso   1.00
C871   C     0.18189   0.93129   0.75359   0.00000  Uiso   1.00
C872   C     0.18053   0.87933   0.90660   0.00000  Uiso   1.00
C873   C     0.16394   0.83473   0.61629   0.00000  Uiso   1.00
C874   C     0.16932   0.83266   0.88390   0.00000  Uiso   1.00
C875   C     0.17290   0.88152   0.59428   0.00000  Uiso   1.00
C876   C     0.15943   0.78614   0.90622   0.00000  Uiso   1.00
C877   C     0.18274   0.88000   0.54729   0.00000  Uiso   1.00
C878   C     0.14909   0.78802   0.95312   0.00000  Uiso   1.00
C879   C     0.16497   0.83425   0.52368   0.00000  Uiso   1.00
C880   C     0.16699   0.83377   0.97666   0.00000  Uiso   1.00
C881   C     0.14532   0.78893   0.54723   0.00000  Uiso   1.00
C882   C     0.15197   0.73564   0.75573   0.00000  Uiso   1.00
C883   C     0.18702   0.87893   0.95303   0.00000  Uiso   1.00
C884   C     0.21170   0.92132   0.52348   0.00000  Uiso   1.00
C885   C     0.11979   0.74688   0.97695   0.00000  Uiso   1.00
C886   C     0.16568   0.93147   0.62091   0.00000  Uiso   1.00
C887   C     0.16633   0.73590   0.88010   0.00000  Uiso   1.00
C888   C     0.25321   0.67226   0.76590   0.00000  Uiso   1.00
C889   C     0.08432   0.99661   0.78424   0.00000  Uiso   1.00
C890   C     0.21357   0.92096   0.97645   0.00000  Uiso   1.00
C891   C     0.11838   0.74707   0.52392   0.00000  Uiso   1.00
C892   C     0.19086   0.98555   0.76283   0.00000  Uiso   1.00
C893   C     0.14462   0.68226   0.76712   0.00000  Uiso   1.00
C894   C     0.16735   0.83273   0.83623   0.00000  Uiso   1.00
C895   C     0.16602   0.83429   0.66384   0.00000  Uiso   1.00
C896   C     0.15261   0.78820   0.59349   0.00000  Uiso   1.00
Cl897  Cl    0.15408   0.73043   0.62370   0.00000  Uiso   1.00
Cl898  Cl    0.17976   0.93691   0.87607   0.00000  Uiso   1.00
Cl899  Cl    0.25519   0.96920   0.55092   0.00000  Uiso   1.00
Cl900  Cl    0.07564   0.69944   0.94959   0.00000  Uiso   1.00
Cl901  Cl    0.25824   0.96928   0.94829   0.00000  Uiso   1.00
Cl902  Cl    0.07390   0.69876   0.55225   0.00000  Uiso   1.00
Cl903  Cl    0.01345   0.77790   0.69782   0.00000  Uiso   1.00
Cl904  Cl    0.32006   0.88526   0.80489   0.00000  Uiso   1.00
H905   H     0.20517   0.94293   0.63819   0.00000  Uiso   1.00
H906   H     0.05980   0.69494   0.80042   0.00000  Uiso   1.00
H907   H     0.05992   0.98033   0.75595   0.00000  Uiso   1.00
H908   H     0.08607   0.96794   0.81103   0.00000  Uiso   1.00
H909   H     0.15438   0.96217   0.59868   0.00000  Uiso   1.00
H910   H     0.12900   0.92739   0.64654   0.00000  Uiso   1.00
H911   H     0.12680   0.72462   0.86290   0.00000  Uiso   1.00
H912   H     0.20310   0.73963   0.85463   0.00000  Uiso   1.00
H913   H     0.17721   0.70525   0.90256   0.00000  Uiso   1.00
H914   H     0.28050   0.97548   0.77651   0.00000  Uiso   1.00
H915   H     0.27157   0.68577   0.73261   0.00000  Uiso   1.00
H916   H     0.25709   0.70305   0.79226   0.00000  Uiso   1.00
N917   N     0.31678   0.81932   0.73783   0.00000  Uiso   1.00
N918   N     0.01656   0.84735   0.76217   0.00000  Uiso   1.00
O919   O     0.12975   0.91286   0.75298   0.00000  Uiso   1.00
O920   O     0.20358   0.75381   0.74701   0.00000  Uiso   1.00
O921   O     0.22613   0.90387   0.74518   0.00000  Uiso   1.00
O922   O     0.10720   0.76279   0.75481   0.00000  Uiso   1.00
O923   O     0.11847   0.83784   0.81997   0.00000  Uiso   1.00
O924   O     0.21486   0.82883   0.68002   0.00000  Uiso   1.00
O925   O     0.21485   0.82885   0.81217   0.00000  Uiso   1.00
O926   O     0.11848   0.83781   0.68782   0.00000  Uiso   1.00
Zn927  Zn    0.10231   0.83933   0.75521   0.00000  Uiso   1.00
Zn928  Zn    0.23102   0.82734   0.74479   0.00000  Uiso   1.00
C929   C     0.51522   0.93129   0.75359   0.00000  Uiso   1.00
C930   C     0.51386   0.87933   0.90660   0.00000  Uiso   1.00
C931   C     0.49727   0.83473   0.61629   0.00000  Uiso   1.00
C932   C     0.50265   0.83266   0.88390   0.00000  Uiso   1.00
C933   C     0.50624   0.88152   0.59428   0.00000  Uiso   1.00
C934   C     0.49276   0.78614   0.90622   0.00000  Uiso   1.00
C935   C     0.51607   0.88000   0.54729   0.00000  Uiso   1.00
C936   C     0.48242   0.78802   0.95312   0.00000  Uiso   1.00
C937   C     0.49830   0.83425   0.52368   0.00000  Uiso   1.00
C938   C     0.50032   0.83377   0.97666   0.00000  Uiso   1.00
C939   C     0.47865   0.78893   0.54723   0.00000  Uiso   1.00
C940   C     0.48530   0.73564   0.75573   0.00000  Uiso   1.00
C941   C     0.52035   0.87893   0.95303   0.00000  Uiso   1.00
C942   C     0.54504   0.92132   0.52348   0.00000  Uiso   1.00
C943   C     0.45313   0.74688   0.97695   0.00000  Uiso   1.00
C944   C     0.49901   0.93147   0.62091   0.00000  Uiso   1.00
C945   C     0.49966   0.73590   0.88010   0.00000  Uiso   1.00
C946   C     0.58654   0.67226   0.76590   0.00000  Uiso   1.00
C947   C     0.41765   0.99661   0.78424   0.00000  Uiso   1.00
C948   C     0.54690   0.92096   0.97645   0.00000  Uiso   1.00
C949   C     0.45171   0.74707   0.52392   0.00000  Uiso   1.00
C950   C     0.52420   0.98555   0.76283   0.00000  Uiso   1.00
C951   C     0.47795   0.68226   0.76712   0.00000  Uiso   1.00
C952   C     0.50069   0.83273   0.83623   0.00000  Uiso   1.00
C953   C     0.49936   0.83429   0.66384   0.00000  Uiso   1.00
C954   C     0.48595   0.78820   0.59349   0.00000  Uiso   1.00
Cl955  Cl    0.48741   0.73043   0.62370   0.00000  Uiso   1.00
Cl956  Cl    0.51309   0.93691   0.87607   0.00000  Uiso   1.00
Cl957  Cl    0.58852   0.96920   0.55092   0.00000  Uiso   1.00
Cl958  Cl    0.40897   0.69944   0.94959   0.00000  Uiso   1.00
Cl959  Cl    0.59157   0.96928   0.94829   0.00000  Uiso   1.00
Cl960  Cl    0.40723   0.69876   0.55225   0.00000  Uiso   1.00
Cl961  Cl    0.34679   0.77790   0.69782   0.00000  Uiso   1.00
Cl962  Cl    0.65339   0.88526   0.80489   0.00000  Uiso   1.00
H963   H     0.53850   0.94293   0.63819   0.00000  Uiso   1.00
H964   H     0.39313   0.69494   0.80042   0.00000  Uiso   1.00
H965   H     0.39325   0.98033   0.75595   0.00000  Uiso   1.00
H966   H     0.41940   0.96794   0.81103   0.00000  Uiso   1.00
H967   H     0.48771   0.96217   0.59868   0.00000  Uiso   1.00
H968   H     0.46233   0.92739   0.64654   0.00000  Uiso   1.00
H969   H     0.46014   0.72462   0.86290   0.00000  Uiso   1.00
H970   H     0.53643   0.73963   0.85463   0.00000  Uiso   1.00
H971   H     0.51054   0.70525   0.90256   0.00000  Uiso   1.00
H972   H     0.61383   0.97548   0.77651   0.00000  Uiso   1.00
H973   H     0.60490   0.68577   0.73261   0.00000  Uiso   1.00
H974   H     0.59043   0.70305   0.79226   0.00000  Uiso   1.00
N975   N     0.65011   0.81932   0.73783   0.00000  Uiso   1.00
N976   N     0.34989   0.84735   0.76217   0.00000  Uiso   1.00
O977   O     0.46308   0.91286   0.75298   0.00000  Uiso   1.00
O978   O     0.53692   0.75381   0.74701   0.00000  Uiso   1.00
O979   O     0.55946   0.90387   0.74518   0.00000  Uiso   1.00
O980   O     0.44054   0.76279   0.75481   0.00000  Uiso   1.00
O981   O     0.45181   0.83784   0.81997   0.00000  Uiso   1.00
O982   O     0.54819   0.82883   0.68002   0.00000  Uiso   1.00
O983   O     0.54819   0.82885   0.81217   0.00000  Uiso   1.00
O984   O     0.45181   0.83781   0.68782   0.00000  Uiso   1.00
Zn985  Zn    0.43565   0.83933   0.75521   0.00000  Uiso   1.00
Zn986  Zn    0.56435   0.82734   0.74479   0.00000  Uiso   1.00
C987   C     0.84856   0.93129   0.75359   0.00000  Uiso   1.00
C988   C     0.84719   0.87933   0.90660   0.00000  Uiso   1.00
C989   C     0.83061   0.83473   0.61629   0.00000  Uiso   1.00
C990   C     0.83599   0.83266   0.88390   0.00000  Uiso   1.00
C991   C     0.83957   0.88152   0.59428   0.00000  Uiso   1.00
C992   C     0.82610   0.78614   0.90622   0.00000  Uiso   1.00
C993   C     0.84941   0.88000   0.54729   0.00000  Uiso   1.00
C994   C     0.81575   0.78802   0.95312   0.00000  Uiso   1.00
C995   C     0.83164   0.83425   0.52368   0.00000  Uiso   1.00
C996   C     0.83366   0.83377   0.97666   0.00000  Uiso   1.00
C997   C     0.81198   0.78893   0.54723   0.00000  Uiso   1.00
C998   C     0.81863   0.73564   0.75573   0.00000  Uiso   1.00
C999   C     0.85368   0.87893   0.95303   0.00000  Uiso   1.00
C1000  C     0.87837   0.92132   0.52348   0.00000  Uiso   1.00
C1001  C     0.78646   0.74688   0.97695   0.00000  Uiso   1.00
C1002  C     0.83234   0.93147   0.62091   0.00000  Uiso   1.00
C1003  C     0.83300   0.73590   0.88010   0.00000  Uiso   1.00
C1004  C     0.91988   0.67226   0.76590   0.00000  Uiso   1.00
C1005  C     0.75098   0.99661   0.78424   0.00000  Uiso   1.00
C1006  C     0.88023   0.92096   0.97645   0.00000  Uiso   1.00
C1007  C     0.78504   0.74707   0.52392   0.00000  Uiso   1.00
C1008  C     0.85753   0.98555   0.76283   0.00000  Uiso   1.00
C1009  C     0.81129   0.68226   0.76712   0.00000  Uiso   1.00
C1010  C     0.83402   0.83273   0.83623   0.00000  Uiso   1.00
C1011  C     0.83269   0.83429   0.66384   0.00000  Uiso   1.00
C1012  C     0.81928   0.78820   0.59349   0.00000  Uiso   1.00
Cl1013 Cl    0.82074   0.73043   0.62370   0.00000  Uiso   1.00
Cl1014 Cl    0.84643   0.93691   0.87607   0.00000  Uiso   1.00
Cl1015 Cl    0.92186   0.96920   0.55092   0.00000  Uiso   1.00
Cl1016 Cl    0.74231   0.69944   0.94959   0.00000  Uiso   1.00
Cl1017 Cl    0.92490   0.96928   0.94829   0.00000  Uiso   1.00
Cl1018 Cl    0.74057   0.69876   0.55225   0.00000  Uiso   1.00
Cl1019 Cl    0.68012   0.77790   0.69782   0.00000  Uiso   1.00
Cl1020 Cl    0.98673   0.88526   0.80489   0.00000  Uiso   1.00
H1021  H     0.87183   0.94293   0.63819   0.00000  Uiso   1.00
H1022  H     0.72647   0.69494   0.80042   0.00000  Uiso   1.00
H1023  H     0.72658   0.98033   0.75595   0.00000  Uiso   1.00
H1024  H     0.75273   0.96794   0.81103   0.00000  Uiso   1.00
H1025  H     0.82104   0.96217   0.59868   0.00000  Uiso   1.00
H1026  H     0.79567   0.92739   0.64654   0.00000  Uiso   1.00
H1027  H     0.79347   0.72462   0.86290   0.00000  Uiso   1.00
H1028  H     0.86976   0.73963   0.85463   0.00000  Uiso   1.00
H1029  H     0.84387   0.70525   0.90256   0.00000  Uiso   1.00
H1030  H     0.94716   0.97548   0.77651   0.00000  Uiso   1.00
H1031  H     0.93823   0.68577   0.73261   0.00000  Uiso   1.00
H1032  H     0.92376   0.70305   0.79226   0.00000  Uiso   1.00
N1033  N     0.98344   0.81932   0.73783   0.00000  Uiso   1.00
N1034  N     0.68322   0.84735   0.76217   0.00000  Uiso   1.00
O1035  O     0.79642   0.91286   0.75298   0.00000  Uiso   1.00
O1036  O     0.87025   0.75381   0.74701   0.00000  Uiso   1.00
O1037  O     0.89280   0.90387   0.74518   0.00000  Uiso   1.00
O1038  O     0.77387   0.76279   0.75481   0.00000  Uiso   1.00
O1039  O     0.78514   0.83784   0.81997   0.00000  Uiso   1.00
O1040  O     0.88153   0.82883   0.68002   0.00000  Uiso   1.00
O1041  O     0.88152   0.82885   0.81217   0.00000  Uiso   1.00
O1042  O     0.78515   0.83781   0.68782   0.00000  Uiso   1.00
Zn1043 Zn    0.76898   0.83933   0.75521   0.00000  Uiso   1.00
Zn1044 Zn    0.89769   0.82734   0.74479   0.00000  Uiso   1.00
loop_
_geom_bond_atom_site_label_1
_geom_bond_atom_site_label_2
_geom_bond_distance
_geom_bond_site_symmetry_2
_ccdc_geom_bond_type
C1     C22     1.434   .     S
C1     O51     1.297   .     A
C1     O49     1.285   .     A
C2     C4      1.392   .     A
C2     Cl28    1.773   .     S
C2     C13     1.402   .     A
C3     C26     1.390   .     A
C3     C25     1.421   .     S
C3     C5      1.395   .     A
C4     C6      1.395   .     A
C4     C24     1.423   .     S
C5     C7      1.402   .     A
C5     C16     1.514   .     S
C6     C17     1.511   .     S
C6     C8      1.401   .     A
C7     C9      1.420   .     A
C7     C14     1.415   .     A
C8     C15     1.415   .     A
C8     C10     1.419   .     A
C9     C11     1.423   .     A
C9     C532    1.397   1_554 S
C10    C13     1.423   .     A
C10    C531    1.397   .     S
C11    C26     1.400   .     A
C11    C21     1.414   .     A
C12    C23     1.434   .     S
C12    O52     1.299   .     A
C12    O50     1.283   .     A
C13    C20     1.415   .     A
C14    Cl29    1.778   .     S
C14    C542    1.398   1_554 S
C15    Cl30    1.778   .     S
C15    C543    1.397   .     S
C16    H40     1.110   .     S
C16    H35     1.110   .     S
C16    H39     1.106   .     S
C17    H43     1.106   .     S
C17    H41     1.109   .     S
C17    H42     1.108   .     S
C18    H46     1.109   .     S
C18    H45     1.110   .     S
C18    C370    1.528   1_545 S
C18    H392    1.105   1_545 S
C19    H38     1.111   .     S
C19    H37     1.111   .     S
C19    C197    1.525   .     S
C19    H210    1.110   .     S
C20    Cl31    1.775   .     S
C20    C536    1.398   .     S
C21    Cl32    1.775   .     S
C21    C537    1.397   1_554 S
C22    C192    1.528   .     S
C22    C197    1.368   .     S
C23    C370    1.368   1_545 S
C23    C367    1.525   1_545 S
C24    O53     1.288   .     A
C24    O55     1.287   .     A
C25    O56     1.286   .     A
C25    O54     1.288   .     A
C26    Cl27    1.774   .     S
Cl33   N163    1.724   1_455 S
Cl34   N106    1.721   .     S
H36    C367    1.110   1_545 S
H44    C192    1.105   .     S
N47    Zn58    2.026   .     S
N47    Cl91    1.724   .     S
N47    N106    1.280   .     S
N48    Zn57    2.026   .     S
N48    N163    1.280   1_455 S
N48    Cl150   1.721   1_455 S
O49    Zn57    1.980   .     S
O50    Zn58    1.980   .     S
O51    Zn58    1.997   .     S
O52    Zn57    1.997   .     S
O53    Zn57    1.993   .     S
O54    Zn58    1.993   .     S
O55    Zn58    2.015   .     S
O56    Zn57    2.015   .     S
C59    C80     1.434   .     S
C59    O109    1.297   .     A
C59    O107    1.285   .     A
C60    C62     1.392   .     A
C60    Cl86    1.773   .     S
C60    C71     1.402   .     A
C61    C84     1.390   .     A
C61    C83     1.421   .     S
C61    C63     1.395   .     A
C62    C64     1.395   .     A
C62    C82     1.423   .     S
C63    C65     1.402   .     A
C63    C74     1.514   .     S
C64    C75     1.511   .     S
C64    C66     1.401   .     A
C65    C67     1.420   .     A
C65    C72     1.415   .     A
C66    C73     1.415   .     A
C66    C68     1.419   .     A
C67    C69     1.423   .     A
C67    C590    1.397   1_554 S
C68    C71     1.423   .     A
C68    C589    1.397   .     S
C69    C84     1.400   .     A
C69    C79     1.414   .     A
C70    C81     1.434   .     S
C70    O110    1.299   .     A
C70    O108    1.283   .     A
C71    C78     1.415   .     A
C72    Cl87    1.778   .     S
C72    C600    1.398   1_554 S
C73    Cl88    1.778   .     S
C73    C601    1.397   .     S
C74    H98     1.110   .     S
C74    H93     1.110   .     S
C74    H97     1.106   .     S
C75    H101    1.106   .     S
C75    H99     1.109   .     S
C75    H100    1.108   .     S
C76    H104    1.109   .     S
C76    H103    1.110   .     S
C76    C428    1.528   1_545 S
C76    H450    1.105   1_545 S
C77    H96     1.111   .     S
C77    H95     1.111   .     S
C77    C255    1.525   .     S
C77    H268    1.110   .     S
C78    Cl89    1.775   .     S
C78    C594    1.398   .     S
C79    Cl90    1.775   .     S
C79    C595    1.397   1_554 S
C80    C250    1.528   .     S
C80    C255    1.368   .     S
C81    C428    1.368   1_545 S
C81    C425    1.525   1_545 S
C82    O111    1.288   .     A
C82    O113    1.287   .     A
C83    O114    1.286   .     A
C83    O112    1.288   .     A
C84    Cl85    1.774   .     S
Cl92   N164    1.721   .     S
H94    C425    1.110   1_545 S
H102   C250    1.105   .     S
N105   Zn116   2.026   .     S
N105   Cl149   1.724   .     S
N105   N164    1.280   .     S
N106   Zn115   2.026   .     S
O107   Zn115   1.980   .     S
O108   Zn116   1.980   .     S
O109   Zn116   1.997   .     S
O110   Zn115   1.997   .     S
O111   Zn115   1.993   .     S
O112   Zn116   1.993   .     S
O113   Zn116   2.015   .     S
O114   Zn115   2.015   .     S
C117   C138    1.434   .     S
C117   O167    1.297   .     A
C117   O165    1.285   .     A
C118   C120    1.392   .     A
C118   Cl144   1.773   .     S
C118   C129    1.402   .     A
C119   C142    1.390   .     A
C119   C141    1.421   .     S
C119   C121    1.395   .     A
C120   C122    1.395   .     A
C120   C140    1.423   .     S
C121   C123    1.402   .     A
C121   C132    1.514   .     S
C122   C133    1.511   .     S
C122   C124    1.401   .     A
C123   C125    1.420   .     A
C123   C130    1.415   .     A
C124   C131    1.415   .     A
C124   C126    1.419   .     A
C125   C127    1.423   .     A
C125   C648    1.397   1_554 S
C126   C129    1.423   .     A
C126   C647    1.397   .     S
C127   C142    1.400   .     A
C127   C137    1.414   .     A
C128   C139    1.434   .     S
C128   O168    1.299   .     A
C128   O166    1.283   .     A
C129   C136    1.415   .     A
C130   Cl145   1.778   .     S
C130   C658    1.398   1_554 S
C131   Cl146   1.778   .     S
C131   C659    1.397   .     S
C132   H156    1.110   .     S
C132   H151    1.110   .     S
C132   H155    1.106   .     S
C133   H159    1.106   .     S
C133   H157    1.109   .     S
C133   H158    1.108   .     S
C134   H162    1.109   .     S
C134   H161    1.110   .     S
C134   C486    1.528   1_545 S
C134   H508    1.105   1_545 S
C135   H154    1.111   .     S
C135   H153    1.111   .     S
C135   C313    1.525   .     S
C135   H326    1.110   .     S
C136   Cl147   1.775   .     S
C136   C652    1.398   .     S
C137   Cl148   1.775   .     S
C137   C653    1.397   1_554 S
C138   C308    1.528   .     S
C138   C313    1.368   .     S
C139   C486    1.368   1_545 S
C139   C483    1.525   1_545 S
C140   O169    1.288   .     A
C140   O171    1.287   .     A
C141   O172    1.286   .     A
C141   O170    1.288   .     A
C142   Cl143   1.774   .     S
Cl150  N48     1.721   1_655 S
H152   C483    1.110   1_545 S
H160   C308    1.105   .     S
N163   Zn174   2.026   .     S
N163   Cl33    1.724   1_655 S
N163   N48     1.280   1_655 S
N164   Zn173   2.026   .     S
O165   Zn173   1.980   .     S
O166   Zn174   1.980   .     S
O167   Zn174   1.997   .     S
O168   Zn173   1.997   .     S
O169   Zn173   1.993   .     S
O170   Zn174   1.993   .     S
O171   Zn174   2.015   .     S
O172   Zn173   2.015   .     S
C175   C196    1.434   .     S
C175   O225    1.297   .     A
C175   O223    1.285   .     A
C176   C178    1.392   .     A
C176   Cl202   1.773   .     S
C176   C187    1.402   .     A
C177   C200    1.390   .     A
C177   C199    1.421   .     S
C177   C179    1.395   .     A
C178   C180    1.395   .     A
C178   C198    1.423   .     S
C179   C181    1.402   .     A
C179   C190    1.514   .     S
C180   C191    1.511   .     S
C180   C182    1.401   .     A
C181   C183    1.420   .     A
C181   C188    1.415   .     A
C182   C189    1.415   .     A
C182   C184    1.419   .     A
C183   C185    1.423   .     A
C183   C706    1.397   1_554 S
C184   C187    1.423   .     A
C184   C705    1.397   .     S
C185   C200    1.400   .     A
C185   C195    1.414   .     A
C186   C197    1.434   .     S
C186   O226    1.299   .     A
C186   O224    1.283   .     A
C187   C194    1.415   .     A
C188   Cl203   1.778   .     S
C188   C716    1.398   1_554 S
C189   Cl204   1.778   .     S
C189   C717    1.397   .     S
C190   H214    1.110   .     S
C190   H209    1.110   .     S
C190   H213    1.106   .     S
C191   H217    1.106   .     S
C191   H215    1.109   .     S
C191   H216    1.108   .     S
C192   H220    1.109   .     S
C192   H219    1.110   .     S
C193   H212    1.111   .     S
C193   H211    1.111   .     S
C193   C371    1.525   .     S
C193   H384    1.110   .     S
C194   Cl205   1.775   .     S
C194   C710    1.398   .     S
C195   Cl206   1.775   .     S
C195   C711    1.397   1_554 S
C196   C366    1.528   .     S
C196   C371    1.368   .     S
C198   O227    1.288   .     A
C198   O229    1.287   .     A
C199   O230    1.286   .     A
C199   O228    1.288   .     A
C200   Cl201   1.774   .     S
Cl207  N337    1.724   1_455 S
Cl208  N280    1.721   .     S
H218   C366    1.105   .     S
N221   Zn232   2.026   .     S
N221   Cl265   1.724   .     S
N221   N280    1.280   .     S
N222   Zn231   2.026   .     S
N222   N337    1.280   1_455 S
N222   Cl324   1.721   1_455 S
O223   Zn231   1.980   .     S
O224   Zn232   1.980   .     S
O225   Zn232   1.997   .     S
O226   Zn231   1.997   .     S
O227   Zn231   1.993   .     S
O228   Zn232   1.993   .     S
O229   Zn232   2.015   .     S
O230   Zn231   2.015   .     S
C233   C254    1.434   .     S
C233   O283    1.297   .     A
C233   O281    1.285   .     A
C234   C236    1.392   .     A
C234   Cl260   1.773   .     S
C234   C245    1.402   .     A
C235   C258    1.390   .     A
C235   C257    1.421   .     S
C235   C237    1.395   .     A
C236   C238    1.395   .     A
C236   C256    1.423   .     S
C237   C239    1.402   .     A
C237   C248    1.514   .     S
C238   C249    1.511   .     S
C238   C240    1.401   .     A
C239   C241    1.420   .     A
C239   C246    1.415   .     A
C240   C247    1.415   .     A
C240   C242    1.419   .     A
C241   C243    1.423   .     A
C241   C764    1.397   1_554 S
C242   C245    1.423   .     A
C242   C763    1.397   .     S
C243   C258    1.400   .     A
C243   C253    1.414   .     A
C244   C255    1.434   .     S
C244   O284    1.299   .     A
C244   O282    1.283   .     A
C245   C252    1.415   .     A
C246   Cl261   1.778   .     S
C246   C774    1.398   1_554 S
C247   Cl262   1.778   .     S
C247   C775    1.397   .     S
C248   H272    1.110   .     S
C248   H267    1.110   .     S
C248   H271    1.106   .     S
C249   H275    1.106   .     S
C249   H273    1.109   .     S
C249   H274    1.108   .     S
C250   H278    1.109   .     S
C250   H277    1.110   .     S
C251   H270    1.111   .     S
C251   H269    1.111   .     S
C251   C429    1.525   .     S
C251   H442    1.110   .     S
C252   Cl263   1.775   .     S
C252   C768    1.398   .     S
C253   Cl264   1.775   .     S
C253   C769    1.397   1_554 S
C254   C424    1.528   .     S
C254   C429    1.368   .     S
C256   O285    1.288   .     A
C256   O287    1.287   .     A
C257   O288    1.286   .     A
C257   O286    1.288   .     A
C258   Cl259   1.774   .     S
Cl266  N338    1.721   .     S
H276   C424    1.105   .     S
N279   Zn290   2.026   .     S
N279   Cl323   1.724   .     S
N279   N338    1.280   .     S
N280   Zn289   2.026   .     S
O281   Zn289   1.980   .     S
O282   Zn290   1.980   .     S
O283   Zn290   1.997   .     S
O284   Zn289   1.997   .     S
O285   Zn289   1.993   .     S
O286   Zn290   1.993   .     S
O287   Zn290   2.015   .     S
O288   Zn289   2.015   .     S
C291   C312    1.434   .     S
C291   O341    1.297   .     A
C291   O339    1.285   .     A
C292   C294    1.392   .     A
C292   Cl318   1.773   .     S
C292   C303    1.402   .     A
C293   C316    1.390   .     A
C293   C315    1.421   .     S
C293   C295    1.395   .     A
C294   C296    1.395   .     A
C294   C314    1.423   .     S
C295   C297    1.402   .     A
C295   C306    1.514   .     S
C296   C307    1.511   .     S
C296   C298    1.401   .     A
C297   C299    1.420   .     A
C297   C304    1.415   .     A
C298   C305    1.415   .     A
C298   C300    1.419   .     A
C299   C301    1.423   .     A
C299   C822    1.397   1_554 S
C300   C303    1.423   .     A
C300   C821    1.397   .     S
C301   C316    1.400   .     A
C301   C311    1.414   .     A
C302   C313    1.434   .     S
C302   O342    1.299   .     A
C302   O340    1.283   .     A
C303   C310    1.415   .     A
C304   Cl319   1.778   .     S
C304   C832    1.398   1_554 S
C305   Cl320   1.778   .     S
C305   C833    1.397   .     S
C306   H330    1.110   .     S
C306   H325    1.110   .     S
C306   H329    1.106   .     S
C307   H333    1.106   .     S
C307   H331    1.109   .     S
C307   H332    1.108   .     S
C308   H336    1.109   .     S
C308   H335    1.110   .     S
C309   H328    1.111   .     S
C309   H327    1.111   .     S
C309   C487    1.525   .     S
C309   H500    1.110   .     S
C310   Cl321   1.775   .     S
C310   C826    1.398   .     S
C311   Cl322   1.775   .     S
C311   C827    1.397   1_554 S
C312   C482    1.528   .     S
C312   C487    1.368   .     S
C314   O343    1.288   .     A
C314   O345    1.287   .     A
C315   O346    1.286   .     A
C315   O344    1.288   .     A
C316   Cl317   1.774   .     S
Cl324  N222    1.721   1_655 S
H334   C482    1.105   .     S
N337   Zn348   2.026   .     S
N337   Cl207   1.724   1_655 S
N337   N222    1.280   1_655 S
N338   Zn347   2.026   .     S
O339   Zn347   1.980   .     S
O340   Zn348   1.980   .     S
O341   Zn348   1.997   .     S
O342   Zn347   1.997   .     S
O343   Zn347   1.993   .     S
O344   Zn348   1.993   .     S
O345   Zn348   2.015   .     S
O346   Zn347   2.015   .     S
C349   C370    1.434   .     S
C349   O399    1.297   .     A
C349   O397    1.285   .     A
C350   C352    1.392   .     A
C350   Cl376   1.773   .     S
C350   C361    1.402   .     A
C351   C374    1.390   .     A
C351   C373    1.421   .     S
C351   C353    1.395   .     A
C352   C354    1.395   .     A
C352   C372    1.423   .     S
C353   C355    1.402   .     A
C353   C364    1.514   .     S
C354   C365    1.511   .     S
C354   C356    1.401   .     A
C355   C357    1.420   .     A
C355   C362    1.415   .     A
C356   C363    1.415   .     A
C356   C358    1.419   .     A
C357   C359    1.423   .     A
C357   C880    1.397   1_554 S
C358   C361    1.423   .     A
C358   C879    1.397   .     S
C359   C374    1.400   .     A
C359   C369    1.414   .     A
C360   C371    1.434   .     S
C360   O400    1.299   .     A
C360   O398    1.283   .     A
C361   C368    1.415   .     A
C362   Cl377   1.778   .     S
C362   C890    1.398   1_554 S
C363   Cl378   1.778   .     S
C363   C891    1.397   .     S
C364   H388    1.110   .     S
C364   H383    1.110   .     S
C364   H387    1.106   .     S
C365   H391    1.106   .     S
C365   H389    1.109   .     S
C365   H390    1.108   .     S
C366   H394    1.109   .     S
C366   H393    1.110   .     S
C367   H386    1.111   .     S
C367   H385    1.111   .     S
C367   C23     1.525   1_565 S
C367   H36     1.110   1_565 S
C368   Cl379   1.775   .     S
C368   C884    1.398   .     S
C369   Cl380   1.775   .     S
C369   C885    1.397   1_554 S
C370   C18     1.528   1_565 S
C370   C23     1.368   1_565 S
C372   O401    1.288   .     A
C372   O403    1.287   .     A
C373   O404    1.286   .     A
C373   O402    1.288   .     A
C374   Cl375   1.774   .     S
Cl381  N511    1.724   1_455 S
Cl382  N454    1.721   .     S
H392   C18     1.105   1_565 S
N395   Zn406   2.026   .     S
N395   Cl439   1.724   .     S
N395   N454    1.280   .     S
N396   Zn405   2.026   .     S
N396   N511    1.280   1_455 S
N396   Cl498   1.721   1_455 S
O397   Zn405   1.980   .     S
O398   Zn406   1.980   .     S
O399   Zn406   1.997   .     S
O400   Zn405   1.997   .     S
O401   Zn405   1.993   .     S
O402   Zn406   1.993   .     S
O403   Zn406   2.015   .     S
O404   Zn405   2.015   .     S
C407   C428    1.434   .     S
C407   O457    1.297   .     A
C407   O455    1.285   .     A
C408   C410    1.392   .     A
C408   Cl434   1.773   .     S
C408   C419    1.402   .     A
C409   C432    1.390   .     A
C409   C431    1.421   .     S
C409   C411    1.395   .     A
C410   C412    1.395   .     A
C410   C430    1.423   .     S
C411   C413    1.402   .     A
C411   C422    1.514   .     S
C412   C423    1.511   .     S
C412   C414    1.401   .     A
C413   C415    1.420   .     A
C413   C420    1.415   .     A
C414   C421    1.415   .     A
C414   C416    1.419   .     A
C415   C417    1.423   .     A
C415   C938    1.397   1_554 S
C416   C419    1.423   .     A
C416   C937    1.397   .     S
C417   C432    1.400   .     A
C417   C427    1.414   .     A
C418   C429    1.434   .     S
C418   O458    1.299   .     A
C418   O456    1.283   .     A
C419   C426    1.415   .     A
C420   Cl435   1.778   .     S
C420   C948    1.398   1_554 S
C421   Cl436   1.778   .     S
C421   C949    1.397   .     S
C422   H446    1.110   .     S
C422   H441    1.110   .     S
C422   H445    1.106   .     S
C423   H449    1.106   .     S
C423   H447    1.109   .     S
C423   H448    1.108   .     S
C424   H452    1.109   .     S
C424   H451    1.110   .     S
C425   H444    1.111   .     S
C425   H443    1.111   .     S
C425   C81     1.525   1_565 S
C425   H94     1.110   1_565 S
C426   Cl437   1.775   .     S
C426   C942    1.398   .     S
C427   Cl438   1.775   .     S
C427   C943    1.397   1_554 S
C428   C76     1.528   1_565 S
C428   C81     1.368   1_565 S
C430   O459    1.288   .     A
C430   O461    1.287   .     A
C431   O462    1.286   .     A
C431   O460    1.288   .     A
C432   Cl433   1.774   .     S
Cl440  N512    1.721   .     S
H450   C76     1.105   1_565 S
N453   Zn464   2.026   .     S
N453   Cl497   1.724   .     S
N453   N512    1.280   .     S
N454   Zn463   2.026   .     S
O455   Zn463   1.980   .     S
O456   Zn464   1.980   .     S
O457   Zn464   1.997   .     S
O458   Zn463   1.997   .     S
O459   Zn463   1.993   .     S
O460   Zn464   1.993   .     S
O461   Zn464   2.015   .     S
O462   Zn463   2.015   .     S
C465   C486    1.434   .     S
C465   O515    1.297   .     A
C465   O513    1.285   .     A
C466   C468    1.392   .     A
C466   Cl492   1.773   .     S
C466   C477    1.402   .     A
C467   C490    1.390   .     A
C467   C489    1.421   .     S
C467   C469    1.395   .     A
C468   C470    1.395   .     A
C468   C488    1.423   .     S
C469   C471    1.402   .     A
C469   C480    1.514   .     S
C470   C481    1.511   .     S
C470   C472    1.401   .     A
C471   C473    1.420   .     A
C471   C478    1.415   .     A
C472   C479    1.415   .     A
C472   C474    1.419   .     A
C473   C475    1.423   .     A
C473   C996    1.397   1_554 S
C474   C477    1.423   .     A
C474   C995    1.397   .     S
C475   C490    1.400   .     A
C475   C485    1.414   .     A
C476   C487    1.434   .     S
C476   O516    1.299   .     A
C476   O514    1.283   .     A
C477   C484    1.415   .     A
C478   Cl493   1.778   .     S
C478   C1006   1.398   1_554 S
C479   Cl494   1.778   .     S
C479   C1007   1.397   .     S
C480   H504    1.110   .     S
C480   H499    1.110   .     S
C480   H503    1.106   .     S
C481   H507    1.106   .     S
C481   H505    1.109   .     S
C481   H506    1.108   .     S
C482   H510    1.109   .     S
C482   H509    1.110   .     S
C483   H502    1.111   .     S
C483   H501    1.111   .     S
C483   C139    1.525   1_565 S
C483   H152    1.110   1_565 S
C484   Cl495   1.775   .     S
C484   C1000   1.398   .     S
C485   Cl496   1.775   .     S
C485   C1001   1.397   1_554 S
C486   C134    1.528   1_565 S
C486   C139    1.368   1_565 S
C488   O517    1.288   .     A
C488   O519    1.287   .     A
C489   O520    1.286   .     A
C489   O518    1.288   .     A
C490   Cl491   1.774   .     S
Cl498  N396    1.721   1_655 S
H508   C134    1.105   1_565 S
N511   Zn522   2.026   .     S
N511   Cl381   1.724   1_655 S
N511   N396    1.280   1_655 S
N512   Zn521   2.026   .     S
O513   Zn521   1.980   .     S
O514   Zn522   1.980   .     S
O515   Zn522   1.997   .     S
O516   Zn521   1.997   .     S
O517   Zn521   1.993   .     S
O518   Zn522   1.993   .     S
O519   Zn522   2.015   .     S
O520   Zn521   2.015   .     S
C523   C544    1.434   .     S
C523   O573    1.297   .     A
C523   O571    1.285   .     A
C524   C526    1.392   .     A
C524   Cl550   1.773   .     S
C524   C535    1.402   .     A
C525   C548    1.390   .     A
C525   C547    1.421   .     S
C525   C527    1.395   .     A
C526   C528    1.395   .     A
C526   C546    1.423   .     S
C527   C529    1.402   .     A
C527   C538    1.514   .     S
C528   C539    1.511   .     S
C528   C530    1.401   .     A
C529   C531    1.420   .     A
C529   C536    1.415   .     A
C530   C537    1.415   .     A
C530   C532    1.419   .     A
C531   C533    1.423   .     A
C532   C535    1.423   .     A
C532   C9      1.397   1_556 S
C533   C548    1.400   .     A
C533   C543    1.414   .     A
C534   C545    1.434   .     S
C534   O574    1.299   .     A
C534   O572    1.283   .     A
C535   C542    1.415   .     A
C536   Cl551   1.778   .     S
C537   Cl552   1.778   .     S
C537   C21     1.397   1_556 S
C538   H562    1.110   .     S
C538   H557    1.110   .     S
C538   H561    1.106   .     S
C539   H565    1.106   .     S
C539   H563    1.109   .     S
C539   H564    1.108   .     S
C540   H568    1.109   .     S
C540   H567    1.110   .     S
C540   C892    1.528   1_545 S
C540   H914    1.105   1_545 S
C541   H560    1.111   .     S
C541   H559    1.111   .     S
C541   C719    1.525   .     S
C541   H732    1.110   .     S
C542   Cl553   1.775   .     S
C542   C14     1.398   1_556 S
C543   Cl554   1.775   .     S
C544   C714    1.528   .     S
C544   C719    1.368   .     S
C545   C892    1.368   1_545 S
C545   C889    1.525   1_545 S
C546   O575    1.288   .     A
C546   O577    1.287   .     A
C547   O578    1.286   .     A
C547   O576    1.288   .     A
C548   Cl549   1.774   .     S
Cl555  N685    1.724   1_455 S
Cl556  N628    1.721   .     S
H558   C889    1.110   1_545 S
H566   C714    1.105   .     S
N569   Zn580   2.026   .     S
N569   Cl613   1.724   .     S
N569   N628    1.280   .     S
N570   Zn579   2.026   .     S
N570   N685    1.280   1_455 S
N570   Cl672   1.721   1_455 S
O571   Zn579   1.980   .     S
O572   Zn580   1.980   .     S
O573   Zn580   1.997   .     S
O574   Zn579   1.997   .     S
O575   Zn579   1.993   .     S
O576   Zn580   1.993   .     S
O577   Zn580   2.015   .     S
O578   Zn579   2.015   .     S
C581   C602    1.434   .     S
C581   O631    1.297   .     A
C581   O629    1.285   .     A
C582   C584    1.392   .     A
C582   Cl608   1.773   .     S
C582   C593    1.402   .     A
C583   C606    1.390   .     A
C583   C605    1.421   .     S
C583   C585    1.395   .     A
C584   C586    1.395   .     A
C584   C604    1.423   .     S
C585   C587    1.402   .     A
C585   C596    1.514   .     S
C586   C597    1.511   .     S
C586   C588    1.401   .     A
C587   C589    1.420   .     A
C587   C594    1.415   .     A
C588   C595    1.415   .     A
C588   C590    1.419   .     A
C589   C591    1.423   .     A
C590   C593    1.423   .     A
C590   C67     1.397   1_556 S
C591   C606    1.400   .     A
C591   C601    1.414   .     A
C592   C603    1.434   .     S
C592   O632    1.299   .     A
C592   O630    1.283   .     A
C593   C600    1.415   .     A
C594   Cl609   1.778   .     S
C595   Cl610   1.778   .     S
C595   C79     1.397   1_556 S
C596   H620    1.110   .     S
C596   H615    1.110   .     S
C596   H619    1.106   .     S
C597   H623    1.106   .     S
C597   H621    1.109   .     S
C597   H622    1.108   .     S
C598   H626    1.109   .     S
C598   H625    1.110   .     S
C598   C950    1.528   1_545 S
C598   H972    1.105   1_545 S
C599   H618    1.111   .     S
C599   H617    1.111   .     S
C599   C777    1.525   .     S
C599   H790    1.110   .     S
C600   Cl611   1.775   .     S
C600   C72     1.398   1_556 S
C601   Cl612   1.775   .     S
C602   C772    1.528   .     S
C602   C777    1.368   .     S
C603   C950    1.368   1_545 S
C603   C947    1.525   1_545 S
C604   O633    1.288   .     A
C604   O635    1.287   .     A
C605   O636    1.286   .     A
C605   O634    1.288   .     A
C606   Cl607   1.774   .     S
Cl614  N686    1.721   .     S
H616   C947    1.110   1_545 S
H624   C772    1.105   .     S
N627   Zn638   2.026   .     S
N627   Cl671   1.724   .     S
N627   N686    1.280   .     S
N628   Zn637   2.026   .     S
O629   Zn637   1.980   .     S
O630   Zn638   1.980   .     S
O631   Zn638   1.997   .     S
O632   Zn637   1.997   .     S
O633   Zn637   1.993   .     S
O634   Zn638   1.993   .     S
O635   Zn638   2.015   .     S
O636   Zn637   2.015   .     S
C639   C660    1.434   .     S
C639   O689    1.297   .     A
C639   O687    1.285   .     A
C640   C642    1.392   .     A
C640   Cl666   1.773   .     S
C640   C651    1.402   .     A
C641   C664    1.390   .     A
C641   C663    1.421   .     S
C641   C643    1.395   .     A
C642   C644    1.395   .     A
C642   C662    1.423   .     S
C643   C645    1.402   .     A
C643   C654    1.514   .     S
C644   C655    1.511   .     S
C644   C646    1.401   .     A
C645   C647    1.420   .     A
C645   C652    1.415   .     A
C646   C653    1.415   .     A
C646   C648    1.419   .     A
C647   C649    1.423   .     A
C648   C651    1.423   .     A
C648   C125    1.397   1_556 S
C649   C664    1.400   .     A
C649   C659    1.414   .     A
C650   C661    1.434   .     S
C650   O690    1.299   .     A
C650   O688    1.283   .     A
C651   C658    1.415   .     A
C652   Cl667   1.778   .     S
C653   Cl668   1.778   .     S
C653   C137    1.397   1_556 S
C654   H678    1.110   .     S
C654   H673    1.110   .     S
C654   H677    1.106   .     S
C655   H681    1.106   .     S
C655   H679    1.109   .     S
C655   H680    1.108   .     S
C656   H684    1.109   .     S
C656   H683    1.110   .     S
C656   C1008   1.528   1_545 S
C656   H1030   1.105   1_545 S
C657   H676    1.111   .     S
C657   H675    1.111   .     S
C657   C835    1.525   .     S
C657   H848    1.110   .     S
C658   Cl669   1.775   .     S
C658   C130    1.398   1_556 S
C659   Cl670   1.775   .     S
C660   C830    1.528   .     S
C660   C835    1.368   .     S
C661   C1008   1.368   1_545 S
C661   C1005   1.525   1_545 S
C662   O691    1.288   .     A
C662   O693    1.287   .     A
C663   O694    1.286   .     A
C663   O692    1.288   .     A
C664   Cl665   1.774   .     S
Cl672  N570    1.721   1_655 S
H674   C1005   1.110   1_545 S
H682   C830    1.105   .     S
N685   Zn696   2.026   .     S
N685   Cl555   1.724   1_655 S
N685   N570    1.280   1_655 S
N686   Zn695   2.026   .     S
O687   Zn695   1.980   .     S
O688   Zn696   1.980   .     S
O689   Zn696   1.997   .     S
O690   Zn695   1.997   .     S
O691   Zn695   1.993   .     S
O692   Zn696   1.993   .     S
O693   Zn696   2.015   .     S
O694   Zn695   2.015   .     S
C697   C718    1.434   .     S
C697   O747    1.297   .     A
C697   O745    1.285   .     A
C698   C700    1.392   .     A
C698   Cl724   1.773   .     S
C698   C709    1.402   .     A
C699   C722    1.390   .     A
C699   C721    1.421   .     S
C699   C701    1.395   .     A
C700   C702    1.395   .     A
C700   C720    1.423   .     S
C701   C703    1.402   .     A
C701   C712    1.514   .     S
C702   C713    1.511   .     S
C702   C704    1.401   .     A
C703   C705    1.420   .     A
C703   C710    1.415   .     A
C704   C711    1.415   .     A
C704   C706    1.419   .     A
C705   C707    1.423   .     A
C706   C709    1.423   .     A
C706   C183    1.397   1_556 S
C707   C722    1.400   .     A
C707   C717    1.414   .     A
C708   C719    1.434   .     S
C708   O748    1.299   .     A
C708   O746    1.283   .     A
C709   C716    1.415   .     A
C710   Cl725   1.778   .     S
C711   Cl726   1.778   .     S
C711   C195    1.397   1_556 S
C712   H736    1.110   .     S
C712   H731    1.110   .     S
C712   H735    1.106   .     S
C713   H739    1.106   .     S
C713   H737    1.109   .     S
C713   H738    1.108   .     S
C714   H742    1.109   .     S
C714   H741    1.110   .     S
C715   H734    1.111   .     S
C715   H733    1.111   .     S
C715   C893    1.525   .     S
C715   H906    1.110   .     S
C716   Cl727   1.775   .     S
C716   C188    1.398   1_556 S
C717   Cl728   1.775   .     S
C718   C888    1.528   .     S
C718   C893    1.368   .     S
C720   O749    1.288   .     A
C720   O751    1.287   .     A
C721   O752    1.286   .     A
C721   O750    1.288   .     A
C722   Cl723   1.774   .     S
Cl729  N859    1.724   1_455 S
Cl730  N802    1.721   .     S
H740   C888    1.105   .     S
N743   Zn754   2.026   .     S
N743   Cl787   1.724   .     S
N743   N802    1.280   .     S
N744   Zn753   2.026   .     S
N744   N859    1.280   1_455 S
N744   Cl846   1.721   1_455 S
O745   Zn753   1.980   .     S
O746   Zn754   1.980   .     S
O747   Zn754   1.997   .     S
O748   Zn753   1.997   .     S
O749   Zn753   1.993   .     S
O750   Zn754   1.993   .     S
O751   Zn754   2.015   .     S
O752   Zn753   2.015   .     S
C755   C776    1.434   .     S
C755   O805    1.297   .     A
C755   O803    1.285   .     A
C756   C758    1.392   .     A
C756   Cl782   1.773   .     S
C756   C767    1.402   .     A
C757   C780    1.390   .     A
C757   C779    1.421   .     S
C757   C759    1.395   .     A
C758   C760    1.395   .     A
C758   C778    1.423   .     S
C759   C761    1.402   .     A
C759   C770    1.514   .     S
C760   C771    1.511   .     S
C760   C762    1.401   .     A
C761   C763    1.420   .     A
C761   C768    1.415   .     A
C762   C769    1.415   .     A
C762   C764    1.419   .     A
C763   C765    1.423   .     A
C764   C767    1.423   .     A
C764   C241    1.397   1_556 S
C765   C780    1.400   .     A
C765   C775    1.414   .     A
C766   C777    1.434   .     S
C766   O806    1.299   .     A
C766   O804    1.283   .     A
C767   C774    1.415   .     A
C768   Cl783   1.778   .     S
C769   Cl784   1.778   .     S
C769   C253    1.397   1_556 S
C770   H794    1.110   .     S
C770   H789    1.110   .     S
C770   H793    1.106   .     S
C771   H797    1.106   .     S
C771   H795    1.109   .     S
C771   H796    1.108   .     S
C772   H800    1.109   .     S
C772   H799    1.110   .     S
C773   H792    1.111   .     S
C773   H791    1.111   .     S
C773   C951    1.525   .     S
C773   H964    1.110   .     S
C774   Cl785   1.775   .     S
C774   C246    1.398   1_556 S
C775   Cl786   1.775   .     S
C776   C946    1.528   .     S
C776   C951    1.368   .     S
C778   O807    1.288   .     A
C778   O809    1.287   .     A
C779   O810    1.286   .     A
C779   O808    1.288   .     A
C780   Cl781   1.774   .     S
Cl788  N860    1.721   .     S
H798   C946    1.105   .     S
N801   Zn812   2.026   .     S
N801   Cl845   1.724   .     S
N801   N860    1.280   .     S
N802   Zn811   2.026   .     S
O803   Zn811   1.980   .     S
O804   Zn812   1.980   .     S
O805   Zn812   1.997   .     S
O806   Zn811   1.997   .     S
O807   Zn811   1.993   .     S
O808   Zn812   1.993   .     S
O809   Zn812   2.015   .     S
O810   Zn811   2.015   .     S
C813   C834    1.434   .     S
C813   O863    1.297   .     A
C813   O861    1.285   .     A
C814   C816    1.392   .     A
C814   Cl840   1.773   .     S
C814   C825    1.402   .     A
C815   C838    1.390   .     A
C815   C837    1.421   .     S
C815   C817    1.395   .     A
C816   C818    1.395   .     A
C816   C836    1.423   .     S
C817   C819    1.402   .     A
C817   C828    1.514   .     S
C818   C829    1.511   .     S
C818   C820    1.401   .     A
C819   C821    1.420   .     A
C819   C826    1.415   .     A
C820   C827    1.415   .     A
C820   C822    1.419   .     A
C821   C823    1.423   .     A
C822   C825    1.423   .     A
C822   C299    1.397   1_556 S
C823   C838    1.400   .     A
C823   C833    1.414   .     A
C824   C835    1.434   .     S
C824   O864    1.299   .     A
C824   O862    1.283   .     A
C825   C832    1.415   .     A
C826   Cl841   1.778   .     S
C827   Cl842   1.778   .     S
C827   C311    1.397   1_556 S
C828   H852    1.110   .     S
C828   H847    1.110   .     S
C828   H851    1.106   .     S
C829   H855    1.106   .     S
C829   H853    1.109   .     S
C829   H854    1.108   .     S
C830   H858    1.109   .     S
C830   H857    1.110   .     S
C831   H850    1.111   .     S
C831   H849    1.111   .     S
C831   C1009   1.525   .     S
C831   H1022   1.110   .     S
C832   Cl843   1.775   .     S
C832   C304    1.398   1_556 S
C833   Cl844   1.775   .     S
C834   C1004   1.528   .     S
C834   C1009   1.368   .     S
C836   O865    1.288   .     A
C836   O867    1.287   .     A
C837   O868    1.286   .     A
C837   O866    1.288   .     A
C838   Cl839   1.774   .     S
Cl846  N744    1.721   1_655 S
H856   C1004   1.105   .     S
N859   Zn870   2.026   .     S
N859   Cl729   1.724   1_655 S
N859   N744    1.280   1_655 S
N860   Zn869   2.026   .     S
O861   Zn869   1.980   .     S
O862   Zn870   1.980   .     S
O863   Zn870   1.997   .     S
O864   Zn869   1.997   .     S
O865   Zn869   1.993   .     S
O866   Zn870   1.993   .     S
O867   Zn870   2.015   .     S
O868   Zn869   2.015   .     S
C871   C892    1.434   .     S
C871   O921    1.297   .     A
C871   O919    1.285   .     A
C872   C874    1.392   .     A
C872   Cl898   1.773   .     S
C872   C883    1.402   .     A
C873   C896    1.390   .     A
C873   C895    1.421   .     S
C873   C875    1.395   .     A
C874   C876    1.395   .     A
C874   C894    1.423   .     S
C875   C877    1.402   .     A
C875   C886    1.514   .     S
C876   C887    1.511   .     S
C876   C878    1.401   .     A
C877   C879    1.420   .     A
C877   C884    1.415   .     A
C878   C885    1.415   .     A
C878   C880    1.419   .     A
C879   C881    1.423   .     A
C880   C883    1.423   .     A
C880   C357    1.397   1_556 S
C881   C896    1.400   .     A
C881   C891    1.414   .     A
C882   C893    1.434   .     S
C882   O922    1.299   .     A
C882   O920    1.283   .     A
C883   C890    1.415   .     A
C884   Cl899   1.778   .     S
C885   Cl900   1.778   .     S
C885   C369    1.397   1_556 S
C886   H910    1.110   .     S
C886   H905    1.110   .     S
C886   H909    1.106   .     S
C887   H913    1.106   .     S
C887   H911    1.109   .     S
C887   H912    1.108   .     S
C888   H916    1.109   .     S
C888   H915    1.110   .     S
C889   H908    1.111   .     S
C889   H907    1.111   .     S
C889   C545    1.525   1_565 S
C889   H558    1.110   1_565 S
C890   Cl901   1.775   .     S
C890   C362    1.398   1_556 S
C891   Cl902   1.775   .     S
C892   C540    1.528   1_565 S
C892   C545    1.368   1_565 S
C894   O923    1.288   .     A
C894   O925    1.287   .     A
C895   O926    1.286   .     A
C895   O924    1.288   .     A
C896   Cl897   1.774   .     S
Cl903  N1033   1.724   1_455 S
Cl904  N976    1.721   .     S
H914   C540    1.105   1_565 S
N917   Zn928   2.026   .     S
N917   Cl961   1.724   .     S
N917   N976    1.280   .     S
N918   Zn927   2.026   .     S
N918   N1033   1.280   1_455 S
N918   Cl1020  1.721   1_455 S
O919   Zn927   1.980   .     S
O920   Zn928   1.980   .     S
O921   Zn928   1.997   .     S
O922   Zn927   1.997   .     S
O923   Zn927   1.993   .     S
O924   Zn928   1.993   .     S
O925   Zn928   2.015   .     S
O926   Zn927   2.015   .     S
C929   C950    1.434   .     S
C929   O979    1.297   .     A
C929   O977    1.285   .     A
C930   C932    1.392   .     A
C930   Cl956   1.773   .     S
C930   C941    1.402   .     A
C931   C954    1.390   .     A
C931   C953    1.421   .     S
C931   C933    1.395   .     A
C932   C934    1.395   .     A
C932   C952    1.423   .     S
C933   C935    1.402   .     A
C933   C944    1.514   .     S
C934   C945    1.511   .     S
C934   C936    1.401   .     A
C935   C937    1.420   .     A
C935   C942    1.415   .     A
C936   C943    1.415   .     A
C936   C938    1.419   .     A
C937   C939    1.423   .     A
C938   C941    1.423   .     A
C938   C415    1.397   1_556 S
C939   C954    1.400   .     A
C939   C949    1.414   .     A
C940   C951    1.434   .     S
C940   O980    1.299   .     A
C940   O978    1.283   .     A
C941   C948    1.415   .     A
C942   Cl957   1.778   .     S
C943   Cl958   1.778   .     S
C943   C427    1.397   1_556 S
C944   H968    1.110   .     S
C944   H963    1.110   .     S
C944   H967    1.106   .     S
C945   H971    1.106   .     S
C945   H969    1.109   .     S
C945   H970    1.108   .     S
C946   H974    1.109   .     S
C946   H973    1.110   .     S
C947   H966    1.111   .     S
C947   H965    1.111   .     S
C947   C603    1.525   1_565 S
C947   H616    1.110   1_565 S
C948   Cl959   1.775   .     S
C948   C420    1.398   1_556 S
C949   Cl960   1.775   .     S
C950   C598    1.528   1_565 S
C950   C603    1.368   1_565 S
C952   O981    1.288   .     A
C952   O983    1.287   .     A
C953   O984    1.286   .     A
C953   O982    1.288   .     A
C954   Cl955   1.774   .     S
Cl962  N1034   1.721   .     S
H972   C598    1.105   1_565 S
N975   Zn986   2.026   .     S
N975   Cl1019  1.724   .     S
N975   N1034   1.280   .     S
N976   Zn985   2.026   .     S
O977   Zn985   1.980   .     S
O978   Zn986   1.980   .     S
O979   Zn986   1.997   .     S
O980   Zn985   1.997   .     S
O981   Zn985   1.993   .     S
O982   Zn986   1.993   .     S
O983   Zn986   2.015   .     S
O984   Zn985   2.015   .     S
C987   C1008   1.434   .     S
C987   O1037   1.297   .     A
C987   O1035   1.285   .     A
C988   C990    1.392   .     A
C988   Cl1014  1.773   .     S
C988   C999    1.402   .     A
C989   C1012   1.390   .     A
C989   C1011   1.421   .     S
C989   C991    1.395   .     A
C990   C992    1.395   .     A
C990   C1010   1.423   .     S
C991   C993    1.402   .     A
C991   C1002   1.514   .     S
C992   C1003   1.511   .     S
C992   C994    1.401   .     A
C993   C995    1.420   .     A
C993   C1000   1.415   .     A
C994   C1001   1.415   .     A
C994   C996    1.419   .     A
C995   C997    1.423   .     A
C996   C999    1.423   .     A
C996   C473    1.397   1_556 S
C997   C1012   1.400   .     A
C997   C1007   1.414   .     A
C998   C1009   1.434   .     S
C998   O1038   1.299   .     A
C998   O1036   1.283   .     A
C999   C1006   1.415   .     A
C1000  Cl1015  1.778   .     S
C1001  Cl1016  1.778   .     S
C1001  C485    1.397   1_556 S
C1002  H1026   1.110   .     S
C1002  H1021   1.110   .     S
C1002  H1025   1.106   .     S
C1003  H1029   1.106   .     S
C1003  H1027   1.109   .     S
C1003  H1028   1.108   .     S
C1004  H1032   1.109   .     S
C1004  H1031   1.110   .     S
C1005  H1024   1.111   .     S
C1005  H1023   1.111   .     S
C1005  C661    1.525   1_565 S
C1005  H674    1.110   1_565 S
C1006  Cl1017  1.775   .     S
C1006  C478    1.398   1_556 S
C1007  Cl1018  1.775   .     S
C1008  C656    1.528   1_565 S
C1008  C661    1.368   1_565 S
C1010  O1039   1.288   .     A
C1010  O1041   1.287   .     A
C1011  O1042   1.286   .     A
C1011  O1040   1.288   .     A
C1012  Cl1013  1.774   .     S
Cl1020 N918    1.721   1_655 S
H1030  C656    1.105   1_565 S
N1033  Zn1044  2.026   .     S
N1033  Cl903   1.724   1_655 S
N1033  N918    1.280   1_655 S
N1034  Zn1043  2.026   .     S
O1035  Zn1043  1.980   .     S
O1036  Zn1044  1.980   .     S
O1037  Zn1044  1.997   .     S
O1038  Zn1043  1.997   .     S
O1039  Zn1043  1.993   .     S
O1040  Zn1044  1.993   .     S
O1041  Zn1044  2.015   .     S
O1042  Zn1043  2.015   .     S
