data_str_m3_o1_o16_pcu_sym.53
_audit_creation_date              2020-01-03
_audit_creation_method            'Materials Studio'
_symmetry_space_group_name_H-M    'P1'
_symmetry_Int_Tables_number       1
_symmetry_cell_setting            triclinic
loop_
_symmetry_equiv_pos_as_xyz
  x,y,z
_cell_length_a                    30.0407
_cell_length_b                    32.1138
_cell_length_c                    26.1886
_cell_angle_alpha                 92.9892
_cell_angle_beta                  69.3626
_cell_angle_gamma                 88.5979
loop_
_atom_site_label
_atom_site_type_symbol
_atom_site_fract_x
_atom_site_fract_y
_atom_site_fract_z
_atom_site_U_iso_or_equiv
_atom_site_adp_type
_atom_site_occupancy
C1     C     0.16760   0.24626   0.24559   0.00000  Uiso   1.00
C2     C     0.12079   0.15919   0.41188   0.00000  Uiso   1.00
C3     C     0.20973   0.31066   0.23917   0.00000  Uiso   1.00
C4     C     0.13965   0.16457   0.35227   0.00000  Uiso   1.00
C5     C     0.20872   0.02003   0.24356   0.00000  Uiso   1.00
C6     C     0.16577   0.04242   0.25349   0.00000  Uiso   1.00
C7     C     0.12380   0.02169   0.25840   0.00000  Uiso   1.00
C8     C     0.12802   0.31332   0.24173   0.00000  Uiso   1.00
C9     C     0.16883   0.29040   0.23994   0.00000  Uiso   1.00
C10    C     0.32090   0.13966   0.21532   0.00000  Uiso   1.00
C11    C     0.03497   0.13881   0.21618   0.00000  Uiso   1.00
C12    C     0.14433   0.16121   0.49202   0.00000  Uiso   1.00
C13    C     0.01311   0.19456   0.28343   0.00000  Uiso   1.00
C14    C     0.29784   0.19114   0.28836   0.00000  Uiso   1.00
C15    C     0.16628   0.08682   0.25196   0.00000  Uiso   1.00
C16    C     0.19348   0.16651   0.14759   0.00000  Uiso   1.00
C17    C     0.25074   0.10873   0.01124   0.00000  Uiso   1.00
C18    C     0.21055   0.15867   0.08805   0.00000  Uiso   1.00
C19    C     0.07435   0.17312   0.44435   0.00000  Uiso   1.00
C20    C     0.06434   0.18526   0.49872   0.00000  Uiso   1.00
C21    C     0.09912   0.18233   0.02236   0.00000  Uiso   1.00
C22    C     0.26145   0.20746   0.34349   0.00000  Uiso   1.00
C23    C     0.15094   0.14433   0.43841   0.00000  Uiso   1.00
C24    C     0.23593   0.24913   0.34315   0.00000  Uiso   1.00
C25    C     0.28789   0.07302   0.48488   0.00000  Uiso   1.00
C26    C     0.32468   0.06497   0.01182   0.00000  Uiso   1.00
C27    C     0.17914   0.07844   0.37263   0.00000  Uiso   1.00
C28    C     0.16756   0.03538   0.39518   0.00000  Uiso   1.00
C29    C     0.18114   0.15266   0.01316   0.00000  Uiso   1.00
C30    C     0.21749   0.12110   0.48666   0.00000  Uiso   1.00
C31    C     0.21815   0.10071   0.43792   0.00000  Uiso   1.00
C32    C     0.18398   0.11012   0.41529   0.00000  Uiso   1.00
C33    C     0.18285   0.17415   0.06010   0.00000  Uiso   1.00
C34    C     0.24558   0.12745   0.06274   0.00000  Uiso   1.00
H35    H     0.26652   0.11605   0.08502   0.00000  Uiso   1.00
H36    H     0.23793   0.18326   0.36438   0.00000  Uiso   1.00
H37    H     0.27878   0.21198   0.37411   0.00000  Uiso   1.00
H38    H     0.00923   0.09409   0.01630   0.00000  Uiso   1.00
H39    H     0.30746   0.05199   0.05221   0.00000  Uiso   1.00
H40    H     0.01895   0.04159   0.48580   0.00000  Uiso   1.00
H41    H     0.26910   0.04371   0.48423   0.00000  Uiso   1.00
H42    H     0.30826   0.07956   0.44190   0.00000  Uiso   1.00
H43    H     0.19788   0.02121   0.40408   0.00000  Uiso   1.00
H44    H     0.13548   0.03792   0.43309   0.00000  Uiso   1.00
H45    H     0.16019   0.01417   0.36453   0.00000  Uiso   1.00
H46    H     0.24113   0.03523   0.24083   0.00000  Uiso   1.00
H47    H     0.14965   0.08731   0.35894   0.00000  Uiso   1.00
H48    H     0.21291   0.07587   0.33685   0.00000  Uiso   1.00
H49    H     0.24381   0.07545   0.41794   0.00000  Uiso   1.00
H50    H     0.16206   0.20252   0.07672   0.00000  Uiso   1.00
H51    H     0.02832   0.19615   0.02325   0.00000  Uiso   1.00
H52    H     0.24268   0.29369   0.23431   0.00000  Uiso   1.00
H53    H     0.25705   0.26690   0.30820   0.00000  Uiso   1.00
H54    H     0.19977   0.24438   0.34259   0.00000  Uiso   1.00
H55    H     0.23121   0.26846   0.38130   0.00000  Uiso   1.00
I56    I     0.05303   0.04751   0.30211   0.00000  Uiso   1.00
I57    I     0.08404   0.29282   0.19775   0.00000  Uiso   1.00
I58    I     0.30389   0.09503   0.16368   0.00000  Uiso   1.00
I59    I     0.08717   0.09511   0.16038   0.00000  Uiso   1.00
I60    I     0.03115   0.24540   0.32842   0.00000  Uiso   1.00
I61    I     0.01435   0.16455   0.42138   0.00000  Uiso   1.00
I62    I     0.06824   0.20181   0.10680   0.00000  Uiso   1.00
N63    N     0.04760   0.16668   0.25001   0.00000  Uiso   1.00
N64    N     0.28573   0.16665   0.25000   0.00000  Uiso   1.00
O65    O     0.12846   0.22775   0.25000   0.00000  Uiso   1.00
O66    O     0.20490   0.22774   0.25000   0.00000  Uiso   1.00
O67    O     0.10947   0.16666   0.32681   0.00000  Uiso   1.00
O68    O     0.18591   0.16665   0.32681   0.00000  Uiso   1.00
O69    O     0.12843   0.10559   0.24999   0.00000  Uiso   1.00
O70    O     0.20488   0.10558   0.24999   0.00000  Uiso   1.00
O71    O     0.14742   0.16668   0.17319   0.00000  Uiso   1.00
O72    O     0.22387   0.16667   0.17319   0.00000  Uiso   1.00
Zn73   Zn    0.11562   0.16667   0.25000   0.00000  Uiso   1.00
Zn74   Zn    0.21771   0.16666   0.25000   0.00000  Uiso   1.00
C75    C     0.50093   0.24626   0.24559   0.00000  Uiso   1.00
C76    C     0.45412   0.15919   0.41188   0.00000  Uiso   1.00
C77    C     0.54306   0.31066   0.23917   0.00000  Uiso   1.00
C78    C     0.47298   0.16457   0.35227   0.00000  Uiso   1.00
C79    C     0.54206   0.02003   0.24356   0.00000  Uiso   1.00
C80    C     0.49910   0.04242   0.25349   0.00000  Uiso   1.00
C81    C     0.45713   0.02169   0.25840   0.00000  Uiso   1.00
C82    C     0.46135   0.31332   0.24173   0.00000  Uiso   1.00
C83    C     0.50217   0.29040   0.23994   0.00000  Uiso   1.00
C84    C     0.65423   0.13966   0.21532   0.00000  Uiso   1.00
C85    C     0.36830   0.13881   0.21618   0.00000  Uiso   1.00
C86    C     0.47766   0.16121   0.49202   0.00000  Uiso   1.00
C87    C     0.34645   0.19456   0.28343   0.00000  Uiso   1.00
C88    C     0.63117   0.19114   0.28836   0.00000  Uiso   1.00
C89    C     0.49961   0.08682   0.25196   0.00000  Uiso   1.00
C90    C     0.52681   0.16651   0.14759   0.00000  Uiso   1.00
C91    C     0.58407   0.10873   0.01124   0.00000  Uiso   1.00
C92    C     0.54388   0.15867   0.08805   0.00000  Uiso   1.00
C93    C     0.40768   0.17312   0.44435   0.00000  Uiso   1.00
C94    C     0.39767   0.18526   0.49872   0.00000  Uiso   1.00
C95    C     0.43245   0.18233   0.02236   0.00000  Uiso   1.00
C96    C     0.59479   0.20746   0.34349   0.00000  Uiso   1.00
C97    C     0.48427   0.14433   0.43841   0.00000  Uiso   1.00
C98    C     0.56927   0.24913   0.34315   0.00000  Uiso   1.00
C99    C     0.62122   0.07302   0.48488   0.00000  Uiso   1.00
C100   C     0.65801   0.06497   0.01182   0.00000  Uiso   1.00
C101   C     0.51248   0.07844   0.37263   0.00000  Uiso   1.00
C102   C     0.50090   0.03538   0.39518   0.00000  Uiso   1.00
C103   C     0.51448   0.15266   0.01316   0.00000  Uiso   1.00
C104   C     0.55083   0.12110   0.48666   0.00000  Uiso   1.00
C105   C     0.55148   0.10071   0.43792   0.00000  Uiso   1.00
C106   C     0.51732   0.11012   0.41529   0.00000  Uiso   1.00
C107   C     0.51618   0.17415   0.06010   0.00000  Uiso   1.00
C108   C     0.57892   0.12745   0.06274   0.00000  Uiso   1.00
H109   H     0.59985   0.11605   0.08502   0.00000  Uiso   1.00
H110   H     0.57127   0.18326   0.36438   0.00000  Uiso   1.00
H111   H     0.61211   0.21198   0.37411   0.00000  Uiso   1.00
H112   H     0.34256   0.09409   0.01630   0.00000  Uiso   1.00
H113   H     0.64079   0.05199   0.05221   0.00000  Uiso   1.00
H114   H     0.35228   0.04159   0.48580   0.00000  Uiso   1.00
H115   H     0.60244   0.04371   0.48423   0.00000  Uiso   1.00
H116   H     0.64160   0.07956   0.44190   0.00000  Uiso   1.00
H117   H     0.53122   0.02121   0.40408   0.00000  Uiso   1.00
H118   H     0.46881   0.03792   0.43309   0.00000  Uiso   1.00
H119   H     0.49352   0.01417   0.36453   0.00000  Uiso   1.00
H120   H     0.57446   0.03523   0.24083   0.00000  Uiso   1.00
H121   H     0.48299   0.08731   0.35894   0.00000  Uiso   1.00
H122   H     0.54624   0.07587   0.33685   0.00000  Uiso   1.00
H123   H     0.57715   0.07545   0.41794   0.00000  Uiso   1.00
H124   H     0.49539   0.20252   0.07672   0.00000  Uiso   1.00
H125   H     0.36165   0.19615   0.02325   0.00000  Uiso   1.00
H126   H     0.57602   0.29369   0.23431   0.00000  Uiso   1.00
H127   H     0.59038   0.26690   0.30820   0.00000  Uiso   1.00
H128   H     0.53310   0.24438   0.34259   0.00000  Uiso   1.00
H129   H     0.56455   0.26846   0.38130   0.00000  Uiso   1.00
I130   I     0.38637   0.04751   0.30211   0.00000  Uiso   1.00
I131   I     0.41737   0.29282   0.19775   0.00000  Uiso   1.00
I132   I     0.63722   0.09503   0.16368   0.00000  Uiso   1.00
I133   I     0.42050   0.09511   0.16038   0.00000  Uiso   1.00
I134   I     0.36448   0.24540   0.32842   0.00000  Uiso   1.00
I135   I     0.34768   0.16455   0.42138   0.00000  Uiso   1.00
I136   I     0.40158   0.20181   0.10680   0.00000  Uiso   1.00
N137   N     0.38093   0.16668   0.25001   0.00000  Uiso   1.00
N138   N     0.61906   0.16665   0.25000   0.00000  Uiso   1.00
O139   O     0.46179   0.22775   0.25000   0.00000  Uiso   1.00
O140   O     0.53823   0.22774   0.25000   0.00000  Uiso   1.00
O141   O     0.44280   0.16666   0.32681   0.00000  Uiso   1.00
O142   O     0.51924   0.16665   0.32681   0.00000  Uiso   1.00
O143   O     0.46177   0.10559   0.24999   0.00000  Uiso   1.00
O144   O     0.53821   0.10558   0.24999   0.00000  Uiso   1.00
O145   O     0.48076   0.16668   0.17319   0.00000  Uiso   1.00
O146   O     0.55720   0.16667   0.17319   0.00000  Uiso   1.00
Zn147  Zn    0.44896   0.16667   0.25000   0.00000  Uiso   1.00
Zn148  Zn    0.55104   0.16666   0.25000   0.00000  Uiso   1.00
C149   C     0.83427   0.24626   0.24559   0.00000  Uiso   1.00
C150   C     0.78745   0.15919   0.41188   0.00000  Uiso   1.00
C151   C     0.87640   0.31066   0.23917   0.00000  Uiso   1.00
C152   C     0.80632   0.16457   0.35227   0.00000  Uiso   1.00
C153   C     0.87539   0.02003   0.24356   0.00000  Uiso   1.00
C154   C     0.83244   0.04242   0.25349   0.00000  Uiso   1.00
C155   C     0.79047   0.02169   0.25840   0.00000  Uiso   1.00
C156   C     0.79468   0.31332   0.24173   0.00000  Uiso   1.00
C157   C     0.83550   0.29040   0.23994   0.00000  Uiso   1.00
C158   C     0.98757   0.13966   0.21532   0.00000  Uiso   1.00
C159   C     0.70164   0.13881   0.21618   0.00000  Uiso   1.00
C160   C     0.81100   0.16121   0.49202   0.00000  Uiso   1.00
C161   C     0.67978   0.19456   0.28343   0.00000  Uiso   1.00
C162   C     0.96450   0.19114   0.28836   0.00000  Uiso   1.00
C163   C     0.83295   0.08682   0.25196   0.00000  Uiso   1.00
C164   C     0.86014   0.16651   0.14759   0.00000  Uiso   1.00
C165   C     0.91741   0.10873   0.01124   0.00000  Uiso   1.00
C166   C     0.87721   0.15867   0.08805   0.00000  Uiso   1.00
C167   C     0.74102   0.17312   0.44435   0.00000  Uiso   1.00
C168   C     0.73101   0.18526   0.49872   0.00000  Uiso   1.00
C169   C     0.76579   0.18233   0.02236   0.00000  Uiso   1.00
C170   C     0.92812   0.20746   0.34349   0.00000  Uiso   1.00
C171   C     0.81761   0.14433   0.43841   0.00000  Uiso   1.00
C172   C     0.90260   0.24913   0.34315   0.00000  Uiso   1.00
C173   C     0.95455   0.07302   0.48488   0.00000  Uiso   1.00
C174   C     0.99134   0.06497   0.01182   0.00000  Uiso   1.00
C175   C     0.84581   0.07844   0.37263   0.00000  Uiso   1.00
C176   C     0.83423   0.03538   0.39518   0.00000  Uiso   1.00
C177   C     0.84781   0.15266   0.01316   0.00000  Uiso   1.00
C178   C     0.88416   0.12110   0.48666   0.00000  Uiso   1.00
C179   C     0.88481   0.10071   0.43792   0.00000  Uiso   1.00
C180   C     0.85065   0.11012   0.41529   0.00000  Uiso   1.00
C181   C     0.84951   0.17415   0.06010   0.00000  Uiso   1.00
C182   C     0.91225   0.12745   0.06274   0.00000  Uiso   1.00
H183   H     0.93318   0.11605   0.08502   0.00000  Uiso   1.00
H184   H     0.90460   0.18326   0.36438   0.00000  Uiso   1.00
H185   H     0.94545   0.21198   0.37411   0.00000  Uiso   1.00
H186   H     0.67589   0.09409   0.01630   0.00000  Uiso   1.00
H187   H     0.97412   0.05199   0.05221   0.00000  Uiso   1.00
H188   H     0.68562   0.04159   0.48580   0.00000  Uiso   1.00
H189   H     0.93577   0.04371   0.48423   0.00000  Uiso   1.00
H190   H     0.97493   0.07956   0.44190   0.00000  Uiso   1.00
H191   H     0.86455   0.02121   0.40408   0.00000  Uiso   1.00
H192   H     0.80214   0.03792   0.43309   0.00000  Uiso   1.00
H193   H     0.82685   0.01417   0.36453   0.00000  Uiso   1.00
H194   H     0.90780   0.03523   0.24083   0.00000  Uiso   1.00
H195   H     0.81632   0.08731   0.35894   0.00000  Uiso   1.00
H196   H     0.87958   0.07587   0.33685   0.00000  Uiso   1.00
H197   H     0.91048   0.07545   0.41794   0.00000  Uiso   1.00
H198   H     0.82873   0.20252   0.07672   0.00000  Uiso   1.00
H199   H     0.69498   0.19615   0.02325   0.00000  Uiso   1.00
H200   H     0.90935   0.29369   0.23431   0.00000  Uiso   1.00
H201   H     0.92371   0.26690   0.30820   0.00000  Uiso   1.00
H202   H     0.86644   0.24438   0.34259   0.00000  Uiso   1.00
H203   H     0.89788   0.26846   0.38130   0.00000  Uiso   1.00
I204   I     0.71970   0.04751   0.30211   0.00000  Uiso   1.00
I205   I     0.75071   0.29282   0.19775   0.00000  Uiso   1.00
I206   I     0.97056   0.09503   0.16368   0.00000  Uiso   1.00
I207   I     0.75384   0.09511   0.16038   0.00000  Uiso   1.00
I208   I     0.69782   0.24540   0.32842   0.00000  Uiso   1.00
I209   I     0.68102   0.16455   0.42138   0.00000  Uiso   1.00
I210   I     0.73491   0.20181   0.10680   0.00000  Uiso   1.00
N211   N     0.71426   0.16668   0.25001   0.00000  Uiso   1.00
N212   N     0.95239   0.16665   0.25000   0.00000  Uiso   1.00
O213   O     0.79512   0.22775   0.25000   0.00000  Uiso   1.00
O214   O     0.87157   0.22774   0.25000   0.00000  Uiso   1.00
O215   O     0.77613   0.16666   0.32681   0.00000  Uiso   1.00
O216   O     0.85258   0.16665   0.32681   0.00000  Uiso   1.00
O217   O     0.79510   0.10559   0.24999   0.00000  Uiso   1.00
O218   O     0.87154   0.10558   0.24999   0.00000  Uiso   1.00
O219   O     0.81409   0.16668   0.17319   0.00000  Uiso   1.00
O220   O     0.89053   0.16667   0.17319   0.00000  Uiso   1.00
Zn221  Zn    0.78229   0.16667   0.25000   0.00000  Uiso   1.00
Zn222  Zn    0.88438   0.16666   0.25000   0.00000  Uiso   1.00
C223   C     0.16760   0.57959   0.24559   0.00000  Uiso   1.00
C224   C     0.12079   0.49252   0.41188   0.00000  Uiso   1.00
C225   C     0.20973   0.64399   0.23917   0.00000  Uiso   1.00
C226   C     0.13965   0.49791   0.35227   0.00000  Uiso   1.00
C227   C     0.20872   0.35336   0.24356   0.00000  Uiso   1.00
C228   C     0.16577   0.37575   0.25349   0.00000  Uiso   1.00
C229   C     0.12380   0.35502   0.25840   0.00000  Uiso   1.00
C230   C     0.12802   0.64666   0.24173   0.00000  Uiso   1.00
C231   C     0.16883   0.62373   0.23994   0.00000  Uiso   1.00
C232   C     0.32090   0.47299   0.21532   0.00000  Uiso   1.00
C233   C     0.03497   0.47214   0.21618   0.00000  Uiso   1.00
C234   C     0.14433   0.49455   0.49202   0.00000  Uiso   1.00
C235   C     0.01311   0.52789   0.28343   0.00000  Uiso   1.00
C236   C     0.29784   0.52447   0.28836   0.00000  Uiso   1.00
C237   C     0.16628   0.42015   0.25196   0.00000  Uiso   1.00
C238   C     0.19348   0.49984   0.14759   0.00000  Uiso   1.00
C239   C     0.25074   0.44206   0.01124   0.00000  Uiso   1.00
C240   C     0.21055   0.49200   0.08805   0.00000  Uiso   1.00
C241   C     0.07435   0.50646   0.44435   0.00000  Uiso   1.00
C242   C     0.06434   0.51860   0.49872   0.00000  Uiso   1.00
C243   C     0.09912   0.51566   0.02236   0.00000  Uiso   1.00
C244   C     0.26145   0.54079   0.34349   0.00000  Uiso   1.00
C245   C     0.15094   0.47766   0.43841   0.00000  Uiso   1.00
C246   C     0.23593   0.58246   0.34315   0.00000  Uiso   1.00
C247   C     0.28789   0.40635   0.48488   0.00000  Uiso   1.00
C248   C     0.32468   0.39830   0.01182   0.00000  Uiso   1.00
C249   C     0.17914   0.41178   0.37263   0.00000  Uiso   1.00
C250   C     0.16756   0.36871   0.39518   0.00000  Uiso   1.00
C251   C     0.18114   0.48599   0.01316   0.00000  Uiso   1.00
C252   C     0.21749   0.45443   0.48666   0.00000  Uiso   1.00
C253   C     0.21815   0.43404   0.43792   0.00000  Uiso   1.00
C254   C     0.18398   0.44345   0.41529   0.00000  Uiso   1.00
C255   C     0.18285   0.50749   0.06010   0.00000  Uiso   1.00
C256   C     0.24558   0.46078   0.06274   0.00000  Uiso   1.00
H257   H     0.26652   0.44939   0.08502   0.00000  Uiso   1.00
H258   H     0.23793   0.51660   0.36438   0.00000  Uiso   1.00
H259   H     0.27878   0.54531   0.37411   0.00000  Uiso   1.00
H260   H     0.00923   0.42742   0.01630   0.00000  Uiso   1.00
H261   H     0.30746   0.38532   0.05221   0.00000  Uiso   1.00
H262   H     0.01895   0.37492   0.48580   0.00000  Uiso   1.00
H263   H     0.26910   0.37705   0.48423   0.00000  Uiso   1.00
H264   H     0.30826   0.41289   0.44190   0.00000  Uiso   1.00
H265   H     0.19788   0.35454   0.40408   0.00000  Uiso   1.00
H266   H     0.13548   0.37125   0.43309   0.00000  Uiso   1.00
H267   H     0.16019   0.34750   0.36453   0.00000  Uiso   1.00
H268   H     0.24113   0.36856   0.24083   0.00000  Uiso   1.00
H269   H     0.14965   0.42065   0.35894   0.00000  Uiso   1.00
H270   H     0.21291   0.40920   0.33685   0.00000  Uiso   1.00
H271   H     0.24381   0.40878   0.41794   0.00000  Uiso   1.00
H272   H     0.16206   0.53585   0.07672   0.00000  Uiso   1.00
H273   H     0.02832   0.52949   0.02325   0.00000  Uiso   1.00
H274   H     0.24268   0.62703   0.23431   0.00000  Uiso   1.00
H275   H     0.25705   0.60024   0.30820   0.00000  Uiso   1.00
H276   H     0.19977   0.57771   0.34259   0.00000  Uiso   1.00
H277   H     0.23121   0.60180   0.38130   0.00000  Uiso   1.00
I278   I     0.05303   0.38084   0.30211   0.00000  Uiso   1.00
I279   I     0.08404   0.62615   0.19775   0.00000  Uiso   1.00
I280   I     0.30389   0.42836   0.16368   0.00000  Uiso   1.00
I281   I     0.08717   0.42845   0.16038   0.00000  Uiso   1.00
I282   I     0.03115   0.57873   0.32842   0.00000  Uiso   1.00
I283   I     0.01435   0.49789   0.42138   0.00000  Uiso   1.00
I284   I     0.06824   0.53514   0.10680   0.00000  Uiso   1.00
N285   N     0.04760   0.50001   0.25001   0.00000  Uiso   1.00
N286   N     0.28573   0.49998   0.25000   0.00000  Uiso   1.00
O287   O     0.12846   0.56108   0.25000   0.00000  Uiso   1.00
O288   O     0.20490   0.56107   0.25000   0.00000  Uiso   1.00
O289   O     0.10947   0.50000   0.32681   0.00000  Uiso   1.00
O290   O     0.18591   0.49999   0.32681   0.00000  Uiso   1.00
O291   O     0.12843   0.43893   0.24999   0.00000  Uiso   1.00
O292   O     0.20488   0.43892   0.24999   0.00000  Uiso   1.00
O293   O     0.14742   0.50001   0.17319   0.00000  Uiso   1.00
O294   O     0.22387   0.50000   0.17319   0.00000  Uiso   1.00
Zn295  Zn    0.11562   0.50001   0.25000   0.00000  Uiso   1.00
Zn296  Zn    0.21771   0.49999   0.25000   0.00000  Uiso   1.00
C297   C     0.50093   0.57959   0.24559   0.00000  Uiso   1.00
C298   C     0.45412   0.49252   0.41188   0.00000  Uiso   1.00
C299   C     0.54306   0.64399   0.23917   0.00000  Uiso   1.00
C300   C     0.47298   0.49791   0.35227   0.00000  Uiso   1.00
C301   C     0.54206   0.35336   0.24356   0.00000  Uiso   1.00
C302   C     0.49910   0.37575   0.25349   0.00000  Uiso   1.00
C303   C     0.45713   0.35502   0.25840   0.00000  Uiso   1.00
C304   C     0.46135   0.64666   0.24173   0.00000  Uiso   1.00
C305   C     0.50217   0.62373   0.23994   0.00000  Uiso   1.00
C306   C     0.65423   0.47299   0.21532   0.00000  Uiso   1.00
C307   C     0.36830   0.47214   0.21618   0.00000  Uiso   1.00
C308   C     0.47766   0.49455   0.49202   0.00000  Uiso   1.00
C309   C     0.34645   0.52789   0.28343   0.00000  Uiso   1.00
C310   C     0.63117   0.52447   0.28836   0.00000  Uiso   1.00
C311   C     0.49961   0.42015   0.25196   0.00000  Uiso   1.00
C312   C     0.52681   0.49984   0.14759   0.00000  Uiso   1.00
C313   C     0.58407   0.44206   0.01124   0.00000  Uiso   1.00
C314   C     0.54388   0.49200   0.08805   0.00000  Uiso   1.00
C315   C     0.40768   0.50646   0.44435   0.00000  Uiso   1.00
C316   C     0.39767   0.51860   0.49872   0.00000  Uiso   1.00
C317   C     0.43245   0.51566   0.02236   0.00000  Uiso   1.00
C318   C     0.59479   0.54079   0.34349   0.00000  Uiso   1.00
C319   C     0.48427   0.47766   0.43841   0.00000  Uiso   1.00
C320   C     0.56927   0.58246   0.34315   0.00000  Uiso   1.00
C321   C     0.62122   0.40635   0.48488   0.00000  Uiso   1.00
C322   C     0.65801   0.39830   0.01182   0.00000  Uiso   1.00
C323   C     0.51248   0.41178   0.37263   0.00000  Uiso   1.00
C324   C     0.50090   0.36871   0.39518   0.00000  Uiso   1.00
C325   C     0.51448   0.48599   0.01316   0.00000  Uiso   1.00
C326   C     0.55083   0.45443   0.48666   0.00000  Uiso   1.00
C327   C     0.55148   0.43404   0.43792   0.00000  Uiso   1.00
C328   C     0.51732   0.44345   0.41529   0.00000  Uiso   1.00
C329   C     0.51618   0.50749   0.06010   0.00000  Uiso   1.00
C330   C     0.57892   0.46078   0.06274   0.00000  Uiso   1.00
H331   H     0.59985   0.44939   0.08502   0.00000  Uiso   1.00
H332   H     0.57127   0.51660   0.36438   0.00000  Uiso   1.00
H333   H     0.61211   0.54531   0.37411   0.00000  Uiso   1.00
H334   H     0.34256   0.42742   0.01630   0.00000  Uiso   1.00
H335   H     0.64079   0.38532   0.05221   0.00000  Uiso   1.00
H336   H     0.35228   0.37492   0.48580   0.00000  Uiso   1.00
H337   H     0.60244   0.37705   0.48423   0.00000  Uiso   1.00
H338   H     0.64160   0.41289   0.44190   0.00000  Uiso   1.00
H339   H     0.53122   0.35454   0.40408   0.00000  Uiso   1.00
H340   H     0.46881   0.37125   0.43309   0.00000  Uiso   1.00
H341   H     0.49352   0.34750   0.36453   0.00000  Uiso   1.00
H342   H     0.57446   0.36856   0.24083   0.00000  Uiso   1.00
H343   H     0.48299   0.42065   0.35894   0.00000  Uiso   1.00
H344   H     0.54624   0.40920   0.33685   0.00000  Uiso   1.00
H345   H     0.57715   0.40878   0.41794   0.00000  Uiso   1.00
H346   H     0.49539   0.53585   0.07672   0.00000  Uiso   1.00
H347   H     0.36165   0.52949   0.02325   0.00000  Uiso   1.00
H348   H     0.57602   0.62703   0.23431   0.00000  Uiso   1.00
H349   H     0.59038   0.60024   0.30820   0.00000  Uiso   1.00
H350   H     0.53310   0.57771   0.34259   0.00000  Uiso   1.00
H351   H     0.56455   0.60180   0.38130   0.00000  Uiso   1.00
I352   I     0.38637   0.38084   0.30211   0.00000  Uiso   1.00
I353   I     0.41737   0.62615   0.19775   0.00000  Uiso   1.00
I354   I     0.63722   0.42836   0.16368   0.00000  Uiso   1.00
I355   I     0.42050   0.42845   0.16038   0.00000  Uiso   1.00
I356   I     0.36448   0.57873   0.32842   0.00000  Uiso   1.00
I357   I     0.34768   0.49789   0.42138   0.00000  Uiso   1.00
I358   I     0.40158   0.53514   0.10680   0.00000  Uiso   1.00
N359   N     0.38093   0.50001   0.25001   0.00000  Uiso   1.00
N360   N     0.61906   0.49998   0.25000   0.00000  Uiso   1.00
O361   O     0.46179   0.56108   0.25000   0.00000  Uiso   1.00
O362   O     0.53823   0.56107   0.25000   0.00000  Uiso   1.00
O363   O     0.44280   0.50000   0.32681   0.00000  Uiso   1.00
O364   O     0.51924   0.49999   0.32681   0.00000  Uiso   1.00
O365   O     0.46177   0.43893   0.24999   0.00000  Uiso   1.00
O366   O     0.53821   0.43892   0.24999   0.00000  Uiso   1.00
O367   O     0.48076   0.50001   0.17319   0.00000  Uiso   1.00
O368   O     0.55720   0.50000   0.17319   0.00000  Uiso   1.00
Zn369  Zn    0.44896   0.50001   0.25000   0.00000  Uiso   1.00
Zn370  Zn    0.55104   0.49999   0.25000   0.00000  Uiso   1.00
C371   C     0.83427   0.57959   0.24559   0.00000  Uiso   1.00
C372   C     0.78745   0.49252   0.41188   0.00000  Uiso   1.00
C373   C     0.87640   0.64399   0.23917   0.00000  Uiso   1.00
C374   C     0.80632   0.49791   0.35227   0.00000  Uiso   1.00
C375   C     0.87539   0.35336   0.24356   0.00000  Uiso   1.00
C376   C     0.83244   0.37575   0.25349   0.00000  Uiso   1.00
C377   C     0.79047   0.35502   0.25840   0.00000  Uiso   1.00
C378   C     0.79468   0.64666   0.24173   0.00000  Uiso   1.00
C379   C     0.83550   0.62373   0.23994   0.00000  Uiso   1.00
C380   C     0.98757   0.47299   0.21532   0.00000  Uiso   1.00
C381   C     0.70164   0.47214   0.21618   0.00000  Uiso   1.00
C382   C     0.81100   0.49455   0.49202   0.00000  Uiso   1.00
C383   C     0.67978   0.52789   0.28343   0.00000  Uiso   1.00
C384   C     0.96450   0.52447   0.28836   0.00000  Uiso   1.00
C385   C     0.83295   0.42015   0.25196   0.00000  Uiso   1.00
C386   C     0.86014   0.49984   0.14759   0.00000  Uiso   1.00
C387   C     0.91741   0.44206   0.01124   0.00000  Uiso   1.00
C388   C     0.87721   0.49200   0.08805   0.00000  Uiso   1.00
C389   C     0.74102   0.50646   0.44435   0.00000  Uiso   1.00
C390   C     0.73101   0.51860   0.49872   0.00000  Uiso   1.00
C391   C     0.76579   0.51566   0.02236   0.00000  Uiso   1.00
C392   C     0.92812   0.54079   0.34349   0.00000  Uiso   1.00
C393   C     0.81761   0.47766   0.43841   0.00000  Uiso   1.00
C394   C     0.90260   0.58246   0.34315   0.00000  Uiso   1.00
C395   C     0.95455   0.40635   0.48488   0.00000  Uiso   1.00
C396   C     0.99134   0.39830   0.01182   0.00000  Uiso   1.00
C397   C     0.84581   0.41178   0.37263   0.00000  Uiso   1.00
C398   C     0.83423   0.36871   0.39518   0.00000  Uiso   1.00
C399   C     0.84781   0.48599   0.01316   0.00000  Uiso   1.00
C400   C     0.88416   0.45443   0.48666   0.00000  Uiso   1.00
C401   C     0.88481   0.43404   0.43792   0.00000  Uiso   1.00
C402   C     0.85065   0.44345   0.41529   0.00000  Uiso   1.00
C403   C     0.84951   0.50749   0.06010   0.00000  Uiso   1.00
C404   C     0.91225   0.46078   0.06274   0.00000  Uiso   1.00
H405   H     0.93318   0.44939   0.08502   0.00000  Uiso   1.00
H406   H     0.90460   0.51660   0.36438   0.00000  Uiso   1.00
H407   H     0.94545   0.54531   0.37411   0.00000  Uiso   1.00
H408   H     0.67589   0.42742   0.01630   0.00000  Uiso   1.00
H409   H     0.97412   0.38532   0.05221   0.00000  Uiso   1.00
H410   H     0.68562   0.37492   0.48580   0.00000  Uiso   1.00
H411   H     0.93577   0.37705   0.48423   0.00000  Uiso   1.00
H412   H     0.97493   0.41289   0.44190   0.00000  Uiso   1.00
H413   H     0.86455   0.35454   0.40408   0.00000  Uiso   1.00
H414   H     0.80214   0.37125   0.43309   0.00000  Uiso   1.00
H415   H     0.82685   0.34750   0.36453   0.00000  Uiso   1.00
H416   H     0.90780   0.36856   0.24083   0.00000  Uiso   1.00
H417   H     0.81632   0.42065   0.35894   0.00000  Uiso   1.00
H418   H     0.87958   0.40920   0.33685   0.00000  Uiso   1.00
H419   H     0.91048   0.40878   0.41794   0.00000  Uiso   1.00
H420   H     0.82873   0.53585   0.07672   0.00000  Uiso   1.00
H421   H     0.69498   0.52949   0.02325   0.00000  Uiso   1.00
H422   H     0.90935   0.62703   0.23431   0.00000  Uiso   1.00
H423   H     0.92371   0.60024   0.30820   0.00000  Uiso   1.00
H424   H     0.86644   0.57771   0.34259   0.00000  Uiso   1.00
H425   H     0.89788   0.60180   0.38130   0.00000  Uiso   1.00
I426   I     0.71970   0.38084   0.30211   0.00000  Uiso   1.00
I427   I     0.75071   0.62615   0.19775   0.00000  Uiso   1.00
I428   I     0.97056   0.42836   0.16368   0.00000  Uiso   1.00
I429   I     0.75384   0.42845   0.16038   0.00000  Uiso   1.00
I430   I     0.69782   0.57873   0.32842   0.00000  Uiso   1.00
I431   I     0.68102   0.49789   0.42138   0.00000  Uiso   1.00
I432   I     0.73491   0.53514   0.10680   0.00000  Uiso   1.00
N433   N     0.71426   0.50001   0.25001   0.00000  Uiso   1.00
N434   N     0.95239   0.49998   0.25000   0.00000  Uiso   1.00
O435   O     0.79512   0.56108   0.25000   0.00000  Uiso   1.00
O436   O     0.87157   0.56107   0.25000   0.00000  Uiso   1.00
O437   O     0.77613   0.50000   0.32681   0.00000  Uiso   1.00
O438   O     0.85258   0.49999   0.32681   0.00000  Uiso   1.00
O439   O     0.79510   0.43893   0.24999   0.00000  Uiso   1.00
O440   O     0.87154   0.43892   0.24999   0.00000  Uiso   1.00
O441   O     0.81409   0.50001   0.17319   0.00000  Uiso   1.00
O442   O     0.89053   0.50000   0.17319   0.00000  Uiso   1.00
Zn443  Zn    0.78229   0.50001   0.25000   0.00000  Uiso   1.00
Zn444  Zn    0.88438   0.49999   0.25000   0.00000  Uiso   1.00
C445   C     0.16760   0.91292   0.24559   0.00000  Uiso   1.00
C446   C     0.12079   0.82586   0.41188   0.00000  Uiso   1.00
C447   C     0.20973   0.97732   0.23917   0.00000  Uiso   1.00
C448   C     0.13965   0.83124   0.35227   0.00000  Uiso   1.00
C449   C     0.20872   0.68670   0.24356   0.00000  Uiso   1.00
C450   C     0.16577   0.70908   0.25349   0.00000  Uiso   1.00
C451   C     0.12380   0.68835   0.25840   0.00000  Uiso   1.00
C452   C     0.12802   0.97999   0.24173   0.00000  Uiso   1.00
C453   C     0.16883   0.95707   0.23994   0.00000  Uiso   1.00
C454   C     0.32090   0.80633   0.21532   0.00000  Uiso   1.00
C455   C     0.03497   0.80547   0.21618   0.00000  Uiso   1.00
C456   C     0.14433   0.82788   0.49202   0.00000  Uiso   1.00
C457   C     0.01311   0.86123   0.28343   0.00000  Uiso   1.00
C458   C     0.29784   0.85780   0.28836   0.00000  Uiso   1.00
C459   C     0.16628   0.75348   0.25196   0.00000  Uiso   1.00
C460   C     0.19348   0.83317   0.14759   0.00000  Uiso   1.00
C461   C     0.25074   0.77540   0.01124   0.00000  Uiso   1.00
C462   C     0.21055   0.82534   0.08805   0.00000  Uiso   1.00
C463   C     0.07435   0.83979   0.44435   0.00000  Uiso   1.00
C464   C     0.06434   0.85193   0.49872   0.00000  Uiso   1.00
C465   C     0.09912   0.84899   0.02236   0.00000  Uiso   1.00
C466   C     0.26145   0.87412   0.34349   0.00000  Uiso   1.00
C467   C     0.15094   0.81099   0.43841   0.00000  Uiso   1.00
C468   C     0.23593   0.91580   0.34315   0.00000  Uiso   1.00
C469   C     0.28789   0.73969   0.48488   0.00000  Uiso   1.00
C470   C     0.32468   0.73164   0.01182   0.00000  Uiso   1.00
C471   C     0.17914   0.74511   0.37263   0.00000  Uiso   1.00
C472   C     0.16756   0.70205   0.39518   0.00000  Uiso   1.00
C473   C     0.18114   0.81933   0.01316   0.00000  Uiso   1.00
C474   C     0.21749   0.78777   0.48666   0.00000  Uiso   1.00
C475   C     0.21815   0.76737   0.43792   0.00000  Uiso   1.00
C476   C     0.18398   0.77679   0.41529   0.00000  Uiso   1.00
C477   C     0.18285   0.84082   0.06010   0.00000  Uiso   1.00
C478   C     0.24558   0.79412   0.06274   0.00000  Uiso   1.00
H479   H     0.26652   0.78272   0.08502   0.00000  Uiso   1.00
H480   H     0.23793   0.84993   0.36438   0.00000  Uiso   1.00
H481   H     0.27878   0.87865   0.37411   0.00000  Uiso   1.00
H482   H     0.00923   0.76076   0.01630   0.00000  Uiso   1.00
H483   H     0.30746   0.71866   0.05221   0.00000  Uiso   1.00
H484   H     0.01895   0.70826   0.48580   0.00000  Uiso   1.00
H485   H     0.26910   0.71038   0.48423   0.00000  Uiso   1.00
H486   H     0.30826   0.74622   0.44190   0.00000  Uiso   1.00
H487   H     0.19788   0.68787   0.40408   0.00000  Uiso   1.00
H488   H     0.13548   0.70459   0.43309   0.00000  Uiso   1.00
H489   H     0.16019   0.68084   0.36453   0.00000  Uiso   1.00
H490   H     0.24113   0.70189   0.24083   0.00000  Uiso   1.00
H491   H     0.14965   0.75398   0.35894   0.00000  Uiso   1.00
H492   H     0.21291   0.74254   0.33685   0.00000  Uiso   1.00
H493   H     0.24381   0.74212   0.41794   0.00000  Uiso   1.00
H494   H     0.16206   0.86919   0.07672   0.00000  Uiso   1.00
H495   H     0.02832   0.86282   0.02325   0.00000  Uiso   1.00
H496   H     0.24268   0.96036   0.23431   0.00000  Uiso   1.00
H497   H     0.25705   0.93357   0.30820   0.00000  Uiso   1.00
H498   H     0.19977   0.91105   0.34259   0.00000  Uiso   1.00
H499   H     0.23121   0.93513   0.38130   0.00000  Uiso   1.00
I500   I     0.05303   0.71418   0.30211   0.00000  Uiso   1.00
I501   I     0.08404   0.95948   0.19775   0.00000  Uiso   1.00
I502   I     0.30389   0.76170   0.16368   0.00000  Uiso   1.00
I503   I     0.08717   0.76178   0.16038   0.00000  Uiso   1.00
I504   I     0.03115   0.91207   0.32842   0.00000  Uiso   1.00
I505   I     0.01435   0.83122   0.42138   0.00000  Uiso   1.00
I506   I     0.06824   0.86847   0.10680   0.00000  Uiso   1.00
N507   N     0.04760   0.83334   0.25001   0.00000  Uiso   1.00
N508   N     0.28573   0.83331   0.25000   0.00000  Uiso   1.00
O509   O     0.12846   0.89442   0.25000   0.00000  Uiso   1.00
O510   O     0.20490   0.89441   0.25000   0.00000  Uiso   1.00
O511   O     0.10947   0.83333   0.32681   0.00000  Uiso   1.00
O512   O     0.18591   0.83332   0.32681   0.00000  Uiso   1.00
O513   O     0.12843   0.77226   0.24999   0.00000  Uiso   1.00
O514   O     0.20488   0.77225   0.24999   0.00000  Uiso   1.00
O515   O     0.14742   0.83335   0.17319   0.00000  Uiso   1.00
O516   O     0.22387   0.83334   0.17319   0.00000  Uiso   1.00
Zn517  Zn    0.11562   0.83334   0.25000   0.00000  Uiso   1.00
Zn518  Zn    0.21771   0.83333   0.25000   0.00000  Uiso   1.00
C519   C     0.50093   0.91292   0.24559   0.00000  Uiso   1.00
C520   C     0.45412   0.82586   0.41188   0.00000  Uiso   1.00
C521   C     0.54306   0.97732   0.23917   0.00000  Uiso   1.00
C522   C     0.47298   0.83124   0.35227   0.00000  Uiso   1.00
C523   C     0.54206   0.68670   0.24356   0.00000  Uiso   1.00
C524   C     0.49910   0.70908   0.25349   0.00000  Uiso   1.00
C525   C     0.45713   0.68835   0.25840   0.00000  Uiso   1.00
C526   C     0.46135   0.97999   0.24173   0.00000  Uiso   1.00
C527   C     0.50217   0.95707   0.23994   0.00000  Uiso   1.00
C528   C     0.65423   0.80633   0.21532   0.00000  Uiso   1.00
C529   C     0.36830   0.80547   0.21618   0.00000  Uiso   1.00
C530   C     0.47766   0.82788   0.49202   0.00000  Uiso   1.00
C531   C     0.34645   0.86123   0.28343   0.00000  Uiso   1.00
C532   C     0.63117   0.85780   0.28836   0.00000  Uiso   1.00
C533   C     0.49961   0.75348   0.25196   0.00000  Uiso   1.00
C534   C     0.52681   0.83317   0.14759   0.00000  Uiso   1.00
C535   C     0.58407   0.77540   0.01124   0.00000  Uiso   1.00
C536   C     0.54388   0.82534   0.08805   0.00000  Uiso   1.00
C537   C     0.40768   0.83979   0.44435   0.00000  Uiso   1.00
C538   C     0.39767   0.85193   0.49872   0.00000  Uiso   1.00
C539   C     0.43245   0.84899   0.02236   0.00000  Uiso   1.00
C540   C     0.59479   0.87412   0.34349   0.00000  Uiso   1.00
C541   C     0.48427   0.81099   0.43841   0.00000  Uiso   1.00
C542   C     0.56927   0.91580   0.34315   0.00000  Uiso   1.00
C543   C     0.62122   0.73969   0.48488   0.00000  Uiso   1.00
C544   C     0.65801   0.73164   0.01182   0.00000  Uiso   1.00
C545   C     0.51248   0.74511   0.37263   0.00000  Uiso   1.00
C546   C     0.50090   0.70205   0.39518   0.00000  Uiso   1.00
C547   C     0.51448   0.81933   0.01316   0.00000  Uiso   1.00
C548   C     0.55083   0.78777   0.48666   0.00000  Uiso   1.00
C549   C     0.55148   0.76737   0.43792   0.00000  Uiso   1.00
C550   C     0.51732   0.77679   0.41529   0.00000  Uiso   1.00
C551   C     0.51618   0.84082   0.06010   0.00000  Uiso   1.00
C552   C     0.57892   0.79412   0.06274   0.00000  Uiso   1.00
H553   H     0.59985   0.78272   0.08502   0.00000  Uiso   1.00
H554   H     0.57127   0.84993   0.36438   0.00000  Uiso   1.00
H555   H     0.61211   0.87865   0.37411   0.00000  Uiso   1.00
H556   H     0.34256   0.76076   0.01630   0.00000  Uiso   1.00
H557   H     0.64079   0.71866   0.05221   0.00000  Uiso   1.00
H558   H     0.35228   0.70826   0.48580   0.00000  Uiso   1.00
H559   H     0.60244   0.71038   0.48423   0.00000  Uiso   1.00
H560   H     0.64160   0.74622   0.44190   0.00000  Uiso   1.00
H561   H     0.53122   0.68787   0.40408   0.00000  Uiso   1.00
H562   H     0.46881   0.70459   0.43309   0.00000  Uiso   1.00
H563   H     0.49352   0.68084   0.36453   0.00000  Uiso   1.00
H564   H     0.57446   0.70189   0.24083   0.00000  Uiso   1.00
H565   H     0.48299   0.75398   0.35894   0.00000  Uiso   1.00
H566   H     0.54624   0.74254   0.33685   0.00000  Uiso   1.00
H567   H     0.57715   0.74212   0.41794   0.00000  Uiso   1.00
H568   H     0.49539   0.86919   0.07672   0.00000  Uiso   1.00
H569   H     0.36165   0.86282   0.02325   0.00000  Uiso   1.00
H570   H     0.57602   0.96036   0.23431   0.00000  Uiso   1.00
H571   H     0.59038   0.93357   0.30820   0.00000  Uiso   1.00
H572   H     0.53310   0.91105   0.34259   0.00000  Uiso   1.00
H573   H     0.56455   0.93513   0.38130   0.00000  Uiso   1.00
I574   I     0.38637   0.71418   0.30211   0.00000  Uiso   1.00
I575   I     0.41737   0.95948   0.19775   0.00000  Uiso   1.00
I576   I     0.63722   0.76170   0.16368   0.00000  Uiso   1.00
I577   I     0.42050   0.76178   0.16038   0.00000  Uiso   1.00
I578   I     0.36448   0.91207   0.32842   0.00000  Uiso   1.00
I579   I     0.34768   0.83122   0.42138   0.00000  Uiso   1.00
I580   I     0.40158   0.86847   0.10680   0.00000  Uiso   1.00
N581   N     0.38093   0.83334   0.25001   0.00000  Uiso   1.00
N582   N     0.61906   0.83331   0.25000   0.00000  Uiso   1.00
O583   O     0.46179   0.89442   0.25000   0.00000  Uiso   1.00
O584   O     0.53823   0.89441   0.25000   0.00000  Uiso   1.00
O585   O     0.44280   0.83333   0.32681   0.00000  Uiso   1.00
O586   O     0.51924   0.83332   0.32681   0.00000  Uiso   1.00
O587   O     0.46177   0.77226   0.24999   0.00000  Uiso   1.00
O588   O     0.53821   0.77225   0.24999   0.00000  Uiso   1.00
O589   O     0.48076   0.83335   0.17319   0.00000  Uiso   1.00
O590   O     0.55720   0.83334   0.17319   0.00000  Uiso   1.00
Zn591  Zn    0.44896   0.83334   0.25000   0.00000  Uiso   1.00
Zn592  Zn    0.55104   0.83333   0.25000   0.00000  Uiso   1.00
C593   C     0.83427   0.91292   0.24559   0.00000  Uiso   1.00
C594   C     0.78745   0.82586   0.41188   0.00000  Uiso   1.00
C595   C     0.87640   0.97732   0.23917   0.00000  Uiso   1.00
C596   C     0.80632   0.83124   0.35227   0.00000  Uiso   1.00
C597   C     0.87539   0.68670   0.24356   0.00000  Uiso   1.00
C598   C     0.83244   0.70908   0.25349   0.00000  Uiso   1.00
C599   C     0.79047   0.68835   0.25840   0.00000  Uiso   1.00
C600   C     0.79468   0.97999   0.24173   0.00000  Uiso   1.00
C601   C     0.83550   0.95707   0.23994   0.00000  Uiso   1.00
C602   C     0.98757   0.80633   0.21532   0.00000  Uiso   1.00
C603   C     0.70164   0.80547   0.21618   0.00000  Uiso   1.00
C604   C     0.81100   0.82788   0.49202   0.00000  Uiso   1.00
C605   C     0.67978   0.86123   0.28343   0.00000  Uiso   1.00
C606   C     0.96450   0.85780   0.28836   0.00000  Uiso   1.00
C607   C     0.83295   0.75348   0.25196   0.00000  Uiso   1.00
C608   C     0.86014   0.83317   0.14759   0.00000  Uiso   1.00
C609   C     0.91741   0.77540   0.01124   0.00000  Uiso   1.00
C610   C     0.87721   0.82534   0.08805   0.00000  Uiso   1.00
C611   C     0.74102   0.83979   0.44435   0.00000  Uiso   1.00
C612   C     0.73101   0.85193   0.49872   0.00000  Uiso   1.00
C613   C     0.76579   0.84899   0.02236   0.00000  Uiso   1.00
C614   C     0.92812   0.87412   0.34349   0.00000  Uiso   1.00
C615   C     0.81761   0.81099   0.43841   0.00000  Uiso   1.00
C616   C     0.90260   0.91580   0.34315   0.00000  Uiso   1.00
C617   C     0.95455   0.73969   0.48488   0.00000  Uiso   1.00
C618   C     0.99134   0.73164   0.01182   0.00000  Uiso   1.00
C619   C     0.84581   0.74511   0.37263   0.00000  Uiso   1.00
C620   C     0.83423   0.70205   0.39518   0.00000  Uiso   1.00
C621   C     0.84781   0.81933   0.01316   0.00000  Uiso   1.00
C622   C     0.88416   0.78777   0.48666   0.00000  Uiso   1.00
C623   C     0.88481   0.76737   0.43792   0.00000  Uiso   1.00
C624   C     0.85065   0.77679   0.41529   0.00000  Uiso   1.00
C625   C     0.84951   0.84082   0.06010   0.00000  Uiso   1.00
C626   C     0.91225   0.79412   0.06274   0.00000  Uiso   1.00
H627   H     0.93318   0.78272   0.08502   0.00000  Uiso   1.00
H628   H     0.90460   0.84993   0.36438   0.00000  Uiso   1.00
H629   H     0.94545   0.87865   0.37411   0.00000  Uiso   1.00
H630   H     0.67589   0.76076   0.01630   0.00000  Uiso   1.00
H631   H     0.97412   0.71866   0.05221   0.00000  Uiso   1.00
H632   H     0.68562   0.70826   0.48580   0.00000  Uiso   1.00
H633   H     0.93577   0.71038   0.48423   0.00000  Uiso   1.00
H634   H     0.97493   0.74622   0.44190   0.00000  Uiso   1.00
H635   H     0.86455   0.68787   0.40408   0.00000  Uiso   1.00
H636   H     0.80214   0.70459   0.43309   0.00000  Uiso   1.00
H637   H     0.82685   0.68084   0.36453   0.00000  Uiso   1.00
H638   H     0.90780   0.70189   0.24083   0.00000  Uiso   1.00
H639   H     0.81632   0.75398   0.35894   0.00000  Uiso   1.00
H640   H     0.87958   0.74254   0.33685   0.00000  Uiso   1.00
H641   H     0.91048   0.74212   0.41794   0.00000  Uiso   1.00
H642   H     0.82873   0.86919   0.07672   0.00000  Uiso   1.00
H643   H     0.69498   0.86282   0.02325   0.00000  Uiso   1.00
H644   H     0.90935   0.96036   0.23431   0.00000  Uiso   1.00
H645   H     0.92371   0.93357   0.30820   0.00000  Uiso   1.00
H646   H     0.86644   0.91105   0.34259   0.00000  Uiso   1.00
H647   H     0.89788   0.93513   0.38130   0.00000  Uiso   1.00
I648   I     0.71970   0.71418   0.30211   0.00000  Uiso   1.00
I649   I     0.75071   0.95948   0.19775   0.00000  Uiso   1.00
I650   I     0.97056   0.76170   0.16368   0.00000  Uiso   1.00
I651   I     0.75384   0.76178   0.16038   0.00000  Uiso   1.00
I652   I     0.69782   0.91207   0.32842   0.00000  Uiso   1.00
I653   I     0.68102   0.83122   0.42138   0.00000  Uiso   1.00
I654   I     0.73491   0.86847   0.10680   0.00000  Uiso   1.00
N655   N     0.71426   0.83334   0.25001   0.00000  Uiso   1.00
N656   N     0.95239   0.83331   0.25000   0.00000  Uiso   1.00
O657   O     0.79512   0.89442   0.25000   0.00000  Uiso   1.00
O658   O     0.87157   0.89441   0.25000   0.00000  Uiso   1.00
O659   O     0.77613   0.83333   0.32681   0.00000  Uiso   1.00
O660   O     0.85258   0.83332   0.32681   0.00000  Uiso   1.00
O661   O     0.79510   0.77226   0.24999   0.00000  Uiso   1.00
O662   O     0.87154   0.77225   0.24999   0.00000  Uiso   1.00
O663   O     0.81409   0.83335   0.17319   0.00000  Uiso   1.00
O664   O     0.89053   0.83334   0.17319   0.00000  Uiso   1.00
Zn665  Zn    0.78229   0.83334   0.25000   0.00000  Uiso   1.00
Zn666  Zn    0.88438   0.83333   0.25000   0.00000  Uiso   1.00
C667   C     0.16760   0.24626   0.74559   0.00000  Uiso   1.00
C668   C     0.12079   0.15919   0.91188   0.00000  Uiso   1.00
C669   C     0.20973   0.31066   0.73917   0.00000  Uiso   1.00
C670   C     0.13965   0.16457   0.85227   0.00000  Uiso   1.00
C671   C     0.20872   0.02003   0.74356   0.00000  Uiso   1.00
C672   C     0.16577   0.04242   0.75349   0.00000  Uiso   1.00
C673   C     0.12380   0.02169   0.75840   0.00000  Uiso   1.00
C674   C     0.12802   0.31332   0.74173   0.00000  Uiso   1.00
C675   C     0.16883   0.29040   0.73994   0.00000  Uiso   1.00
C676   C     0.32090   0.13966   0.71532   0.00000  Uiso   1.00
C677   C     0.03497   0.13881   0.71618   0.00000  Uiso   1.00
C678   C     0.14433   0.16121   0.99202   0.00000  Uiso   1.00
C679   C     0.01311   0.19456   0.78343   0.00000  Uiso   1.00
C680   C     0.29784   0.19114   0.78836   0.00000  Uiso   1.00
C681   C     0.16628   0.08682   0.75196   0.00000  Uiso   1.00
C682   C     0.19348   0.16651   0.64759   0.00000  Uiso   1.00
C683   C     0.25074   0.10873   0.51124   0.00000  Uiso   1.00
C684   C     0.21055   0.15867   0.58805   0.00000  Uiso   1.00
C685   C     0.07435   0.17312   0.94435   0.00000  Uiso   1.00
C686   C     0.06434   0.18526   0.99872   0.00000  Uiso   1.00
C687   C     0.09912   0.18233   0.52236   0.00000  Uiso   1.00
C688   C     0.26145   0.20746   0.84349   0.00000  Uiso   1.00
C689   C     0.15094   0.14433   0.93841   0.00000  Uiso   1.00
C690   C     0.23593   0.24913   0.84315   0.00000  Uiso   1.00
C691   C     0.28789   0.07302   0.98488   0.00000  Uiso   1.00
C692   C     0.32468   0.06497   0.51182   0.00000  Uiso   1.00
C693   C     0.17914   0.07844   0.87263   0.00000  Uiso   1.00
C694   C     0.16756   0.03538   0.89518   0.00000  Uiso   1.00
C695   C     0.18114   0.15266   0.51316   0.00000  Uiso   1.00
C696   C     0.21749   0.12110   0.98666   0.00000  Uiso   1.00
C697   C     0.21815   0.10071   0.93792   0.00000  Uiso   1.00
C698   C     0.18398   0.11012   0.91529   0.00000  Uiso   1.00
C699   C     0.18285   0.17415   0.56010   0.00000  Uiso   1.00
C700   C     0.24558   0.12745   0.56274   0.00000  Uiso   1.00
H701   H     0.26652   0.11605   0.58502   0.00000  Uiso   1.00
H702   H     0.23793   0.18326   0.86438   0.00000  Uiso   1.00
H703   H     0.27878   0.21198   0.87411   0.00000  Uiso   1.00
H704   H     0.00923   0.09409   0.51630   0.00000  Uiso   1.00
H705   H     0.30746   0.05199   0.55221   0.00000  Uiso   1.00
H706   H     0.01895   0.04159   0.98580   0.00000  Uiso   1.00
H707   H     0.26910   0.04371   0.98423   0.00000  Uiso   1.00
H708   H     0.30826   0.07956   0.94190   0.00000  Uiso   1.00
H709   H     0.19788   0.02121   0.90408   0.00000  Uiso   1.00
H710   H     0.13548   0.03792   0.93309   0.00000  Uiso   1.00
H711   H     0.16019   0.01417   0.86453   0.00000  Uiso   1.00
H712   H     0.24113   0.03523   0.74083   0.00000  Uiso   1.00
H713   H     0.14965   0.08731   0.85894   0.00000  Uiso   1.00
H714   H     0.21291   0.07587   0.83685   0.00000  Uiso   1.00
H715   H     0.24381   0.07545   0.91794   0.00000  Uiso   1.00
H716   H     0.16206   0.20252   0.57672   0.00000  Uiso   1.00
H717   H     0.02832   0.19615   0.52325   0.00000  Uiso   1.00
H718   H     0.24268   0.29369   0.73431   0.00000  Uiso   1.00
H719   H     0.25705   0.26690   0.80820   0.00000  Uiso   1.00
H720   H     0.19977   0.24438   0.84259   0.00000  Uiso   1.00
H721   H     0.23121   0.26846   0.88130   0.00000  Uiso   1.00
I722   I     0.05303   0.04751   0.80211   0.00000  Uiso   1.00
I723   I     0.08404   0.29282   0.69775   0.00000  Uiso   1.00
I724   I     0.30389   0.09503   0.66368   0.00000  Uiso   1.00
I725   I     0.08717   0.09511   0.66038   0.00000  Uiso   1.00
I726   I     0.03115   0.24540   0.82842   0.00000  Uiso   1.00
I727   I     0.01435   0.16455   0.92138   0.00000  Uiso   1.00
I728   I     0.06824   0.20181   0.60680   0.00000  Uiso   1.00
N729   N     0.04760   0.16668   0.75001   0.00000  Uiso   1.00
N730   N     0.28573   0.16665   0.75000   0.00000  Uiso   1.00
O731   O     0.12846   0.22775   0.75000   0.00000  Uiso   1.00
O732   O     0.20490   0.22774   0.75000   0.00000  Uiso   1.00
O733   O     0.10947   0.16666   0.82681   0.00000  Uiso   1.00
O734   O     0.18591   0.16665   0.82681   0.00000  Uiso   1.00
O735   O     0.12843   0.10559   0.74999   0.00000  Uiso   1.00
O736   O     0.20488   0.10558   0.74999   0.00000  Uiso   1.00
O737   O     0.14742   0.16668   0.67319   0.00000  Uiso   1.00
O738   O     0.22387   0.16667   0.67319   0.00000  Uiso   1.00
Zn739  Zn    0.11562   0.16667   0.75000   0.00000  Uiso   1.00
Zn740  Zn    0.21771   0.16666   0.75000   0.00000  Uiso   1.00
C741   C     0.50093   0.24626   0.74559   0.00000  Uiso   1.00
C742   C     0.45412   0.15919   0.91188   0.00000  Uiso   1.00
C743   C     0.54306   0.31066   0.73917   0.00000  Uiso   1.00
C744   C     0.47298   0.16457   0.85227   0.00000  Uiso   1.00
C745   C     0.54206   0.02003   0.74356   0.00000  Uiso   1.00
C746   C     0.49910   0.04242   0.75349   0.00000  Uiso   1.00
C747   C     0.45713   0.02169   0.75840   0.00000  Uiso   1.00
C748   C     0.46135   0.31332   0.74173   0.00000  Uiso   1.00
C749   C     0.50217   0.29040   0.73994   0.00000  Uiso   1.00
C750   C     0.65423   0.13966   0.71532   0.00000  Uiso   1.00
C751   C     0.36830   0.13881   0.71618   0.00000  Uiso   1.00
C752   C     0.47766   0.16121   0.99202   0.00000  Uiso   1.00
C753   C     0.34645   0.19456   0.78343   0.00000  Uiso   1.00
C754   C     0.63117   0.19114   0.78836   0.00000  Uiso   1.00
C755   C     0.49961   0.08682   0.75196   0.00000  Uiso   1.00
C756   C     0.52681   0.16651   0.64759   0.00000  Uiso   1.00
C757   C     0.58407   0.10873   0.51124   0.00000  Uiso   1.00
C758   C     0.54388   0.15867   0.58805   0.00000  Uiso   1.00
C759   C     0.40768   0.17312   0.94435   0.00000  Uiso   1.00
C760   C     0.39767   0.18526   0.99872   0.00000  Uiso   1.00
C761   C     0.43245   0.18233   0.52236   0.00000  Uiso   1.00
C762   C     0.59479   0.20746   0.84349   0.00000  Uiso   1.00
C763   C     0.48427   0.14433   0.93841   0.00000  Uiso   1.00
C764   C     0.56927   0.24913   0.84315   0.00000  Uiso   1.00
C765   C     0.62122   0.07302   0.98488   0.00000  Uiso   1.00
C766   C     0.65801   0.06497   0.51182   0.00000  Uiso   1.00
C767   C     0.51248   0.07844   0.87263   0.00000  Uiso   1.00
C768   C     0.50090   0.03538   0.89518   0.00000  Uiso   1.00
C769   C     0.51448   0.15266   0.51316   0.00000  Uiso   1.00
C770   C     0.55083   0.12110   0.98666   0.00000  Uiso   1.00
C771   C     0.55148   0.10071   0.93792   0.00000  Uiso   1.00
C772   C     0.51732   0.11012   0.91529   0.00000  Uiso   1.00
C773   C     0.51618   0.17415   0.56010   0.00000  Uiso   1.00
C774   C     0.57892   0.12745   0.56274   0.00000  Uiso   1.00
H775   H     0.59985   0.11605   0.58502   0.00000  Uiso   1.00
H776   H     0.57127   0.18326   0.86438   0.00000  Uiso   1.00
H777   H     0.61211   0.21198   0.87411   0.00000  Uiso   1.00
H778   H     0.34256   0.09409   0.51630   0.00000  Uiso   1.00
H779   H     0.64079   0.05199   0.55221   0.00000  Uiso   1.00
H780   H     0.35228   0.04159   0.98580   0.00000  Uiso   1.00
H781   H     0.60244   0.04371   0.98423   0.00000  Uiso   1.00
H782   H     0.64160   0.07956   0.94190   0.00000  Uiso   1.00
H783   H     0.53122   0.02121   0.90408   0.00000  Uiso   1.00
H784   H     0.46881   0.03792   0.93309   0.00000  Uiso   1.00
H785   H     0.49352   0.01417   0.86453   0.00000  Uiso   1.00
H786   H     0.57446   0.03523   0.74083   0.00000  Uiso   1.00
H787   H     0.48299   0.08731   0.85894   0.00000  Uiso   1.00
H788   H     0.54624   0.07587   0.83685   0.00000  Uiso   1.00
H789   H     0.57715   0.07545   0.91794   0.00000  Uiso   1.00
H790   H     0.49539   0.20252   0.57672   0.00000  Uiso   1.00
H791   H     0.36165   0.19615   0.52325   0.00000  Uiso   1.00
H792   H     0.57602   0.29369   0.73431   0.00000  Uiso   1.00
H793   H     0.59038   0.26690   0.80820   0.00000  Uiso   1.00
H794   H     0.53310   0.24438   0.84259   0.00000  Uiso   1.00
H795   H     0.56455   0.26846   0.88130   0.00000  Uiso   1.00
I796   I     0.38637   0.04751   0.80211   0.00000  Uiso   1.00
I797   I     0.41737   0.29282   0.69775   0.00000  Uiso   1.00
I798   I     0.63722   0.09503   0.66368   0.00000  Uiso   1.00
I799   I     0.42050   0.09511   0.66038   0.00000  Uiso   1.00
I800   I     0.36448   0.24540   0.82842   0.00000  Uiso   1.00
I801   I     0.34768   0.16455   0.92138   0.00000  Uiso   1.00
I802   I     0.40158   0.20181   0.60680   0.00000  Uiso   1.00
N803   N     0.38093   0.16668   0.75001   0.00000  Uiso   1.00
N804   N     0.61906   0.16665   0.75000   0.00000  Uiso   1.00
O805   O     0.46179   0.22775   0.75000   0.00000  Uiso   1.00
O806   O     0.53823   0.22774   0.75000   0.00000  Uiso   1.00
O807   O     0.44280   0.16666   0.82681   0.00000  Uiso   1.00
O808   O     0.51924   0.16665   0.82681   0.00000  Uiso   1.00
O809   O     0.46177   0.10559   0.74999   0.00000  Uiso   1.00
O810   O     0.53821   0.10558   0.74999   0.00000  Uiso   1.00
O811   O     0.48076   0.16668   0.67319   0.00000  Uiso   1.00
O812   O     0.55720   0.16667   0.67319   0.00000  Uiso   1.00
Zn813  Zn    0.44896   0.16667   0.75000   0.00000  Uiso   1.00
Zn814  Zn    0.55104   0.16666   0.75000   0.00000  Uiso   1.00
C815   C     0.83427   0.24626   0.74559   0.00000  Uiso   1.00
C816   C     0.78745   0.15919   0.91188   0.00000  Uiso   1.00
C817   C     0.87640   0.31066   0.73917   0.00000  Uiso   1.00
C818   C     0.80632   0.16457   0.85227   0.00000  Uiso   1.00
C819   C     0.87539   0.02003   0.74356   0.00000  Uiso   1.00
C820   C     0.83244   0.04242   0.75349   0.00000  Uiso   1.00
C821   C     0.79047   0.02169   0.75840   0.00000  Uiso   1.00
C822   C     0.79468   0.31332   0.74173   0.00000  Uiso   1.00
C823   C     0.83550   0.29040   0.73994   0.00000  Uiso   1.00
C824   C     0.98757   0.13966   0.71532   0.00000  Uiso   1.00
C825   C     0.70164   0.13881   0.71618   0.00000  Uiso   1.00
C826   C     0.81100   0.16121   0.99202   0.00000  Uiso   1.00
C827   C     0.67978   0.19456   0.78343   0.00000  Uiso   1.00
C828   C     0.96450   0.19114   0.78836   0.00000  Uiso   1.00
C829   C     0.83295   0.08682   0.75196   0.00000  Uiso   1.00
C830   C     0.86014   0.16651   0.64759   0.00000  Uiso   1.00
C831   C     0.91741   0.10873   0.51124   0.00000  Uiso   1.00
C832   C     0.87721   0.15867   0.58805   0.00000  Uiso   1.00
C833   C     0.74102   0.17312   0.94435   0.00000  Uiso   1.00
C834   C     0.73101   0.18526   0.99872   0.00000  Uiso   1.00
C835   C     0.76579   0.18233   0.52236   0.00000  Uiso   1.00
C836   C     0.92812   0.20746   0.84349   0.00000  Uiso   1.00
C837   C     0.81761   0.14433   0.93841   0.00000  Uiso   1.00
C838   C     0.90260   0.24913   0.84315   0.00000  Uiso   1.00
C839   C     0.95455   0.07302   0.98488   0.00000  Uiso   1.00
C840   C     0.99134   0.06497   0.51182   0.00000  Uiso   1.00
C841   C     0.84581   0.07844   0.87263   0.00000  Uiso   1.00
C842   C     0.83423   0.03538   0.89518   0.00000  Uiso   1.00
C843   C     0.84781   0.15266   0.51316   0.00000  Uiso   1.00
C844   C     0.88416   0.12110   0.98666   0.00000  Uiso   1.00
C845   C     0.88481   0.10071   0.93792   0.00000  Uiso   1.00
C846   C     0.85065   0.11012   0.91529   0.00000  Uiso   1.00
C847   C     0.84951   0.17415   0.56010   0.00000  Uiso   1.00
C848   C     0.91225   0.12745   0.56274   0.00000  Uiso   1.00
H849   H     0.93318   0.11605   0.58502   0.00000  Uiso   1.00
H850   H     0.90460   0.18326   0.86438   0.00000  Uiso   1.00
H851   H     0.94545   0.21198   0.87411   0.00000  Uiso   1.00
H852   H     0.67589   0.09409   0.51630   0.00000  Uiso   1.00
H853   H     0.97412   0.05199   0.55221   0.00000  Uiso   1.00
H854   H     0.68562   0.04159   0.98580   0.00000  Uiso   1.00
H855   H     0.93577   0.04371   0.98423   0.00000  Uiso   1.00
H856   H     0.97493   0.07956   0.94190   0.00000  Uiso   1.00
H857   H     0.86455   0.02121   0.90408   0.00000  Uiso   1.00
H858   H     0.80214   0.03792   0.93309   0.00000  Uiso   1.00
H859   H     0.82685   0.01417   0.86453   0.00000  Uiso   1.00
H860   H     0.90780   0.03523   0.74083   0.00000  Uiso   1.00
H861   H     0.81632   0.08731   0.85894   0.00000  Uiso   1.00
H862   H     0.87958   0.07587   0.83685   0.00000  Uiso   1.00
H863   H     0.91048   0.07545   0.91794   0.00000  Uiso   1.00
H864   H     0.82873   0.20252   0.57672   0.00000  Uiso   1.00
H865   H     0.69498   0.19615   0.52325   0.00000  Uiso   1.00
H866   H     0.90935   0.29369   0.73431   0.00000  Uiso   1.00
H867   H     0.92371   0.26690   0.80820   0.00000  Uiso   1.00
H868   H     0.86644   0.24438   0.84259   0.00000  Uiso   1.00
H869   H     0.89788   0.26846   0.88130   0.00000  Uiso   1.00
I870   I     0.71970   0.04751   0.80211   0.00000  Uiso   1.00
I871   I     0.75071   0.29282   0.69775   0.00000  Uiso   1.00
I872   I     0.97056   0.09503   0.66368   0.00000  Uiso   1.00
I873   I     0.75384   0.09511   0.66038   0.00000  Uiso   1.00
I874   I     0.69782   0.24540   0.82842   0.00000  Uiso   1.00
I875   I     0.68102   0.16455   0.92138   0.00000  Uiso   1.00
I876   I     0.73491   0.20181   0.60680   0.00000  Uiso   1.00
N877   N     0.71426   0.16668   0.75001   0.00000  Uiso   1.00
N878   N     0.95239   0.16665   0.75000   0.00000  Uiso   1.00
O879   O     0.79512   0.22775   0.75000   0.00000  Uiso   1.00
O880   O     0.87157   0.22774   0.75000   0.00000  Uiso   1.00
O881   O     0.77613   0.16666   0.82681   0.00000  Uiso   1.00
O882   O     0.85258   0.16665   0.82681   0.00000  Uiso   1.00
O883   O     0.79510   0.10559   0.74999   0.00000  Uiso   1.00
O884   O     0.87154   0.10558   0.74999   0.00000  Uiso   1.00
O885   O     0.81409   0.16668   0.67319   0.00000  Uiso   1.00
O886   O     0.89053   0.16667   0.67319   0.00000  Uiso   1.00
Zn887  Zn    0.78229   0.16667   0.75000   0.00000  Uiso   1.00
Zn888  Zn    0.88438   0.16666   0.75000   0.00000  Uiso   1.00
C889   C     0.16760   0.57959   0.74559   0.00000  Uiso   1.00
C890   C     0.12079   0.49252   0.91188   0.00000  Uiso   1.00
C891   C     0.20973   0.64399   0.73917   0.00000  Uiso   1.00
C892   C     0.13965   0.49791   0.85227   0.00000  Uiso   1.00
C893   C     0.20872   0.35336   0.74356   0.00000  Uiso   1.00
C894   C     0.16577   0.37575   0.75349   0.00000  Uiso   1.00
C895   C     0.12380   0.35502   0.75840   0.00000  Uiso   1.00
C896   C     0.12802   0.64666   0.74173   0.00000  Uiso   1.00
C897   C     0.16883   0.62373   0.73994   0.00000  Uiso   1.00
C898   C     0.32090   0.47299   0.71532   0.00000  Uiso   1.00
C899   C     0.03497   0.47214   0.71618   0.00000  Uiso   1.00
C900   C     0.14433   0.49455   0.99202   0.00000  Uiso   1.00
C901   C     0.01311   0.52789   0.78343   0.00000  Uiso   1.00
C902   C     0.29784   0.52447   0.78836   0.00000  Uiso   1.00
C903   C     0.16628   0.42015   0.75196   0.00000  Uiso   1.00
C904   C     0.19348   0.49984   0.64759   0.00000  Uiso   1.00
C905   C     0.25074   0.44206   0.51124   0.00000  Uiso   1.00
C906   C     0.21055   0.49200   0.58805   0.00000  Uiso   1.00
C907   C     0.07435   0.50646   0.94435   0.00000  Uiso   1.00
C908   C     0.06434   0.51860   0.99872   0.00000  Uiso   1.00
C909   C     0.09912   0.51566   0.52236   0.00000  Uiso   1.00
C910   C     0.26145   0.54079   0.84349   0.00000  Uiso   1.00
C911   C     0.15094   0.47766   0.93841   0.00000  Uiso   1.00
C912   C     0.23593   0.58246   0.84315   0.00000  Uiso   1.00
C913   C     0.28789   0.40635   0.98488   0.00000  Uiso   1.00
C914   C     0.32468   0.39830   0.51182   0.00000  Uiso   1.00
C915   C     0.17914   0.41178   0.87263   0.00000  Uiso   1.00
C916   C     0.16756   0.36871   0.89518   0.00000  Uiso   1.00
C917   C     0.18114   0.48599   0.51316   0.00000  Uiso   1.00
C918   C     0.21749   0.45443   0.98666   0.00000  Uiso   1.00
C919   C     0.21815   0.43404   0.93792   0.00000  Uiso   1.00
C920   C     0.18398   0.44345   0.91529   0.00000  Uiso   1.00
C921   C     0.18285   0.50749   0.56010   0.00000  Uiso   1.00
C922   C     0.24558   0.46078   0.56274   0.00000  Uiso   1.00
H923   H     0.26652   0.44939   0.58502   0.00000  Uiso   1.00
H924   H     0.23793   0.51660   0.86438   0.00000  Uiso   1.00
H925   H     0.27878   0.54531   0.87411   0.00000  Uiso   1.00
H926   H     0.00923   0.42742   0.51630   0.00000  Uiso   1.00
H927   H     0.30746   0.38532   0.55221   0.00000  Uiso   1.00
H928   H     0.01895   0.37492   0.98580   0.00000  Uiso   1.00
H929   H     0.26910   0.37705   0.98423   0.00000  Uiso   1.00
H930   H     0.30826   0.41289   0.94190   0.00000  Uiso   1.00
H931   H     0.19788   0.35454   0.90408   0.00000  Uiso   1.00
H932   H     0.13548   0.37125   0.93309   0.00000  Uiso   1.00
H933   H     0.16019   0.34750   0.86453   0.00000  Uiso   1.00
H934   H     0.24113   0.36856   0.74083   0.00000  Uiso   1.00
H935   H     0.14965   0.42065   0.85894   0.00000  Uiso   1.00
H936   H     0.21291   0.40920   0.83685   0.00000  Uiso   1.00
H937   H     0.24381   0.40878   0.91794   0.00000  Uiso   1.00
H938   H     0.16206   0.53585   0.57672   0.00000  Uiso   1.00
H939   H     0.02832   0.52949   0.52325   0.00000  Uiso   1.00
H940   H     0.24268   0.62703   0.73431   0.00000  Uiso   1.00
H941   H     0.25705   0.60024   0.80820   0.00000  Uiso   1.00
H942   H     0.19977   0.57771   0.84259   0.00000  Uiso   1.00
H943   H     0.23121   0.60180   0.88130   0.00000  Uiso   1.00
I944   I     0.05303   0.38084   0.80211   0.00000  Uiso   1.00
I945   I     0.08404   0.62615   0.69775   0.00000  Uiso   1.00
I946   I     0.30389   0.42836   0.66368   0.00000  Uiso   1.00
I947   I     0.08717   0.42845   0.66038   0.00000  Uiso   1.00
I948   I     0.03115   0.57873   0.82842   0.00000  Uiso   1.00
I949   I     0.01435   0.49789   0.92138   0.00000  Uiso   1.00
I950   I     0.06824   0.53514   0.60680   0.00000  Uiso   1.00
N951   N     0.04760   0.50001   0.75001   0.00000  Uiso   1.00
N952   N     0.28573   0.49998   0.75000   0.00000  Uiso   1.00
O953   O     0.12846   0.56108   0.75000   0.00000  Uiso   1.00
O954   O     0.20490   0.56107   0.75000   0.00000  Uiso   1.00
O955   O     0.10947   0.50000   0.82681   0.00000  Uiso   1.00
O956   O     0.18591   0.49999   0.82681   0.00000  Uiso   1.00
O957   O     0.12843   0.43893   0.74999   0.00000  Uiso   1.00
O958   O     0.20488   0.43892   0.74999   0.00000  Uiso   1.00
O959   O     0.14742   0.50001   0.67319   0.00000  Uiso   1.00
O960   O     0.22387   0.50000   0.67319   0.00000  Uiso   1.00
Zn961  Zn    0.11562   0.50001   0.75000   0.00000  Uiso   1.00
Zn962  Zn    0.21771   0.49999   0.75000   0.00000  Uiso   1.00
C963   C     0.50093   0.57959   0.74559   0.00000  Uiso   1.00
C964   C     0.45412   0.49252   0.91188   0.00000  Uiso   1.00
C965   C     0.54306   0.64399   0.73917   0.00000  Uiso   1.00
C966   C     0.47298   0.49791   0.85227   0.00000  Uiso   1.00
C967   C     0.54206   0.35336   0.74356   0.00000  Uiso   1.00
C968   C     0.49910   0.37575   0.75349   0.00000  Uiso   1.00
C969   C     0.45713   0.35502   0.75840   0.00000  Uiso   1.00
C970   C     0.46135   0.64666   0.74173   0.00000  Uiso   1.00
C971   C     0.50217   0.62373   0.73994   0.00000  Uiso   1.00
C972   C     0.65423   0.47299   0.71532   0.00000  Uiso   1.00
C973   C     0.36830   0.47214   0.71618   0.00000  Uiso   1.00
C974   C     0.47766   0.49455   0.99202   0.00000  Uiso   1.00
C975   C     0.34645   0.52789   0.78343   0.00000  Uiso   1.00
C976   C     0.63117   0.52447   0.78836   0.00000  Uiso   1.00
C977   C     0.49961   0.42015   0.75196   0.00000  Uiso   1.00
C978   C     0.52681   0.49984   0.64759   0.00000  Uiso   1.00
C979   C     0.58407   0.44206   0.51124   0.00000  Uiso   1.00
C980   C     0.54388   0.49200   0.58805   0.00000  Uiso   1.00
C981   C     0.40768   0.50646   0.94435   0.00000  Uiso   1.00
C982   C     0.39767   0.51860   0.99872   0.00000  Uiso   1.00
C983   C     0.43245   0.51566   0.52236   0.00000  Uiso   1.00
C984   C     0.59479   0.54079   0.84349   0.00000  Uiso   1.00
C985   C     0.48427   0.47766   0.93841   0.00000  Uiso   1.00
C986   C     0.56927   0.58246   0.84315   0.00000  Uiso   1.00
C987   C     0.62122   0.40635   0.98488   0.00000  Uiso   1.00
C988   C     0.65801   0.39830   0.51182   0.00000  Uiso   1.00
C989   C     0.51248   0.41178   0.87263   0.00000  Uiso   1.00
C990   C     0.50090   0.36871   0.89518   0.00000  Uiso   1.00
C991   C     0.51448   0.48599   0.51316   0.00000  Uiso   1.00
C992   C     0.55083   0.45443   0.98666   0.00000  Uiso   1.00
C993   C     0.55148   0.43404   0.93792   0.00000  Uiso   1.00
C994   C     0.51732   0.44345   0.91529   0.00000  Uiso   1.00
C995   C     0.51618   0.50749   0.56010   0.00000  Uiso   1.00
C996   C     0.57892   0.46078   0.56274   0.00000  Uiso   1.00
H997   H     0.59985   0.44939   0.58502   0.00000  Uiso   1.00
H998   H     0.57127   0.51660   0.86438   0.00000  Uiso   1.00
H999   H     0.61211   0.54531   0.87411   0.00000  Uiso   1.00
H1000  H     0.34256   0.42742   0.51630   0.00000  Uiso   1.00
H1001  H     0.64079   0.38532   0.55221   0.00000  Uiso   1.00
H1002  H     0.35228   0.37492   0.98580   0.00000  Uiso   1.00
H1003  H     0.60244   0.37705   0.98423   0.00000  Uiso   1.00
H1004  H     0.64160   0.41289   0.94190   0.00000  Uiso   1.00
H1005  H     0.53122   0.35454   0.90408   0.00000  Uiso   1.00
H1006  H     0.46881   0.37125   0.93309   0.00000  Uiso   1.00
H1007  H     0.49352   0.34750   0.86453   0.00000  Uiso   1.00
H1008  H     0.57446   0.36856   0.74083   0.00000  Uiso   1.00
H1009  H     0.48299   0.42065   0.85894   0.00000  Uiso   1.00
H1010  H     0.54624   0.40920   0.83685   0.00000  Uiso   1.00
H1011  H     0.57715   0.40878   0.91794   0.00000  Uiso   1.00
H1012  H     0.49539   0.53585   0.57672   0.00000  Uiso   1.00
H1013  H     0.36165   0.52949   0.52325   0.00000  Uiso   1.00
H1014  H     0.57602   0.62703   0.73431   0.00000  Uiso   1.00
H1015  H     0.59038   0.60024   0.80820   0.00000  Uiso   1.00
H1016  H     0.53310   0.57771   0.84259   0.00000  Uiso   1.00
H1017  H     0.56455   0.60180   0.88130   0.00000  Uiso   1.00
I1018  I     0.38637   0.38084   0.80211   0.00000  Uiso   1.00
I1019  I     0.41737   0.62615   0.69775   0.00000  Uiso   1.00
I1020  I     0.63722   0.42836   0.66368   0.00000  Uiso   1.00
I1021  I     0.42050   0.42845   0.66038   0.00000  Uiso   1.00
I1022  I     0.36448   0.57873   0.82842   0.00000  Uiso   1.00
I1023  I     0.34768   0.49789   0.92138   0.00000  Uiso   1.00
I1024  I     0.40158   0.53514   0.60680   0.00000  Uiso   1.00
N1025  N     0.38093   0.50001   0.75001   0.00000  Uiso   1.00
N1026  N     0.61906   0.49998   0.75000   0.00000  Uiso   1.00
O1027  O     0.46179   0.56108   0.75000   0.00000  Uiso   1.00
O1028  O     0.53823   0.56107   0.75000   0.00000  Uiso   1.00
O1029  O     0.44280   0.50000   0.82681   0.00000  Uiso   1.00
O1030  O     0.51924   0.49999   0.82681   0.00000  Uiso   1.00
O1031  O     0.46177   0.43893   0.74999   0.00000  Uiso   1.00
O1032  O     0.53821   0.43892   0.74999   0.00000  Uiso   1.00
O1033  O     0.48076   0.50001   0.67319   0.00000  Uiso   1.00
O1034  O     0.55720   0.50000   0.67319   0.00000  Uiso   1.00
Zn1035 Zn    0.44896   0.50001   0.75000   0.00000  Uiso   1.00
Zn1036 Zn    0.55104   0.49999   0.75000   0.00000  Uiso   1.00
C1037  C     0.83427   0.57959   0.74559   0.00000  Uiso   1.00
C1038  C     0.78745   0.49252   0.91188   0.00000  Uiso   1.00
C1039  C     0.87640   0.64399   0.73917   0.00000  Uiso   1.00
C1040  C     0.80632   0.49791   0.85227   0.00000  Uiso   1.00
C1041  C     0.87539   0.35336   0.74356   0.00000  Uiso   1.00
C1042  C     0.83244   0.37575   0.75349   0.00000  Uiso   1.00
C1043  C     0.79047   0.35502   0.75840   0.00000  Uiso   1.00
C1044  C     0.79468   0.64666   0.74173   0.00000  Uiso   1.00
C1045  C     0.83550   0.62373   0.73994   0.00000  Uiso   1.00
C1046  C     0.98757   0.47299   0.71532   0.00000  Uiso   1.00
C1047  C     0.70164   0.47214   0.71618   0.00000  Uiso   1.00
C1048  C     0.81100   0.49455   0.99202   0.00000  Uiso   1.00
C1049  C     0.67978   0.52789   0.78343   0.00000  Uiso   1.00
C1050  C     0.96450   0.52447   0.78836   0.00000  Uiso   1.00
C1051  C     0.83295   0.42015   0.75196   0.00000  Uiso   1.00
C1052  C     0.86014   0.49984   0.64759   0.00000  Uiso   1.00
C1053  C     0.91741   0.44206   0.51124   0.00000  Uiso   1.00
C1054  C     0.87721   0.49200   0.58805   0.00000  Uiso   1.00
C1055  C     0.74102   0.50646   0.94435   0.00000  Uiso   1.00
C1056  C     0.73101   0.51860   0.99872   0.00000  Uiso   1.00
C1057  C     0.76579   0.51566   0.52236   0.00000  Uiso   1.00
C1058  C     0.92812   0.54079   0.84349   0.00000  Uiso   1.00
C1059  C     0.81761   0.47766   0.93841   0.00000  Uiso   1.00
C1060  C     0.90260   0.58246   0.84315   0.00000  Uiso   1.00
C1061  C     0.95455   0.40635   0.98488   0.00000  Uiso   1.00
C1062  C     0.99134   0.39830   0.51182   0.00000  Uiso   1.00
C1063  C     0.84581   0.41178   0.87263   0.00000  Uiso   1.00
C1064  C     0.83423   0.36871   0.89518   0.00000  Uiso   1.00
C1065  C     0.84781   0.48599   0.51316   0.00000  Uiso   1.00
C1066  C     0.88416   0.45443   0.98666   0.00000  Uiso   1.00
C1067  C     0.88481   0.43404   0.93792   0.00000  Uiso   1.00
C1068  C     0.85065   0.44345   0.91529   0.00000  Uiso   1.00
C1069  C     0.84951   0.50749   0.56010   0.00000  Uiso   1.00
C1070  C     0.91225   0.46078   0.56274   0.00000  Uiso   1.00
H1071  H     0.93318   0.44939   0.58502   0.00000  Uiso   1.00
H1072  H     0.90460   0.51660   0.86438   0.00000  Uiso   1.00
H1073  H     0.94545   0.54531   0.87411   0.00000  Uiso   1.00
H1074  H     0.67589   0.42742   0.51630   0.00000  Uiso   1.00
H1075  H     0.97412   0.38532   0.55221   0.00000  Uiso   1.00
H1076  H     0.68562   0.37492   0.98580   0.00000  Uiso   1.00
H1077  H     0.93577   0.37705   0.98423   0.00000  Uiso   1.00
H1078  H     0.97493   0.41289   0.94190   0.00000  Uiso   1.00
H1079  H     0.86455   0.35454   0.90408   0.00000  Uiso   1.00
H1080  H     0.80214   0.37125   0.93309   0.00000  Uiso   1.00
H1081  H     0.82685   0.34750   0.86453   0.00000  Uiso   1.00
H1082  H     0.90780   0.36856   0.74083   0.00000  Uiso   1.00
H1083  H     0.81632   0.42065   0.85894   0.00000  Uiso   1.00
H1084  H     0.87958   0.40920   0.83685   0.00000  Uiso   1.00
H1085  H     0.91048   0.40878   0.91794   0.00000  Uiso   1.00
H1086  H     0.82873   0.53585   0.57672   0.00000  Uiso   1.00
H1087  H     0.69498   0.52949   0.52325   0.00000  Uiso   1.00
H1088  H     0.90935   0.62703   0.73431   0.00000  Uiso   1.00
H1089  H     0.92371   0.60024   0.80820   0.00000  Uiso   1.00
H1090  H     0.86644   0.57771   0.84259   0.00000  Uiso   1.00
H1091  H     0.89788   0.60180   0.88130   0.00000  Uiso   1.00
I1092  I     0.71970   0.38084   0.80211   0.00000  Uiso   1.00
I1093  I     0.75071   0.62615   0.69775   0.00000  Uiso   1.00
I1094  I     0.97056   0.42836   0.66368   0.00000  Uiso   1.00
I1095  I     0.75384   0.42845   0.66038   0.00000  Uiso   1.00
I1096  I     0.69782   0.57873   0.82842   0.00000  Uiso   1.00
I1097  I     0.68102   0.49789   0.92138   0.00000  Uiso   1.00
I1098  I     0.73491   0.53514   0.60680   0.00000  Uiso   1.00
N1099  N     0.71426   0.50001   0.75001   0.00000  Uiso   1.00
N1100  N     0.95239   0.49998   0.75000   0.00000  Uiso   1.00
O1101  O     0.79512   0.56108   0.75000   0.00000  Uiso   1.00
O1102  O     0.87157   0.56107   0.75000   0.00000  Uiso   1.00
O1103  O     0.77613   0.50000   0.82681   0.00000  Uiso   1.00
O1104  O     0.85258   0.49999   0.82681   0.00000  Uiso   1.00
O1105  O     0.79510   0.43893   0.74999   0.00000  Uiso   1.00
O1106  O     0.87154   0.43892   0.74999   0.00000  Uiso   1.00
O1107  O     0.81409   0.50001   0.67319   0.00000  Uiso   1.00
O1108  O     0.89053   0.50000   0.67319   0.00000  Uiso   1.00
Zn1109 Zn    0.78229   0.50001   0.75000   0.00000  Uiso   1.00
Zn1110 Zn    0.88438   0.49999   0.75000   0.00000  Uiso   1.00
C1111  C     0.16760   0.91292   0.74559   0.00000  Uiso   1.00
C1112  C     0.12079   0.82586   0.91188   0.00000  Uiso   1.00
C1113  C     0.20973   0.97732   0.73917   0.00000  Uiso   1.00
C1114  C     0.13965   0.83124   0.85227   0.00000  Uiso   1.00
C1115  C     0.20872   0.68670   0.74356   0.00000  Uiso   1.00
C1116  C     0.16577   0.70908   0.75349   0.00000  Uiso   1.00
C1117  C     0.12380   0.68835   0.75840   0.00000  Uiso   1.00
C1118  C     0.12802   0.97999   0.74173   0.00000  Uiso   1.00
C1119  C     0.16883   0.95707   0.73994   0.00000  Uiso   1.00
C1120  C     0.32090   0.80633   0.71532   0.00000  Uiso   1.00
C1121  C     0.03497   0.80547   0.71618   0.00000  Uiso   1.00
C1122  C     0.14433   0.82788   0.99202   0.00000  Uiso   1.00
C1123  C     0.01311   0.86123   0.78343   0.00000  Uiso   1.00
C1124  C     0.29784   0.85780   0.78836   0.00000  Uiso   1.00
C1125  C     0.16628   0.75348   0.75196   0.00000  Uiso   1.00
C1126  C     0.19348   0.83317   0.64759   0.00000  Uiso   1.00
C1127  C     0.25074   0.77540   0.51124   0.00000  Uiso   1.00
C1128  C     0.21055   0.82534   0.58805   0.00000  Uiso   1.00
C1129  C     0.07435   0.83979   0.94435   0.00000  Uiso   1.00
C1130  C     0.06434   0.85193   0.99872   0.00000  Uiso   1.00
C1131  C     0.09912   0.84899   0.52236   0.00000  Uiso   1.00
C1132  C     0.26145   0.87412   0.84349   0.00000  Uiso   1.00
C1133  C     0.15094   0.81099   0.93841   0.00000  Uiso   1.00
C1134  C     0.23593   0.91580   0.84315   0.00000  Uiso   1.00
C1135  C     0.28789   0.73969   0.98488   0.00000  Uiso   1.00
C1136  C     0.32468   0.73164   0.51182   0.00000  Uiso   1.00
C1137  C     0.17914   0.74511   0.87263   0.00000  Uiso   1.00
C1138  C     0.16756   0.70205   0.89518   0.00000  Uiso   1.00
C1139  C     0.18114   0.81933   0.51316   0.00000  Uiso   1.00
C1140  C     0.21749   0.78777   0.98666   0.00000  Uiso   1.00
C1141  C     0.21815   0.76737   0.93792   0.00000  Uiso   1.00
C1142  C     0.18398   0.77679   0.91529   0.00000  Uiso   1.00
C1143  C     0.18285   0.84082   0.56010   0.00000  Uiso   1.00
C1144  C     0.24558   0.79412   0.56274   0.00000  Uiso   1.00
H1145  H     0.26652   0.78272   0.58502   0.00000  Uiso   1.00
H1146  H     0.23793   0.84993   0.86438   0.00000  Uiso   1.00
H1147  H     0.27878   0.87865   0.87411   0.00000  Uiso   1.00
H1148  H     0.00923   0.76076   0.51630   0.00000  Uiso   1.00
H1149  H     0.30746   0.71866   0.55221   0.00000  Uiso   1.00
H1150  H     0.01895   0.70826   0.98580   0.00000  Uiso   1.00
H1151  H     0.26910   0.71038   0.98423   0.00000  Uiso   1.00
H1152  H     0.30826   0.74622   0.94190   0.00000  Uiso   1.00
H1153  H     0.19788   0.68787   0.90408   0.00000  Uiso   1.00
H1154  H     0.13548   0.70459   0.93309   0.00000  Uiso   1.00
H1155  H     0.16019   0.68084   0.86453   0.00000  Uiso   1.00
H1156  H     0.24113   0.70189   0.74083   0.00000  Uiso   1.00
H1157  H     0.14965   0.75398   0.85894   0.00000  Uiso   1.00
H1158  H     0.21291   0.74254   0.83685   0.00000  Uiso   1.00
H1159  H     0.24381   0.74212   0.91794   0.00000  Uiso   1.00
H1160  H     0.16206   0.86919   0.57672   0.00000  Uiso   1.00
H1161  H     0.02832   0.86282   0.52325   0.00000  Uiso   1.00
H1162  H     0.24268   0.96036   0.73431   0.00000  Uiso   1.00
H1163  H     0.25705   0.93357   0.80820   0.00000  Uiso   1.00
H1164  H     0.19977   0.91105   0.84259   0.00000  Uiso   1.00
H1165  H     0.23121   0.93513   0.88130   0.00000  Uiso   1.00
I1166  I     0.05303   0.71418   0.80211   0.00000  Uiso   1.00
I1167  I     0.08404   0.95948   0.69775   0.00000  Uiso   1.00
I1168  I     0.30389   0.76170   0.66368   0.00000  Uiso   1.00
I1169  I     0.08717   0.76178   0.66038   0.00000  Uiso   1.00
I1170  I     0.03115   0.91207   0.82842   0.00000  Uiso   1.00
I1171  I     0.01435   0.83122   0.92138   0.00000  Uiso   1.00
I1172  I     0.06824   0.86847   0.60680   0.00000  Uiso   1.00
N1173  N     0.04760   0.83334   0.75001   0.00000  Uiso   1.00
N1174  N     0.28573   0.83331   0.75000   0.00000  Uiso   1.00
O1175  O     0.12846   0.89442   0.75000   0.00000  Uiso   1.00
O1176  O     0.20490   0.89441   0.75000   0.00000  Uiso   1.00
O1177  O     0.10947   0.83333   0.82681   0.00000  Uiso   1.00
O1178  O     0.18591   0.83332   0.82681   0.00000  Uiso   1.00
O1179  O     0.12843   0.77226   0.74999   0.00000  Uiso   1.00
O1180  O     0.20488   0.77225   0.74999   0.00000  Uiso   1.00
O1181  O     0.14742   0.83335   0.67319   0.00000  Uiso   1.00
O1182  O     0.22387   0.83334   0.67319   0.00000  Uiso   1.00
Zn1183 Zn    0.11562   0.83334   0.75000   0.00000  Uiso   1.00
Zn1184 Zn    0.21771   0.83333   0.75000   0.00000  Uiso   1.00
C1185  C     0.50093   0.91292   0.74559   0.00000  Uiso   1.00
C1186  C     0.45412   0.82586   0.91188   0.00000  Uiso   1.00
C1187  C     0.54306   0.97732   0.73917   0.00000  Uiso   1.00
C1188  C     0.47298   0.83124   0.85227   0.00000  Uiso   1.00
C1189  C     0.54206   0.68670   0.74356   0.00000  Uiso   1.00
C1190  C     0.49910   0.70908   0.75349   0.00000  Uiso   1.00
C1191  C     0.45713   0.68835   0.75840   0.00000  Uiso   1.00
C1192  C     0.46135   0.97999   0.74173   0.00000  Uiso   1.00
C1193  C     0.50217   0.95707   0.73994   0.00000  Uiso   1.00
C1194  C     0.65423   0.80633   0.71532   0.00000  Uiso   1.00
C1195  C     0.36830   0.80547   0.71618   0.00000  Uiso   1.00
C1196  C     0.47766   0.82788   0.99202   0.00000  Uiso   1.00
C1197  C     0.34645   0.86123   0.78343   0.00000  Uiso   1.00
C1198  C     0.63117   0.85780   0.78836   0.00000  Uiso   1.00
C1199  C     0.49961   0.75348   0.75196   0.00000  Uiso   1.00
C1200  C     0.52681   0.83317   0.64759   0.00000  Uiso   1.00
C1201  C     0.58407   0.77540   0.51124   0.00000  Uiso   1.00
C1202  C     0.54388   0.82534   0.58805   0.00000  Uiso   1.00
C1203  C     0.40768   0.83979   0.94435   0.00000  Uiso   1.00
C1204  C     0.39767   0.85193   0.99872   0.00000  Uiso   1.00
C1205  C     0.43245   0.84899   0.52236   0.00000  Uiso   1.00
C1206  C     0.59479   0.87412   0.84349   0.00000  Uiso   1.00
C1207  C     0.48427   0.81099   0.93841   0.00000  Uiso   1.00
C1208  C     0.56927   0.91580   0.84315   0.00000  Uiso   1.00
C1209  C     0.62122   0.73969   0.98488   0.00000  Uiso   1.00
C1210  C     0.65801   0.73164   0.51182   0.00000  Uiso   1.00
C1211  C     0.51248   0.74511   0.87263   0.00000  Uiso   1.00
C1212  C     0.50090   0.70205   0.89518   0.00000  Uiso   1.00
C1213  C     0.51448   0.81933   0.51316   0.00000  Uiso   1.00
C1214  C     0.55083   0.78777   0.98666   0.00000  Uiso   1.00
C1215  C     0.55148   0.76737   0.93792   0.00000  Uiso   1.00
C1216  C     0.51732   0.77679   0.91529   0.00000  Uiso   1.00
C1217  C     0.51618   0.84082   0.56010   0.00000  Uiso   1.00
C1218  C     0.57892   0.79412   0.56274   0.00000  Uiso   1.00
H1219  H     0.59985   0.78272   0.58502   0.00000  Uiso   1.00
H1220  H     0.57127   0.84993   0.86438   0.00000  Uiso   1.00
H1221  H     0.61211   0.87865   0.87411   0.00000  Uiso   1.00
H1222  H     0.34256   0.76076   0.51630   0.00000  Uiso   1.00
H1223  H     0.64079   0.71866   0.55221   0.00000  Uiso   1.00
H1224  H     0.35228   0.70826   0.98580   0.00000  Uiso   1.00
H1225  H     0.60244   0.71038   0.98423   0.00000  Uiso   1.00
H1226  H     0.64160   0.74622   0.94190   0.00000  Uiso   1.00
H1227  H     0.53122   0.68787   0.90408   0.00000  Uiso   1.00
H1228  H     0.46881   0.70459   0.93309   0.00000  Uiso   1.00
H1229  H     0.49352   0.68084   0.86453   0.00000  Uiso   1.00
H1230  H     0.57446   0.70189   0.74083   0.00000  Uiso   1.00
H1231  H     0.48299   0.75398   0.85894   0.00000  Uiso   1.00
H1232  H     0.54624   0.74254   0.83685   0.00000  Uiso   1.00
H1233  H     0.57715   0.74212   0.91794   0.00000  Uiso   1.00
H1234  H     0.49539   0.86919   0.57672   0.00000  Uiso   1.00
H1235  H     0.36165   0.86282   0.52325   0.00000  Uiso   1.00
H1236  H     0.57602   0.96036   0.73431   0.00000  Uiso   1.00
H1237  H     0.59038   0.93357   0.80820   0.00000  Uiso   1.00
H1238  H     0.53310   0.91105   0.84259   0.00000  Uiso   1.00
H1239  H     0.56455   0.93513   0.88130   0.00000  Uiso   1.00
I1240  I     0.38637   0.71418   0.80211   0.00000  Uiso   1.00
I1241  I     0.41737   0.95948   0.69775   0.00000  Uiso   1.00
I1242  I     0.63722   0.76170   0.66368   0.00000  Uiso   1.00
I1243  I     0.42050   0.76178   0.66038   0.00000  Uiso   1.00
I1244  I     0.36448   0.91207   0.82842   0.00000  Uiso   1.00
I1245  I     0.34768   0.83122   0.92138   0.00000  Uiso   1.00
I1246  I     0.40158   0.86847   0.60680   0.00000  Uiso   1.00
N1247  N     0.38093   0.83334   0.75001   0.00000  Uiso   1.00
N1248  N     0.61906   0.83331   0.75000   0.00000  Uiso   1.00
O1249  O     0.46179   0.89442   0.75000   0.00000  Uiso   1.00
O1250  O     0.53823   0.89441   0.75000   0.00000  Uiso   1.00
O1251  O     0.44280   0.83333   0.82681   0.00000  Uiso   1.00
O1252  O     0.51924   0.83332   0.82681   0.00000  Uiso   1.00
O1253  O     0.46177   0.77226   0.74999   0.00000  Uiso   1.00
O1254  O     0.53821   0.77225   0.74999   0.00000  Uiso   1.00
O1255  O     0.48076   0.83335   0.67319   0.00000  Uiso   1.00
O1256  O     0.55720   0.83334   0.67319   0.00000  Uiso   1.00
Zn1257 Zn    0.44896   0.83334   0.75000   0.00000  Uiso   1.00
Zn1258 Zn    0.55104   0.83333   0.75000   0.00000  Uiso   1.00
C1259  C     0.83427   0.91292   0.74559   0.00000  Uiso   1.00
C1260  C     0.78745   0.82586   0.91188   0.00000  Uiso   1.00
C1261  C     0.87640   0.97732   0.73917   0.00000  Uiso   1.00
C1262  C     0.80632   0.83124   0.85227   0.00000  Uiso   1.00
C1263  C     0.87539   0.68670   0.74356   0.00000  Uiso   1.00
C1264  C     0.83244   0.70908   0.75349   0.00000  Uiso   1.00
C1265  C     0.79047   0.68835   0.75840   0.00000  Uiso   1.00
C1266  C     0.79468   0.97999   0.74173   0.00000  Uiso   1.00
C1267  C     0.83550   0.95707   0.73994   0.00000  Uiso   1.00
C1268  C     0.98757   0.80633   0.71532   0.00000  Uiso   1.00
C1269  C     0.70164   0.80547   0.71618   0.00000  Uiso   1.00
C1270  C     0.81100   0.82788   0.99202   0.00000  Uiso   1.00
C1271  C     0.67978   0.86123   0.78343   0.00000  Uiso   1.00
C1272  C     0.96450   0.85780   0.78836   0.00000  Uiso   1.00
C1273  C     0.83295   0.75348   0.75196   0.00000  Uiso   1.00
C1274  C     0.86014   0.83317   0.64759   0.00000  Uiso   1.00
C1275  C     0.91741   0.77540   0.51124   0.00000  Uiso   1.00
C1276  C     0.87721   0.82534   0.58805   0.00000  Uiso   1.00
C1277  C     0.74102   0.83979   0.94435   0.00000  Uiso   1.00
C1278  C     0.73101   0.85193   0.99872   0.00000  Uiso   1.00
C1279  C     0.76579   0.84899   0.52236   0.00000  Uiso   1.00
C1280  C     0.92812   0.87412   0.84349   0.00000  Uiso   1.00
C1281  C     0.81761   0.81099   0.93841   0.00000  Uiso   1.00
C1282  C     0.90260   0.91580   0.84315   0.00000  Uiso   1.00
C1283  C     0.95455   0.73969   0.98488   0.00000  Uiso   1.00
C1284  C     0.99134   0.73164   0.51182   0.00000  Uiso   1.00
C1285  C     0.84581   0.74511   0.87263   0.00000  Uiso   1.00
C1286  C     0.83423   0.70205   0.89518   0.00000  Uiso   1.00
C1287  C     0.84781   0.81933   0.51316   0.00000  Uiso   1.00
C1288  C     0.88416   0.78777   0.98666   0.00000  Uiso   1.00
C1289  C     0.88481   0.76737   0.93792   0.00000  Uiso   1.00
C1290  C     0.85065   0.77679   0.91529   0.00000  Uiso   1.00
C1291  C     0.84951   0.84082   0.56010   0.00000  Uiso   1.00
C1292  C     0.91225   0.79412   0.56274   0.00000  Uiso   1.00
H1293  H     0.93318   0.78272   0.58502   0.00000  Uiso   1.00
H1294  H     0.90460   0.84993   0.86438   0.00000  Uiso   1.00
H1295  H     0.94545   0.87865   0.87411   0.00000  Uiso   1.00
H1296  H     0.67589   0.76076   0.51630   0.00000  Uiso   1.00
H1297  H     0.97412   0.71866   0.55221   0.00000  Uiso   1.00
H1298  H     0.68562   0.70826   0.98580   0.00000  Uiso   1.00
H1299  H     0.93577   0.71038   0.98423   0.00000  Uiso   1.00
H1300  H     0.97493   0.74622   0.94190   0.00000  Uiso   1.00
H1301  H     0.86455   0.68787   0.90408   0.00000  Uiso   1.00
H1302  H     0.80214   0.70459   0.93309   0.00000  Uiso   1.00
H1303  H     0.82685   0.68084   0.86453   0.00000  Uiso   1.00
H1304  H     0.90780   0.70189   0.74083   0.00000  Uiso   1.00
H1305  H     0.81632   0.75398   0.85894   0.00000  Uiso   1.00
H1306  H     0.87958   0.74254   0.83685   0.00000  Uiso   1.00
H1307  H     0.91048   0.74212   0.91794   0.00000  Uiso   1.00
H1308  H     0.82873   0.86919   0.57672   0.00000  Uiso   1.00
H1309  H     0.69498   0.86282   0.52325   0.00000  Uiso   1.00
H1310  H     0.90935   0.96036   0.73431   0.00000  Uiso   1.00
H1311  H     0.92371   0.93357   0.80820   0.00000  Uiso   1.00
H1312  H     0.86644   0.91105   0.84259   0.00000  Uiso   1.00
H1313  H     0.89788   0.93513   0.88130   0.00000  Uiso   1.00
I1314  I     0.71970   0.71418   0.80211   0.00000  Uiso   1.00
I1315  I     0.75071   0.95948   0.69775   0.00000  Uiso   1.00
I1316  I     0.97056   0.76170   0.66368   0.00000  Uiso   1.00
I1317  I     0.75384   0.76178   0.66038   0.00000  Uiso   1.00
I1318  I     0.69782   0.91207   0.82842   0.00000  Uiso   1.00
I1319  I     0.68102   0.83122   0.92138   0.00000  Uiso   1.00
I1320  I     0.73491   0.86847   0.60680   0.00000  Uiso   1.00
N1321  N     0.71426   0.83334   0.75001   0.00000  Uiso   1.00
N1322  N     0.95239   0.83331   0.75000   0.00000  Uiso   1.00
O1323  O     0.79512   0.89442   0.75000   0.00000  Uiso   1.00
O1324  O     0.87157   0.89441   0.75000   0.00000  Uiso   1.00
O1325  O     0.77613   0.83333   0.82681   0.00000  Uiso   1.00
O1326  O     0.85258   0.83332   0.82681   0.00000  Uiso   1.00
O1327  O     0.79510   0.77226   0.74999   0.00000  Uiso   1.00
O1328  O     0.87154   0.77225   0.74999   0.00000  Uiso   1.00
O1329  O     0.81409   0.83335   0.67319   0.00000  Uiso   1.00
O1330  O     0.89053   0.83334   0.67319   0.00000  Uiso   1.00
Zn1331 Zn    0.78229   0.83334   0.75000   0.00000  Uiso   1.00
Zn1332 Zn    0.88438   0.83333   0.75000   0.00000  Uiso   1.00
loop_
_geom_bond_atom_site_label_1
_geom_bond_atom_site_label_2
_geom_bond_distance
_geom_bond_site_symmetry_2
_ccdc_geom_bond_type
C1     O65     1.302   .     A
C1     O66     1.299   .     A
C1     C9      1.433   .     S
C2     C4      1.482   .     S
C2     C23     1.410   .     A
C2     C19     1.401   .     A
C3     H52     1.082   .     S
C3     C9      1.399   .     A
C3     C227    1.369   .     S
C4     O67     1.304   .     A
C4     O68     1.318   .     A
C5     H46     1.081   .     S
C5     C6      1.396   .     A
C5     C447    1.369   1_545 S
C6     C7      1.409   .     A
C6     C15     1.429   .     S
C7     I56     2.149   .     S
C7     C452    1.375   1_545 S
C8     I57     2.131   .     S
C8     C9      1.400   .     A
C8     C229    1.375   .     S
C10    I58     2.113   .     S
C10    N64     1.374   .     A
C10    C85     1.432   .     S
C11    N63     1.379   .     A
C11    I59     2.151   .     S
C11    C158    1.432   1_455 S
C12    C23     1.422   .     A
C12    C687    1.440   .     S
C12    C695    1.428   .     S
C13    I60     2.154   .     S
C13    N63     1.369   .     A
C13    C162    1.427   1_455 S
C14    N64     1.396   .     A
C14    C22     1.528   .     S
C14    C87     1.427   .     S
C15    O69     1.292   .     A
C15    O70     1.306   .     A
C16    O72     1.309   .     A
C16    O71     1.307   .     A
C16    C18     1.465   .     S
C17    C34     1.403   .     A
C17    C691    1.533   1_554 S
C17    C696    1.425   1_554 S
C18    C34     1.393   .     A
C18    C33     1.387   .     A
C19    I61     2.111   .     S
C19    C20     1.380   .     A
C20    C687    1.393   .     S
C20    H717    1.084   .     S
C21    I62     2.127   .     S
C21    C686    1.393   1_554 S
C21    C678    1.440   1_554 S
C22    H36     1.096   .     S
C22    C24     1.528   .     S
C22    H37     1.105   .     S
C23    C32     1.419   .     A
C24    H55     1.111   .     S
C24    H54     1.106   .     S
C24    H53     1.108   .     S
C25    H42     1.110   .     S
C25    H41     1.112   .     S
C25    C683    1.533   .     S
C25    C692    1.530   .     S
C26    H39     1.109   .     S
C26    C691    1.530   1_554 S
C26    H112    1.111   .     S
C26    H780    1.111   1_554 S
C27    H48     1.110   .     S
C27    H47     1.103   .     S
C27    C32     1.519   .     S
C27    C28     1.532   .     S
C28    H43     1.110   .     S
C28    H45     1.110   .     S
C28    H44     1.111   .     S
C29    C33     1.395   .     A
C29    C678    1.428   1_554 S
C29    C696    1.428   1_554 S
C30    C31     1.398   .     A
C30    C695    1.428   .     S
C30    C683    1.425   .     S
C31    C32     1.389   .     A
C31    H49     1.080   .     S
C33    H50     1.072   .     S
C34    H35     1.068   .     S
H38    C174    1.111   1_455 S
H40    C840    1.111   1_455 S
H51    C686    1.084   1_554 S
N63    Zn73    2.043   .     S
N64    Zn74    2.043   .     S
O65    Zn73    2.008   .     S
O66    Zn74    1.990   .     S
O67    Zn73    1.954   .     S
O68    Zn74    1.899   .     S
O69    Zn73    1.990   .     S
O70    Zn74    2.008   .     S
O71    Zn73    1.899   .     S
O72    Zn74    1.954   .     S
C75    O139    1.302   .     A
C75    O140    1.299   .     A
C75    C83     1.433   .     S
C76    C78     1.482   .     S
C76    C97     1.410   .     A
C76    C93     1.401   .     A
C77    H126    1.082   .     S
C77    C83     1.399   .     A
C77    C301    1.369   .     S
C78    O141    1.304   .     A
C78    O142    1.318   .     A
C79    H120    1.081   .     S
C79    C80     1.396   .     A
C79    C521    1.369   1_545 S
C80    C81     1.409   .     A
C80    C89     1.429   .     S
C81    I130    2.149   .     S
C81    C526    1.375   1_545 S
C82    I131    2.131   .     S
C82    C83     1.400   .     A
C82    C303    1.375   .     S
C84    I132    2.113   .     S
C84    N138    1.374   .     A
C84    C159    1.432   .     S
C85    N137    1.379   .     A
C85    I133    2.151   .     S
C86    C97     1.422   .     A
C86    C761    1.440   .     S
C86    C769    1.428   .     S
C87    I134    2.154   .     S
C87    N137    1.369   .     A
C88    N138    1.396   .     A
C88    C96     1.528   .     S
C88    C161    1.427   .     S
C89    O143    1.292   .     A
C89    O144    1.306   .     A
C90    O146    1.309   .     A
C90    O145    1.307   .     A
C90    C92     1.465   .     S
C91    C108    1.403   .     A
C91    C765    1.533   1_554 S
C91    C770    1.425   1_554 S
C92    C108    1.393   .     A
C92    C107    1.387   .     A
C93    I135    2.111   .     S
C93    C94     1.380   .     A
C94    C761    1.393   .     S
C94    H791    1.084   .     S
C95    I136    2.127   .     S
C95    C760    1.393   1_554 S
C95    C752    1.440   1_554 S
C96    H110    1.096   .     S
C96    C98     1.528   .     S
C96    H111    1.105   .     S
C97    C106    1.419   .     A
C98    H129    1.111   .     S
C98    H128    1.106   .     S
C98    H127    1.108   .     S
C99    H116    1.110   .     S
C99    H115    1.112   .     S
C99    C757    1.533   .     S
C99    C766    1.530   .     S
C100   H113    1.109   .     S
C100   C765    1.530   1_554 S
C100   H186    1.111   .     S
C100   H854    1.111   1_554 S
C101   H122    1.110   .     S
C101   H121    1.103   .     S
C101   C106    1.519   .     S
C101   C102    1.532   .     S
C102   H117    1.110   .     S
C102   H119    1.110   .     S
C102   H118    1.111   .     S
C103   C107    1.395   .     A
C103   C752    1.428   1_554 S
C103   C770    1.428   1_554 S
C104   C105    1.398   .     A
C104   C769    1.428   .     S
C104   C757    1.425   .     S
C105   C106    1.389   .     A
C105   H123    1.080   .     S
C107   H124    1.072   .     S
C108   H109    1.068   .     S
H114   C692    1.111   .     S
H125   C760    1.084   1_554 S
N137   Zn147   2.043   .     S
N138   Zn148   2.043   .     S
O139   Zn147   2.008   .     S
O140   Zn148   1.990   .     S
O141   Zn147   1.954   .     S
O142   Zn148   1.899   .     S
O143   Zn147   1.990   .     S
O144   Zn148   2.008   .     S
O145   Zn147   1.899   .     S
O146   Zn148   1.954   .     S
C149   O213    1.302   .     A
C149   O214    1.299   .     A
C149   C157    1.433   .     S
C150   C152    1.482   .     S
C150   C171    1.410   .     A
C150   C167    1.401   .     A
C151   H200    1.082   .     S
C151   C157    1.399   .     A
C151   C375    1.369   .     S
C152   O215    1.304   .     A
C152   O216    1.318   .     A
C153   H194    1.081   .     S
C153   C154    1.396   .     A
C153   C595    1.369   1_545 S
C154   C155    1.409   .     A
C154   C163    1.429   .     S
C155   I204    2.149   .     S
C155   C600    1.375   1_545 S
C156   I205    2.131   .     S
C156   C157    1.400   .     A
C156   C377    1.375   .     S
C158   I206    2.113   .     S
C158   N212    1.374   .     A
C158   C11     1.432   1_655 S
C159   N211    1.379   .     A
C159   I207    2.151   .     S
C160   C171    1.422   .     A
C160   C835    1.440   .     S
C160   C843    1.428   .     S
C161   I208    2.154   .     S
C161   N211    1.369   .     A
C162   N212    1.396   .     A
C162   C170    1.528   .     S
C162   C13     1.427   1_655 S
C163   O217    1.292   .     A
C163   O218    1.306   .     A
C164   O220    1.309   .     A
C164   O219    1.307   .     A
C164   C166    1.465   .     S
C165   C182    1.403   .     A
C165   C839    1.533   1_554 S
C165   C844    1.425   1_554 S
C166   C182    1.393   .     A
C166   C181    1.387   .     A
C167   I209    2.111   .     S
C167   C168    1.380   .     A
C168   C835    1.393   .     S
C168   H865    1.084   .     S
C169   I210    2.127   .     S
C169   C834    1.393   1_554 S
C169   C826    1.440   1_554 S
C170   H184    1.096   .     S
C170   C172    1.528   .     S
C170   H185    1.105   .     S
C171   C180    1.419   .     A
C172   H203    1.111   .     S
C172   H202    1.106   .     S
C172   H201    1.108   .     S
C173   H190    1.110   .     S
C173   H189    1.112   .     S
C173   C831    1.533   .     S
C173   C840    1.530   .     S
C174   H187    1.109   .     S
C174   C839    1.530   1_554 S
C174   H38     1.111   1_655 S
C174   H706    1.111   1_654 S
C175   H196    1.110   .     S
C175   H195    1.103   .     S
C175   C180    1.519   .     S
C175   C176    1.532   .     S
C176   H191    1.110   .     S
C176   H193    1.110   .     S
C176   H192    1.111   .     S
C177   C181    1.395   .     A
C177   C826    1.428   1_554 S
C177   C844    1.428   1_554 S
C178   C179    1.398   .     A
C178   C843    1.428   .     S
C178   C831    1.425   .     S
C179   C180    1.389   .     A
C179   H197    1.080   .     S
C181   H198    1.072   .     S
C182   H183    1.068   .     S
H188   C766    1.111   .     S
H199   C834    1.084   1_554 S
N211   Zn221   2.043   .     S
N212   Zn222   2.043   .     S
O213   Zn221   2.008   .     S
O214   Zn222   1.990   .     S
O215   Zn221   1.954   .     S
O216   Zn222   1.899   .     S
O217   Zn221   1.990   .     S
O218   Zn222   2.008   .     S
O219   Zn221   1.899   .     S
O220   Zn222   1.954   .     S
C223   O287    1.302   .     A
C223   O288    1.299   .     A
C223   C231    1.433   .     S
C224   C226    1.482   .     S
C224   C245    1.410   .     A
C224   C241    1.401   .     A
C225   H274    1.082   .     S
C225   C231    1.399   .     A
C225   C449    1.369   .     S
C226   O289    1.304   .     A
C226   O290    1.318   .     A
C227   H268    1.081   .     S
C227   C228    1.396   .     A
C228   C229    1.409   .     A
C228   C237    1.429   .     S
C229   I278    2.149   .     S
C230   I279    2.131   .     S
C230   C231    1.400   .     A
C230   C451    1.375   .     S
C232   I280    2.113   .     S
C232   N286    1.374   .     A
C232   C307    1.432   .     S
C233   N285    1.379   .     A
C233   I281    2.151   .     S
C233   C380    1.432   1_455 S
C234   C245    1.422   .     A
C234   C909    1.440   .     S
C234   C917    1.428   .     S
C235   I282    2.154   .     S
C235   N285    1.369   .     A
C235   C384    1.427   1_455 S
C236   N286    1.396   .     A
C236   C244    1.528   .     S
C236   C309    1.427   .     S
C237   O291    1.292   .     A
C237   O292    1.306   .     A
C238   O294    1.309   .     A
C238   O293    1.307   .     A
C238   C240    1.465   .     S
C239   C256    1.403   .     A
C239   C913    1.533   1_554 S
C239   C918    1.425   1_554 S
C240   C256    1.393   .     A
C240   C255    1.387   .     A
C241   I283    2.111   .     S
C241   C242    1.380   .     A
C242   C909    1.393   .     S
C242   H939    1.084   .     S
C243   I284    2.127   .     S
C243   C908    1.393   1_554 S
C243   C900    1.440   1_554 S
C244   H258    1.096   .     S
C244   C246    1.528   .     S
C244   H259    1.105   .     S
C245   C254    1.419   .     A
C246   H277    1.111   .     S
C246   H276    1.106   .     S
C246   H275    1.108   .     S
C247   H264    1.110   .     S
C247   H263    1.112   .     S
C247   C905    1.533   .     S
C247   C914    1.530   .     S
C248   H261    1.109   .     S
C248   C913    1.530   1_554 S
C248   H334    1.111   .     S
C248   H1002   1.111   1_554 S
C249   H270    1.110   .     S
C249   H269    1.103   .     S
C249   C254    1.519   .     S
C249   C250    1.532   .     S
C250   H265    1.110   .     S
C250   H267    1.110   .     S
C250   H266    1.111   .     S
C251   C255    1.395   .     A
C251   C900    1.428   1_554 S
C251   C918    1.428   1_554 S
C252   C253    1.398   .     A
C252   C917    1.428   .     S
C252   C905    1.425   .     S
C253   C254    1.389   .     A
C253   H271    1.080   .     S
C255   H272    1.072   .     S
C256   H257    1.068   .     S
H260   C396    1.111   1_455 S
H262   C1062   1.111   1_455 S
H273   C908    1.084   1_554 S
N285   Zn295   2.043   .     S
N286   Zn296   2.043   .     S
O287   Zn295   2.008   .     S
O288   Zn296   1.990   .     S
O289   Zn295   1.954   .     S
O290   Zn296   1.899   .     S
O291   Zn295   1.990   .     S
O292   Zn296   2.008   .     S
O293   Zn295   1.899   .     S
O294   Zn296   1.954   .     S
C297   O361    1.302   .     A
C297   O362    1.299   .     A
C297   C305    1.433   .     S
C298   C300    1.482   .     S
C298   C319    1.410   .     A
C298   C315    1.401   .     A
C299   H348    1.082   .     S
C299   C305    1.399   .     A
C299   C523    1.369   .     S
C300   O363    1.304   .     A
C300   O364    1.318   .     A
C301   H342    1.081   .     S
C301   C302    1.396   .     A
C302   C303    1.409   .     A
C302   C311    1.429   .     S
C303   I352    2.149   .     S
C304   I353    2.131   .     S
C304   C305    1.400   .     A
C304   C525    1.375   .     S
C306   I354    2.113   .     S
C306   N360    1.374   .     A
C306   C381    1.432   .     S
C307   N359    1.379   .     A
C307   I355    2.151   .     S
C308   C319    1.422   .     A
C308   C983    1.440   .     S
C308   C991    1.428   .     S
C309   I356    2.154   .     S
C309   N359    1.369   .     A
C310   N360    1.396   .     A
C310   C318    1.528   .     S
C310   C383    1.427   .     S
C311   O365    1.292   .     A
C311   O366    1.306   .     A
C312   O368    1.309   .     A
C312   O367    1.307   .     A
C312   C314    1.465   .     S
C313   C330    1.403   .     A
C313   C987    1.533   1_554 S
C313   C992    1.425   1_554 S
C314   C330    1.393   .     A
C314   C329    1.387   .     A
C315   I357    2.111   .     S
C315   C316    1.380   .     A
C316   C983    1.393   .     S
C316   H1013   1.084   .     S
C317   I358    2.127   .     S
C317   C982    1.393   1_554 S
C317   C974    1.440   1_554 S
C318   H332    1.096   .     S
C318   C320    1.528   .     S
C318   H333    1.105   .     S
C319   C328    1.419   .     A
C320   H351    1.111   .     S
C320   H350    1.106   .     S
C320   H349    1.108   .     S
C321   H338    1.110   .     S
C321   H337    1.112   .     S
C321   C979    1.533   .     S
C321   C988    1.530   .     S
C322   H335    1.109   .     S
C322   C987    1.530   1_554 S
C322   H408    1.111   .     S
C322   H1076   1.111   1_554 S
C323   H344    1.110   .     S
C323   H343    1.103   .     S
C323   C328    1.519   .     S
C323   C324    1.532   .     S
C324   H339    1.110   .     S
C324   H341    1.110   .     S
C324   H340    1.111   .     S
C325   C329    1.395   .     A
C325   C974    1.428   1_554 S
C325   C992    1.428   1_554 S
C326   C327    1.398   .     A
C326   C991    1.428   .     S
C326   C979    1.425   .     S
C327   C328    1.389   .     A
C327   H345    1.080   .     S
C329   H346    1.072   .     S
C330   H331    1.068   .     S
H336   C914    1.111   .     S
H347   C982    1.084   1_554 S
N359   Zn369   2.043   .     S
N360   Zn370   2.043   .     S
O361   Zn369   2.008   .     S
O362   Zn370   1.990   .     S
O363   Zn369   1.954   .     S
O364   Zn370   1.899   .     S
O365   Zn369   1.990   .     S
O366   Zn370   2.008   .     S
O367   Zn369   1.899   .     S
O368   Zn370   1.954   .     S
C371   O435    1.302   .     A
C371   O436    1.299   .     A
C371   C379    1.433   .     S
C372   C374    1.482   .     S
C372   C393    1.410   .     A
C372   C389    1.401   .     A
C373   H422    1.082   .     S
C373   C379    1.399   .     A
C373   C597    1.369   .     S
C374   O437    1.304   .     A
C374   O438    1.318   .     A
C375   H416    1.081   .     S
C375   C376    1.396   .     A
C376   C377    1.409   .     A
C376   C385    1.429   .     S
C377   I426    2.149   .     S
C378   I427    2.131   .     S
C378   C379    1.400   .     A
C378   C599    1.375   .     S
C380   I428    2.113   .     S
C380   N434    1.374   .     A
C380   C233    1.432   1_655 S
C381   N433    1.379   .     A
C381   I429    2.151   .     S
C382   C393    1.422   .     A
C382   C1057   1.440   .     S
C382   C1065   1.428   .     S
C383   I430    2.154   .     S
C383   N433    1.369   .     A
C384   N434    1.396   .     A
C384   C392    1.528   .     S
C384   C235    1.427   1_655 S
C385   O439    1.292   .     A
C385   O440    1.306   .     A
C386   O442    1.309   .     A
C386   O441    1.307   .     A
C386   C388    1.465   .     S
C387   C404    1.403   .     A
C387   C1061   1.533   1_554 S
C387   C1066   1.425   1_554 S
C388   C404    1.393   .     A
C388   C403    1.387   .     A
C389   I431    2.111   .     S
C389   C390    1.380   .     A
C390   C1057   1.393   .     S
C390   H1087   1.084   .     S
C391   I432    2.127   .     S
C391   C1056   1.393   1_554 S
C391   C1048   1.440   1_554 S
C392   H406    1.096   .     S
C392   C394    1.528   .     S
C392   H407    1.105   .     S
C393   C402    1.419   .     A
C394   H425    1.111   .     S
C394   H424    1.106   .     S
C394   H423    1.108   .     S
C395   H412    1.110   .     S
C395   H411    1.112   .     S
C395   C1053   1.533   .     S
C395   C1062   1.530   .     S
C396   H409    1.109   .     S
C396   C1061   1.530   1_554 S
C396   H260    1.111   1_655 S
C396   H928    1.111   1_654 S
C397   H418    1.110   .     S
C397   H417    1.103   .     S
C397   C402    1.519   .     S
C397   C398    1.532   .     S
C398   H413    1.110   .     S
C398   H415    1.110   .     S
C398   H414    1.111   .     S
C399   C403    1.395   .     A
C399   C1048   1.428   1_554 S
C399   C1066   1.428   1_554 S
C400   C401    1.398   .     A
C400   C1065   1.428   .     S
C400   C1053   1.425   .     S
C401   C402    1.389   .     A
C401   H419    1.080   .     S
C403   H420    1.072   .     S
C404   H405    1.068   .     S
H410   C988    1.111   .     S
H421   C1056   1.084   1_554 S
N433   Zn443   2.043   .     S
N434   Zn444   2.043   .     S
O435   Zn443   2.008   .     S
O436   Zn444   1.990   .     S
O437   Zn443   1.954   .     S
O438   Zn444   1.899   .     S
O439   Zn443   1.990   .     S
O440   Zn444   2.008   .     S
O441   Zn443   1.899   .     S
O442   Zn444   1.954   .     S
C445   O509    1.302   .     A
C445   O510    1.299   .     A
C445   C453    1.433   .     S
C446   C448    1.482   .     S
C446   C467    1.410   .     A
C446   C463    1.401   .     A
C447   H496    1.082   .     S
C447   C453    1.399   .     A
C447   C5      1.369   1_565 S
C448   O511    1.304   .     A
C448   O512    1.318   .     A
C449   H490    1.081   .     S
C449   C450    1.396   .     A
C450   C451    1.409   .     A
C450   C459    1.429   .     S
C451   I500    2.149   .     S
C452   I501    2.131   .     S
C452   C453    1.400   .     A
C452   C7      1.375   1_565 S
C454   I502    2.113   .     S
C454   N508    1.374   .     A
C454   C529    1.432   .     S
C455   N507    1.379   .     A
C455   I503    2.151   .     S
C455   C602    1.432   1_455 S
C456   C467    1.422   .     A
C456   C1131   1.440   .     S
C456   C1139   1.428   .     S
C457   I504    2.154   .     S
C457   N507    1.369   .     A
C457   C606    1.427   1_455 S
C458   N508    1.396   .     A
C458   C466    1.528   .     S
C458   C531    1.427   .     S
C459   O513    1.292   .     A
C459   O514    1.306   .     A
C460   O516    1.309   .     A
C460   O515    1.307   .     A
C460   C462    1.465   .     S
C461   C478    1.403   .     A
C461   C1135   1.533   1_554 S
C461   C1140   1.425   1_554 S
C462   C478    1.393   .     A
C462   C477    1.387   .     A
C463   I505    2.111   .     S
C463   C464    1.380   .     A
C464   C1131   1.393   .     S
C464   H1161   1.084   .     S
C465   I506    2.127   .     S
C465   C1130   1.393   1_554 S
C465   C1122   1.440   1_554 S
C466   H480    1.096   .     S
C466   C468    1.528   .     S
C466   H481    1.105   .     S
C467   C476    1.419   .     A
C468   H499    1.111   .     S
C468   H498    1.106   .     S
C468   H497    1.108   .     S
C469   H486    1.110   .     S
C469   H485    1.112   .     S
C469   C1127   1.533   .     S
C469   C1136   1.530   .     S
C470   H483    1.109   .     S
C470   C1135   1.530   1_554 S
C470   H556    1.111   .     S
C470   H1224   1.111   1_554 S
C471   H492    1.110   .     S
C471   H491    1.103   .     S
C471   C476    1.519   .     S
C471   C472    1.532   .     S
C472   H487    1.110   .     S
C472   H489    1.110   .     S
C472   H488    1.111   .     S
C473   C477    1.395   .     A
C473   C1122   1.428   1_554 S
C473   C1140   1.428   1_554 S
C474   C475    1.398   .     A
C474   C1139   1.428   .     S
C474   C1127   1.425   .     S
C475   C476    1.389   .     A
C475   H493    1.080   .     S
C477   H494    1.072   .     S
C478   H479    1.068   .     S
H482   C618    1.111   1_455 S
H484   C1284   1.111   1_455 S
H495   C1130   1.084   1_554 S
N507   Zn517   2.043   .     S
N508   Zn518   2.043   .     S
O509   Zn517   2.008   .     S
O510   Zn518   1.990   .     S
O511   Zn517   1.954   .     S
O512   Zn518   1.899   .     S
O513   Zn517   1.990   .     S
O514   Zn518   2.008   .     S
O515   Zn517   1.899   .     S
O516   Zn518   1.954   .     S
C519   O583    1.302   .     A
C519   O584    1.299   .     A
C519   C527    1.433   .     S
C520   C522    1.482   .     S
C520   C541    1.410   .     A
C520   C537    1.401   .     A
C521   H570    1.082   .     S
C521   C527    1.399   .     A
C521   C79     1.369   1_565 S
C522   O585    1.304   .     A
C522   O586    1.318   .     A
C523   H564    1.081   .     S
C523   C524    1.396   .     A
C524   C525    1.409   .     A
C524   C533    1.429   .     S
C525   I574    2.149   .     S
C526   I575    2.131   .     S
C526   C527    1.400   .     A
C526   C81     1.375   1_565 S
C528   I576    2.113   .     S
C528   N582    1.374   .     A
C528   C603    1.432   .     S
C529   N581    1.379   .     A
C529   I577    2.151   .     S
C530   C541    1.422   .     A
C530   C1205   1.440   .     S
C530   C1213   1.428   .     S
C531   I578    2.154   .     S
C531   N581    1.369   .     A
C532   N582    1.396   .     A
C532   C540    1.528   .     S
C532   C605    1.427   .     S
C533   O587    1.292   .     A
C533   O588    1.306   .     A
C534   O590    1.309   .     A
C534   O589    1.307   .     A
C534   C536    1.465   .     S
C535   C552    1.403   .     A
C535   C1209   1.533   1_554 S
C535   C1214   1.425   1_554 S
C536   C552    1.393   .     A
C536   C551    1.387   .     A
C537   I579    2.111   .     S
C537   C538    1.380   .     A
C538   C1205   1.393   .     S
C538   H1235   1.084   .     S
C539   I580    2.127   .     S
C539   C1204   1.393   1_554 S
C539   C1196   1.440   1_554 S
C540   H554    1.096   .     S
C540   C542    1.528   .     S
C540   H555    1.105   .     S
C541   C550    1.419   .     A
C542   H573    1.111   .     S
C542   H572    1.106   .     S
C542   H571    1.108   .     S
C543   H560    1.110   .     S
C543   H559    1.112   .     S
C543   C1201   1.533   .     S
C543   C1210   1.530   .     S
C544   H557    1.109   .     S
C544   C1209   1.530   1_554 S
C544   H630    1.111   .     S
C544   H1298   1.111   1_554 S
C545   H566    1.110   .     S
C545   H565    1.103   .     S
C545   C550    1.519   .     S
C545   C546    1.532   .     S
C546   H561    1.110   .     S
C546   H563    1.110   .     S
C546   H562    1.111   .     S
C547   C551    1.395   .     A
C547   C1196   1.428   1_554 S
C547   C1214   1.428   1_554 S
C548   C549    1.398   .     A
C548   C1213   1.428   .     S
C548   C1201   1.425   .     S
C549   C550    1.389   .     A
C549   H567    1.080   .     S
C551   H568    1.072   .     S
C552   H553    1.068   .     S
H558   C1136   1.111   .     S
H569   C1204   1.084   1_554 S
N581   Zn591   2.043   .     S
N582   Zn592   2.043   .     S
O583   Zn591   2.008   .     S
O584   Zn592   1.990   .     S
O585   Zn591   1.954   .     S
O586   Zn592   1.899   .     S
O587   Zn591   1.990   .     S
O588   Zn592   2.008   .     S
O589   Zn591   1.899   .     S
O590   Zn592   1.954   .     S
C593   O657    1.302   .     A
C593   O658    1.299   .     A
C593   C601    1.433   .     S
C594   C596    1.482   .     S
C594   C615    1.410   .     A
C594   C611    1.401   .     A
C595   H644    1.082   .     S
C595   C601    1.399   .     A
C595   C153    1.369   1_565 S
C596   O659    1.304   .     A
C596   O660    1.318   .     A
C597   H638    1.081   .     S
C597   C598    1.396   .     A
C598   C599    1.409   .     A
C598   C607    1.429   .     S
C599   I648    2.149   .     S
C600   I649    2.131   .     S
C600   C601    1.400   .     A
C600   C155    1.375   1_565 S
C602   I650    2.113   .     S
C602   N656    1.374   .     A
C602   C455    1.432   1_655 S
C603   N655    1.379   .     A
C603   I651    2.151   .     S
C604   C615    1.422   .     A
C604   C1279   1.440   .     S
C604   C1287   1.428   .     S
C605   I652    2.154   .     S
C605   N655    1.369   .     A
C606   N656    1.396   .     A
C606   C614    1.528   .     S
C606   C457    1.427   1_655 S
C607   O661    1.292   .     A
C607   O662    1.306   .     A
C608   O664    1.309   .     A
C608   O663    1.307   .     A
C608   C610    1.465   .     S
C609   C626    1.403   .     A
C609   C1283   1.533   1_554 S
C609   C1288   1.425   1_554 S
C610   C626    1.393   .     A
C610   C625    1.387   .     A
C611   I653    2.111   .     S
C611   C612    1.380   .     A
C612   C1279   1.393   .     S
C612   H1309   1.084   .     S
C613   I654    2.127   .     S
C613   C1278   1.393   1_554 S
C613   C1270   1.440   1_554 S
C614   H628    1.096   .     S
C614   C616    1.528   .     S
C614   H629    1.105   .     S
C615   C624    1.419   .     A
C616   H647    1.111   .     S
C616   H646    1.106   .     S
C616   H645    1.108   .     S
C617   H634    1.110   .     S
C617   H633    1.112   .     S
C617   C1275   1.533   .     S
C617   C1284   1.530   .     S
C618   H631    1.109   .     S
C618   C1283   1.530   1_554 S
C618   H482    1.111   1_655 S
C618   H1150   1.111   1_654 S
C619   H640    1.110   .     S
C619   H639    1.103   .     S
C619   C624    1.519   .     S
C619   C620    1.532   .     S
C620   H635    1.110   .     S
C620   H637    1.110   .     S
C620   H636    1.111   .     S
C621   C625    1.395   .     A
C621   C1270   1.428   1_554 S
C621   C1288   1.428   1_554 S
C622   C623    1.398   .     A
C622   C1287   1.428   .     S
C622   C1275   1.425   .     S
C623   C624    1.389   .     A
C623   H641    1.080   .     S
C625   H642    1.072   .     S
C626   H627    1.068   .     S
H632   C1210   1.111   .     S
H643   C1278   1.084   1_554 S
N655   Zn665   2.043   .     S
N656   Zn666   2.043   .     S
O657   Zn665   2.008   .     S
O658   Zn666   1.990   .     S
O659   Zn665   1.954   .     S
O660   Zn666   1.899   .     S
O661   Zn665   1.990   .     S
O662   Zn666   2.008   .     S
O663   Zn665   1.899   .     S
O664   Zn666   1.954   .     S
C667   O731    1.302   .     A
C667   O732    1.299   .     A
C667   C675    1.433   .     S
C668   C670    1.482   .     S
C668   C689    1.410   .     A
C668   C685    1.401   .     A
C669   H718    1.082   .     S
C669   C675    1.399   .     A
C669   C893    1.369   .     S
C670   O733    1.304   .     A
C670   O734    1.318   .     A
C671   H712    1.081   .     S
C671   C672    1.396   .     A
C671   C1113   1.369   1_545 S
C672   C673    1.409   .     A
C672   C681    1.429   .     S
C673   I722    2.149   .     S
C673   C1118   1.375   1_545 S
C674   I723    2.131   .     S
C674   C675    1.400   .     A
C674   C895    1.375   .     S
C676   I724    2.113   .     S
C676   N730    1.374   .     A
C676   C751    1.432   .     S
C677   N729    1.379   .     A
C677   I725    2.151   .     S
C677   C824    1.432   1_455 S
C678   C689    1.422   .     A
C678   C21     1.440   1_556 S
C678   C29     1.428   1_556 S
C679   I726    2.154   .     S
C679   N729    1.369   .     A
C679   C828    1.427   1_455 S
C680   N730    1.396   .     A
C680   C688    1.528   .     S
C680   C753    1.427   .     S
C681   O735    1.292   .     A
C681   O736    1.306   .     A
C682   O738    1.309   .     A
C682   O737    1.307   .     A
C682   C684    1.465   .     S
C683   C700    1.403   .     A
C684   C700    1.393   .     A
C684   C699    1.387   .     A
C685   I727    2.111   .     S
C685   C686    1.380   .     A
C686   C21     1.393   1_556 S
C686   H51     1.084   1_556 S
C687   I728    2.127   .     S
C688   H702    1.096   .     S
C688   C690    1.528   .     S
C688   H703    1.105   .     S
C689   C698    1.419   .     A
C690   H721    1.111   .     S
C690   H720    1.106   .     S
C690   H719    1.108   .     S
C691   H708    1.110   .     S
C691   H707    1.112   .     S
C691   C17     1.533   1_556 S
C691   C26     1.530   1_556 S
C692   H705    1.109   .     S
C692   H778    1.111   .     S
C693   H714    1.110   .     S
C693   H713    1.103   .     S
C693   C698    1.519   .     S
C693   C694    1.532   .     S
C694   H709    1.110   .     S
C694   H711    1.110   .     S
C694   H710    1.111   .     S
C695   C699    1.395   .     A
C696   C697    1.398   .     A
C696   C29     1.428   1_556 S
C696   C17     1.425   1_556 S
C697   C698    1.389   .     A
C697   H715    1.080   .     S
C699   H716    1.072   .     S
C700   H701    1.068   .     S
H704   C840    1.111   1_455 S
H706   C174    1.111   1_456 S
N729   Zn739   2.043   .     S
N730   Zn740   2.043   .     S
O731   Zn739   2.008   .     S
O732   Zn740   1.990   .     S
O733   Zn739   1.954   .     S
O734   Zn740   1.899   .     S
O735   Zn739   1.990   .     S
O736   Zn740   2.008   .     S
O737   Zn739   1.899   .     S
O738   Zn740   1.954   .     S
C741   O805    1.302   .     A
C741   O806    1.299   .     A
C741   C749    1.433   .     S
C742   C744    1.482   .     S
C742   C763    1.410   .     A
C742   C759    1.401   .     A
C743   H792    1.082   .     S
C743   C749    1.399   .     A
C743   C967    1.369   .     S
C744   O807    1.304   .     A
C744   O808    1.318   .     A
C745   H786    1.081   .     S
C745   C746    1.396   .     A
C745   C1187   1.369   1_545 S
C746   C747    1.409   .     A
C746   C755    1.429   .     S
C747   I796    2.149   .     S
C747   C1192   1.375   1_545 S
C748   I797    2.131   .     S
C748   C749    1.400   .     A
C748   C969    1.375   .     S
C750   I798    2.113   .     S
C750   N804    1.374   .     A
C750   C825    1.432   .     S
C751   N803    1.379   .     A
C751   I799    2.151   .     S
C752   C763    1.422   .     A
C752   C95     1.440   1_556 S
C752   C103    1.428   1_556 S
C753   I800    2.154   .     S
C753   N803    1.369   .     A
C754   N804    1.396   .     A
C754   C762    1.528   .     S
C754   C827    1.427   .     S
C755   O809    1.292   .     A
C755   O810    1.306   .     A
C756   O812    1.309   .     A
C756   O811    1.307   .     A
C756   C758    1.465   .     S
C757   C774    1.403   .     A
C758   C774    1.393   .     A
C758   C773    1.387   .     A
C759   I801    2.111   .     S
C759   C760    1.380   .     A
C760   C95     1.393   1_556 S
C760   H125    1.084   1_556 S
C761   I802    2.127   .     S
C762   H776    1.096   .     S
C762   C764    1.528   .     S
C762   H777    1.105   .     S
C763   C772    1.419   .     A
C764   H795    1.111   .     S
C764   H794    1.106   .     S
C764   H793    1.108   .     S
C765   H782    1.110   .     S
C765   H781    1.112   .     S
C765   C91     1.533   1_556 S
C765   C100    1.530   1_556 S
C766   H779    1.109   .     S
C766   H852    1.111   .     S
C767   H788    1.110   .     S
C767   H787    1.103   .     S
C767   C772    1.519   .     S
C767   C768    1.532   .     S
C768   H783    1.110   .     S
C768   H785    1.110   .     S
C768   H784    1.111   .     S
C769   C773    1.395   .     A
C770   C771    1.398   .     A
C770   C103    1.428   1_556 S
C770   C91     1.425   1_556 S
C771   C772    1.389   .     A
C771   H789    1.080   .     S
C773   H790    1.072   .     S
C774   H775    1.068   .     S
H780   C26     1.111   1_556 S
N803   Zn813   2.043   .     S
N804   Zn814   2.043   .     S
O805   Zn813   2.008   .     S
O806   Zn814   1.990   .     S
O807   Zn813   1.954   .     S
O808   Zn814   1.899   .     S
O809   Zn813   1.990   .     S
O810   Zn814   2.008   .     S
O811   Zn813   1.899   .     S
O812   Zn814   1.954   .     S
C815   O879    1.302   .     A
C815   O880    1.299   .     A
C815   C823    1.433   .     S
C816   C818    1.482   .     S
C816   C837    1.410   .     A
C816   C833    1.401   .     A
C817   H866    1.082   .     S
C817   C823    1.399   .     A
C817   C1041   1.369   .     S
C818   O881    1.304   .     A
C818   O882    1.318   .     A
C819   H860    1.081   .     S
C819   C820    1.396   .     A
C819   C1261   1.369   1_545 S
C820   C821    1.409   .     A
C820   C829    1.429   .     S
C821   I870    2.149   .     S
C821   C1266   1.375   1_545 S
C822   I871    2.131   .     S
C822   C823    1.400   .     A
C822   C1043   1.375   .     S
C824   I872    2.113   .     S
C824   N878    1.374   .     A
C824   C677    1.432   1_655 S
C825   N877    1.379   .     A
C825   I873    2.151   .     S
C826   C837    1.422   .     A
C826   C169    1.440   1_556 S
C826   C177    1.428   1_556 S
C827   I874    2.154   .     S
C827   N877    1.369   .     A
C828   N878    1.396   .     A
C828   C836    1.528   .     S
C828   C679    1.427   1_655 S
C829   O883    1.292   .     A
C829   O884    1.306   .     A
C830   O886    1.309   .     A
C830   O885    1.307   .     A
C830   C832    1.465   .     S
C831   C848    1.403   .     A
C832   C848    1.393   .     A
C832   C847    1.387   .     A
C833   I875    2.111   .     S
C833   C834    1.380   .     A
C834   C169    1.393   1_556 S
C834   H199    1.084   1_556 S
C835   I876    2.127   .     S
C836   H850    1.096   .     S
C836   C838    1.528   .     S
C836   H851    1.105   .     S
C837   C846    1.419   .     A
C838   H869    1.111   .     S
C838   H868    1.106   .     S
C838   H867    1.108   .     S
C839   H856    1.110   .     S
C839   H855    1.112   .     S
C839   C165    1.533   1_556 S
C839   C174    1.530   1_556 S
C840   H853    1.109   .     S
C840   H704    1.111   1_655 S
C840   H40     1.111   1_655 S
C841   H862    1.110   .     S
C841   H861    1.103   .     S
C841   C846    1.519   .     S
C841   C842    1.532   .     S
C842   H857    1.110   .     S
C842   H859    1.110   .     S
C842   H858    1.111   .     S
C843   C847    1.395   .     A
C844   C845    1.398   .     A
C844   C177    1.428   1_556 S
C844   C165    1.425   1_556 S
C845   C846    1.389   .     A
C845   H863    1.080   .     S
C847   H864    1.072   .     S
C848   H849    1.068   .     S
H854   C100    1.111   1_556 S
N877   Zn887   2.043   .     S
N878   Zn888   2.043   .     S
O879   Zn887   2.008   .     S
O880   Zn888   1.990   .     S
O881   Zn887   1.954   .     S
O882   Zn888   1.899   .     S
O883   Zn887   1.990   .     S
O884   Zn888   2.008   .     S
O885   Zn887   1.899   .     S
O886   Zn888   1.954   .     S
C889   O953    1.302   .     A
C889   O954    1.299   .     A
C889   C897    1.433   .     S
C890   C892    1.482   .     S
C890   C911    1.410   .     A
C890   C907    1.401   .     A
C891   H940    1.082   .     S
C891   C897    1.399   .     A
C891   C1115   1.369   .     S
C892   O955    1.304   .     A
C892   O956    1.318   .     A
C893   H934    1.081   .     S
C893   C894    1.396   .     A
C894   C895    1.409   .     A
C894   C903    1.429   .     S
C895   I944    2.149   .     S
C896   I945    2.131   .     S
C896   C897    1.400   .     A
C896   C1117   1.375   .     S
C898   I946    2.113   .     S
C898   N952    1.374   .     A
C898   C973    1.432   .     S
C899   N951    1.379   .     A
C899   I947    2.151   .     S
C899   C1046   1.432   1_455 S
C900   C911    1.422   .     A
C900   C243    1.440   1_556 S
C900   C251    1.428   1_556 S
C901   I948    2.154   .     S
C901   N951    1.369   .     A
C901   C1050   1.427   1_455 S
C902   N952    1.396   .     A
C902   C910    1.528   .     S
C902   C975    1.427   .     S
C903   O957    1.292   .     A
C903   O958    1.306   .     A
C904   O960    1.309   .     A
C904   O959    1.307   .     A
C904   C906    1.465   .     S
C905   C922    1.403   .     A
C906   C922    1.393   .     A
C906   C921    1.387   .     A
C907   I949    2.111   .     S
C907   C908    1.380   .     A
C908   C243    1.393   1_556 S
C908   H273    1.084   1_556 S
C909   I950    2.127   .     S
C910   H924    1.096   .     S
C910   C912    1.528   .     S
C910   H925    1.105   .     S
C911   C920    1.419   .     A
C912   H943    1.111   .     S
C912   H942    1.106   .     S
C912   H941    1.108   .     S
C913   H930    1.110   .     S
C913   H929    1.112   .     S
C913   C239    1.533   1_556 S
C913   C248    1.530   1_556 S
C914   H927    1.109   .     S
C914   H1000   1.111   .     S
C915   H936    1.110   .     S
C915   H935    1.103   .     S
C915   C920    1.519   .     S
C915   C916    1.532   .     S
C916   H931    1.110   .     S
C916   H933    1.110   .     S
C916   H932    1.111   .     S
C917   C921    1.395   .     A
C918   C919    1.398   .     A
C918   C251    1.428   1_556 S
C918   C239    1.425   1_556 S
C919   C920    1.389   .     A
C919   H937    1.080   .     S
C921   H938    1.072   .     S
C922   H923    1.068   .     S
H926   C1062   1.111   1_455 S
H928   C396    1.111   1_456 S
N951   Zn961   2.043   .     S
N952   Zn962   2.043   .     S
O953   Zn961   2.008   .     S
O954   Zn962   1.990   .     S
O955   Zn961   1.954   .     S
O956   Zn962   1.899   .     S
O957   Zn961   1.990   .     S
O958   Zn962   2.008   .     S
O959   Zn961   1.899   .     S
O960   Zn962   1.954   .     S
C963   O1027   1.302   .     A
C963   O1028   1.299   .     A
C963   C971    1.433   .     S
C964   C966    1.482   .     S
C964   C985    1.410   .     A
C964   C981    1.401   .     A
C965   H1014   1.082   .     S
C965   C971    1.399   .     A
C965   C1189   1.369   .     S
C966   O1029   1.304   .     A
C966   O1030   1.318   .     A
C967   H1008   1.081   .     S
C967   C968    1.396   .     A
C968   C969    1.409   .     A
C968   C977    1.429   .     S
C969   I1018   2.149   .     S
C970   I1019   2.131   .     S
C970   C971    1.400   .     A
C970   C1191   1.375   .     S
C972   I1020   2.113   .     S
C972   N1026   1.374   .     A
C972   C1047   1.432   .     S
C973   N1025   1.379   .     A
C973   I1021   2.151   .     S
C974   C985    1.422   .     A
C974   C317    1.440   1_556 S
C974   C325    1.428   1_556 S
C975   I1022   2.154   .     S
C975   N1025   1.369   .     A
C976   N1026   1.396   .     A
C976   C984    1.528   .     S
C976   C1049   1.427   .     S
C977   O1031   1.292   .     A
C977   O1032   1.306   .     A
C978   O1034   1.309   .     A
C978   O1033   1.307   .     A
C978   C980    1.465   .     S
C979   C996    1.403   .     A
C980   C996    1.393   .     A
C980   C995    1.387   .     A
C981   I1023   2.111   .     S
C981   C982    1.380   .     A
C982   C317    1.393   1_556 S
C982   H347    1.084   1_556 S
C983   I1024   2.127   .     S
C984   H998    1.096   .     S
C984   C986    1.528   .     S
C984   H999    1.105   .     S
C985   C994    1.419   .     A
C986   H1017   1.111   .     S
C986   H1016   1.106   .     S
C986   H1015   1.108   .     S
C987   H1004   1.110   .     S
C987   H1003   1.112   .     S
C987   C313    1.533   1_556 S
C987   C322    1.530   1_556 S
C988   H1001   1.109   .     S
C988   H1074   1.111   .     S
C989   H1010   1.110   .     S
C989   H1009   1.103   .     S
C989   C994    1.519   .     S
C989   C990    1.532   .     S
C990   H1005   1.110   .     S
C990   H1007   1.110   .     S
C990   H1006   1.111   .     S
C991   C995    1.395   .     A
C992   C993    1.398   .     A
C992   C325    1.428   1_556 S
C992   C313    1.425   1_556 S
C993   C994    1.389   .     A
C993   H1011   1.080   .     S
C995   H1012   1.072   .     S
C996   H997    1.068   .     S
H1002  C248    1.111   1_556 S
N1025  Zn1035  2.043   .     S
N1026  Zn1036  2.043   .     S
O1027  Zn1035  2.008   .     S
O1028  Zn1036  1.990   .     S
O1029  Zn1035  1.954   .     S
O1030  Zn1036  1.899   .     S
O1031  Zn1035  1.990   .     S
O1032  Zn1036  2.008   .     S
O1033  Zn1035  1.899   .     S
O1034  Zn1036  1.954   .     S
C1037  O1101   1.302   .     A
C1037  O1102   1.299   .     A
C1037  C1045   1.433   .     S
C1038  C1040   1.482   .     S
C1038  C1059   1.410   .     A
C1038  C1055   1.401   .     A
C1039  H1088   1.082   .     S
C1039  C1045   1.399   .     A
C1039  C1263   1.369   .     S
C1040  O1103   1.304   .     A
C1040  O1104   1.318   .     A
C1041  H1082   1.081   .     S
C1041  C1042   1.396   .     A
C1042  C1043   1.409   .     A
C1042  C1051   1.429   .     S
C1043  I1092   2.149   .     S
C1044  I1093   2.131   .     S
C1044  C1045   1.400   .     A
C1044  C1265   1.375   .     S
C1046  I1094   2.113   .     S
C1046  N1100   1.374   .     A
C1046  C899    1.432   1_655 S
C1047  N1099   1.379   .     A
C1047  I1095   2.151   .     S
C1048  C1059   1.422   .     A
C1048  C391    1.440   1_556 S
C1048  C399    1.428   1_556 S
C1049  I1096   2.154   .     S
C1049  N1099   1.369   .     A
C1050  N1100   1.396   .     A
C1050  C1058   1.528   .     S
C1050  C901    1.427   1_655 S
C1051  O1105   1.292   .     A
C1051  O1106   1.306   .     A
C1052  O1108   1.309   .     A
C1052  O1107   1.307   .     A
C1052  C1054   1.465   .     S
C1053  C1070   1.403   .     A
C1054  C1070   1.393   .     A
C1054  C1069   1.387   .     A
C1055  I1097   2.111   .     S
C1055  C1056   1.380   .     A
C1056  C391    1.393   1_556 S
C1056  H421    1.084   1_556 S
C1057  I1098   2.127   .     S
C1058  H1072   1.096   .     S
C1058  C1060   1.528   .     S
C1058  H1073   1.105   .     S
C1059  C1068   1.419   .     A
C1060  H1091   1.111   .     S
C1060  H1090   1.106   .     S
C1060  H1089   1.108   .     S
C1061  H1078   1.110   .     S
C1061  H1077   1.112   .     S
C1061  C387    1.533   1_556 S
C1061  C396    1.530   1_556 S
C1062  H1075   1.109   .     S
C1062  H926    1.111   1_655 S
C1062  H262    1.111   1_655 S
C1063  H1084   1.110   .     S
C1063  H1083   1.103   .     S
C1063  C1068   1.519   .     S
C1063  C1064   1.532   .     S
C1064  H1079   1.110   .     S
C1064  H1081   1.110   .     S
C1064  H1080   1.111   .     S
C1065  C1069   1.395   .     A
C1066  C1067   1.398   .     A
C1066  C399    1.428   1_556 S
C1066  C387    1.425   1_556 S
C1067  C1068   1.389   .     A
C1067  H1085   1.080   .     S
C1069  H1086   1.072   .     S
C1070  H1071   1.068   .     S
H1076  C322    1.111   1_556 S
N1099  Zn1109  2.043   .     S
N1100  Zn1110  2.043   .     S
O1101  Zn1109  2.008   .     S
O1102  Zn1110  1.990   .     S
O1103  Zn1109  1.954   .     S
O1104  Zn1110  1.899   .     S
O1105  Zn1109  1.990   .     S
O1106  Zn1110  2.008   .     S
O1107  Zn1109  1.899   .     S
O1108  Zn1110  1.954   .     S
C1111  O1175   1.302   .     A
C1111  O1176   1.299   .     A
C1111  C1119   1.433   .     S
C1112  C1114   1.482   .     S
C1112  C1133   1.410   .     A
C1112  C1129   1.401   .     A
C1113  H1162   1.082   .     S
C1113  C1119   1.399   .     A
C1113  C671    1.369   1_565 S
C1114  O1177   1.304   .     A
C1114  O1178   1.318   .     A
C1115  H1156   1.081   .     S
C1115  C1116   1.396   .     A
C1116  C1117   1.409   .     A
C1116  C1125   1.429   .     S
C1117  I1166   2.149   .     S
C1118  I1167   2.131   .     S
C1118  C1119   1.400   .     A
C1118  C673    1.375   1_565 S
C1120  I1168   2.113   .     S
C1120  N1174   1.374   .     A
C1120  C1195   1.432   .     S
C1121  N1173   1.379   .     A
C1121  I1169   2.151   .     S
C1121  C1268   1.432   1_455 S
C1122  C1133   1.422   .     A
C1122  C465    1.440   1_556 S
C1122  C473    1.428   1_556 S
C1123  I1170   2.154   .     S
C1123  N1173   1.369   .     A
C1123  C1272   1.427   1_455 S
C1124  N1174   1.396   .     A
C1124  C1132   1.528   .     S
C1124  C1197   1.427   .     S
C1125  O1179   1.292   .     A
C1125  O1180   1.306   .     A
C1126  O1182   1.309   .     A
C1126  O1181   1.307   .     A
C1126  C1128   1.465   .     S
C1127  C1144   1.403   .     A
C1128  C1144   1.393   .     A
C1128  C1143   1.387   .     A
C1129  I1171   2.111   .     S
C1129  C1130   1.380   .     A
C1130  C465    1.393   1_556 S
C1130  H495    1.084   1_556 S
C1131  I1172   2.127   .     S
C1132  H1146   1.096   .     S
C1132  C1134   1.528   .     S
C1132  H1147   1.105   .     S
C1133  C1142   1.419   .     A
C1134  H1165   1.111   .     S
C1134  H1164   1.106   .     S
C1134  H1163   1.108   .     S
C1135  H1152   1.110   .     S
C1135  H1151   1.112   .     S
C1135  C461    1.533   1_556 S
C1135  C470    1.530   1_556 S
C1136  H1149   1.109   .     S
C1136  H1222   1.111   .     S
C1137  H1158   1.110   .     S
C1137  H1157   1.103   .     S
C1137  C1142   1.519   .     S
C1137  C1138   1.532   .     S
C1138  H1153   1.110   .     S
C1138  H1155   1.110   .     S
C1138  H1154   1.111   .     S
C1139  C1143   1.395   .     A
C1140  C1141   1.398   .     A
C1140  C473    1.428   1_556 S
C1140  C461    1.425   1_556 S
C1141  C1142   1.389   .     A
C1141  H1159   1.080   .     S
C1143  H1160   1.072   .     S
C1144  H1145   1.068   .     S
H1148  C1284   1.111   1_455 S
H1150  C618    1.111   1_456 S
N1173  Zn1183  2.043   .     S
N1174  Zn1184  2.043   .     S
O1175  Zn1183  2.008   .     S
O1176  Zn1184  1.990   .     S
O1177  Zn1183  1.954   .     S
O1178  Zn1184  1.899   .     S
O1179  Zn1183  1.990   .     S
O1180  Zn1184  2.008   .     S
O1181  Zn1183  1.899   .     S
O1182  Zn1184  1.954   .     S
C1185  O1249   1.302   .     A
C1185  O1250   1.299   .     A
C1185  C1193   1.433   .     S
C1186  C1188   1.482   .     S
C1186  C1207   1.410   .     A
C1186  C1203   1.401   .     A
C1187  H1236   1.082   .     S
C1187  C1193   1.399   .     A
C1187  C745    1.369   1_565 S
C1188  O1251   1.304   .     A
C1188  O1252   1.318   .     A
C1189  H1230   1.081   .     S
C1189  C1190   1.396   .     A
C1190  C1191   1.409   .     A
C1190  C1199   1.429   .     S
C1191  I1240   2.149   .     S
C1192  I1241   2.131   .     S
C1192  C1193   1.400   .     A
C1192  C747    1.375   1_565 S
C1194  I1242   2.113   .     S
C1194  N1248   1.374   .     A
C1194  C1269   1.432   .     S
C1195  N1247   1.379   .     A
C1195  I1243   2.151   .     S
C1196  C1207   1.422   .     A
C1196  C539    1.440   1_556 S
C1196  C547    1.428   1_556 S
C1197  I1244   2.154   .     S
C1197  N1247   1.369   .     A
C1198  N1248   1.396   .     A
C1198  C1206   1.528   .     S
C1198  C1271   1.427   .     S
C1199  O1253   1.292   .     A
C1199  O1254   1.306   .     A
C1200  O1256   1.309   .     A
C1200  O1255   1.307   .     A
C1200  C1202   1.465   .     S
C1201  C1218   1.403   .     A
C1202  C1218   1.393   .     A
C1202  C1217   1.387   .     A
C1203  I1245   2.111   .     S
C1203  C1204   1.380   .     A
C1204  C539    1.393   1_556 S
C1204  H569    1.084   1_556 S
C1205  I1246   2.127   .     S
C1206  H1220   1.096   .     S
C1206  C1208   1.528   .     S
C1206  H1221   1.105   .     S
C1207  C1216   1.419   .     A
C1208  H1239   1.111   .     S
C1208  H1238   1.106   .     S
C1208  H1237   1.108   .     S
C1209  H1226   1.110   .     S
C1209  H1225   1.112   .     S
C1209  C535    1.533   1_556 S
C1209  C544    1.530   1_556 S
C1210  H1223   1.109   .     S
C1210  H1296   1.111   .     S
C1211  H1232   1.110   .     S
C1211  H1231   1.103   .     S
C1211  C1216   1.519   .     S
C1211  C1212   1.532   .     S
C1212  H1227   1.110   .     S
C1212  H1229   1.110   .     S
C1212  H1228   1.111   .     S
C1213  C1217   1.395   .     A
C1214  C1215   1.398   .     A
C1214  C547    1.428   1_556 S
C1214  C535    1.425   1_556 S
C1215  C1216   1.389   .     A
C1215  H1233   1.080   .     S
C1217  H1234   1.072   .     S
C1218  H1219   1.068   .     S
H1224  C470    1.111   1_556 S
N1247  Zn1257  2.043   .     S
N1248  Zn1258  2.043   .     S
O1249  Zn1257  2.008   .     S
O1250  Zn1258  1.990   .     S
O1251  Zn1257  1.954   .     S
O1252  Zn1258  1.899   .     S
O1253  Zn1257  1.990   .     S
O1254  Zn1258  2.008   .     S
O1255  Zn1257  1.899   .     S
O1256  Zn1258  1.954   .     S
C1259  O1323   1.302   .     A
C1259  O1324   1.299   .     A
C1259  C1267   1.433   .     S
C1260  C1262   1.482   .     S
C1260  C1281   1.410   .     A
C1260  C1277   1.401   .     A
C1261  H1310   1.082   .     S
C1261  C1267   1.399   .     A
C1261  C819    1.369   1_565 S
C1262  O1325   1.304   .     A
C1262  O1326   1.318   .     A
C1263  H1304   1.081   .     S
C1263  C1264   1.396   .     A
C1264  C1265   1.409   .     A
C1264  C1273   1.429   .     S
C1265  I1314   2.149   .     S
C1266  I1315   2.131   .     S
C1266  C1267   1.400   .     A
C1266  C821    1.375   1_565 S
C1268  I1316   2.113   .     S
C1268  N1322   1.374   .     A
C1268  C1121   1.432   1_655 S
C1269  N1321   1.379   .     A
C1269  I1317   2.151   .     S
C1270  C1281   1.422   .     A
C1270  C613    1.440   1_556 S
C1270  C621    1.428   1_556 S
C1271  I1318   2.154   .     S
C1271  N1321   1.369   .     A
C1272  N1322   1.396   .     A
C1272  C1280   1.528   .     S
C1272  C1123   1.427   1_655 S
C1273  O1327   1.292   .     A
C1273  O1328   1.306   .     A
C1274  O1330   1.309   .     A
C1274  O1329   1.307   .     A
C1274  C1276   1.465   .     S
C1275  C1292   1.403   .     A
C1276  C1292   1.393   .     A
C1276  C1291   1.387   .     A
C1277  I1319   2.111   .     S
C1277  C1278   1.380   .     A
C1278  C613    1.393   1_556 S
C1278  H643    1.084   1_556 S
C1279  I1320   2.127   .     S
C1280  H1294   1.096   .     S
C1280  C1282   1.528   .     S
C1280  H1295   1.105   .     S
C1281  C1290   1.419   .     A
C1282  H1313   1.111   .     S
C1282  H1312   1.106   .     S
C1282  H1311   1.108   .     S
C1283  H1300   1.110   .     S
C1283  H1299   1.112   .     S
C1283  C609    1.533   1_556 S
C1283  C618    1.530   1_556 S
C1284  H1297   1.109   .     S
C1284  H1148   1.111   1_655 S
C1284  H484    1.111   1_655 S
C1285  H1306   1.110   .     S
C1285  H1305   1.103   .     S
C1285  C1290   1.519   .     S
C1285  C1286   1.532   .     S
C1286  H1301   1.110   .     S
C1286  H1303   1.110   .     S
C1286  H1302   1.111   .     S
C1287  C1291   1.395   .     A
C1288  C1289   1.398   .     A
C1288  C621    1.428   1_556 S
C1288  C609    1.425   1_556 S
C1289  C1290   1.389   .     A
C1289  H1307   1.080   .     S
C1291  H1308   1.072   .     S
C1292  H1293   1.068   .     S
H1298  C544    1.111   1_556 S
N1321  Zn1331  2.043   .     S
N1322  Zn1332  2.043   .     S
O1323  Zn1331  2.008   .     S
O1324  Zn1332  1.990   .     S
O1325  Zn1331  1.954   .     S
O1326  Zn1332  1.899   .     S
O1327  Zn1331  1.990   .     S
O1328  Zn1332  2.008   .     S
O1329  Zn1331  1.899   .     S
O1330  Zn1332  1.954   .     S
