data_str_m3_o1_o16_pcu_sym.240
_audit_creation_date              2020-01-03
_audit_creation_method            'Materials Studio'
_symmetry_space_group_name_H-M    'P1'
_symmetry_Int_Tables_number       1
_symmetry_cell_setting            triclinic
loop_
_symmetry_equiv_pos_as_xyz
  x,y,z
_cell_length_a                    29.8999
_cell_length_b                    31.9149
_cell_length_c                    26.4763
_cell_angle_alpha                 92.3791
_cell_angle_beta                  70.9692
_cell_angle_gamma                 90.6518
loop_
_atom_site_label
_atom_site_type_symbol
_atom_site_fract_x
_atom_site_fract_y
_atom_site_fract_z
_atom_site_U_iso_or_equiv
_atom_site_adp_type
_atom_site_occupancy
C1     C     0.16715   0.24638   0.24913   0.00000  Uiso   1.00
C2     C     0.15947   0.14826   0.47901   0.00000  Uiso   1.00
C3     C     0.15584   0.17198   0.43710   0.00000  Uiso   1.00
C4     C     0.18887   0.16384   0.00800   0.00000  Uiso   1.00
C5     C     0.22507   0.19312   0.48478   0.00000  Uiso   1.00
C6     C     0.22096   0.21697   0.44285   0.00000  Uiso   1.00
C7     C     0.18427   0.20776   0.42222   0.00000  Uiso   1.00
C8     C     0.17850   0.15591   0.06231   0.00000  Uiso   1.00
C9     C     0.25140   0.19123   0.06228   0.00000  Uiso   1.00
C10    C     0.12548   0.15865   0.40869   0.00000  Uiso   1.00
C11    C     0.17180   0.31233   0.29356   0.00000  Uiso   1.00
C12    C     0.14044   0.16668   0.35168   0.00000  Uiso   1.00
C13    C     0.17021   0.02274   0.29566   0.00000  Uiso   1.00
C14    C     0.16582   0.04271   0.25104   0.00000  Uiso   1.00
C15    C     0.16234   0.02100   0.20540   0.00000  Uiso   1.00
C16    C     0.16405   0.31056   0.20328   0.00000  Uiso   1.00
C17    C     0.16793   0.29061   0.24816   0.00000  Uiso   1.00
C18    C     0.31549   0.13494   0.22445   0.00000  Uiso   1.00
C19    C     0.03064   0.13522   0.22321   0.00000  Uiso   1.00
C20    C     0.01642   0.19775   0.27705   0.00000  Uiso   1.00
C21    C     0.30245   0.19805   0.27620   0.00000  Uiso   1.00
C22    C     0.16634   0.08694   0.25040   0.00000  Uiso   1.00
C23    C     0.19292   0.16693   0.14817   0.00000  Uiso   1.00
C24    C     0.26055   0.20105   0.00867   0.00000  Uiso   1.00
C25    C     0.20892   0.17037   0.08989   0.00000  Uiso   1.00
C26    C     0.09238   0.12657   0.42816   0.00000  Uiso   1.00
C27    C     0.09718   0.10209   0.46881   0.00000  Uiso   1.00
C28    C     0.13353   0.10995   0.49007   0.00000  Uiso   1.00
H29    H     0.07564   0.07434   0.48028   0.00000  Uiso   1.00
H30    H     0.17848   0.22812   0.39337   0.00000  Uiso   1.00
N31    N     0.04760   0.16668   0.25002   0.00000  Uiso   1.00
N32    N     0.28573   0.16665   0.25001   0.00000  Uiso   1.00
O33    O     0.12846   0.22775   0.25001   0.00000  Uiso   1.00
O34    O     0.20490   0.22774   0.25001   0.00000  Uiso   1.00
O35    O     0.10947   0.16666   0.32681   0.00000  Uiso   1.00
O36    O     0.18591   0.16665   0.32681   0.00000  Uiso   1.00
O37    O     0.12843   0.10559   0.25000   0.00000  Uiso   1.00
O38    O     0.20488   0.10558   0.25000   0.00000  Uiso   1.00
O39    O     0.14742   0.16668   0.17319   0.00000  Uiso   1.00
O40    O     0.22387   0.16667   0.17319   0.00000  Uiso   1.00
Zn41   Zn    0.11562   0.16667   0.25000   0.00000  Uiso   1.00
Zn42   Zn    0.21771   0.16666   0.25000   0.00000  Uiso   1.00
O43    O     0.28261   0.20542   0.08763   0.00000  Uiso   1.00
H44    H     0.26412   0.22243   0.11966   0.00000  Uiso   1.00
C45    C     0.17119   0.04722   0.34573   0.00000  Uiso   1.00
H46    H     0.20614   0.04336   0.35124   0.00000  Uiso   1.00
H47    H     0.16501   0.08116   0.34495   0.00000  Uiso   1.00
H48    H     0.14283   0.03575   0.38109   0.00000  Uiso   1.00
O49    O     0.15953   0.04404   0.16325   0.00000  Uiso   1.00
H50    H     0.14823   0.02635   0.13841   0.00000  Uiso   1.00
C51    C     0.16416   0.28601   0.15284   0.00000  Uiso   1.00
H52    H     0.12927   0.28916   0.14694   0.00000  Uiso   1.00
H53    H     0.19243   0.29802   0.11777   0.00000  Uiso   1.00
H54    H     0.17135   0.25220   0.15341   0.00000  Uiso   1.00
O55    O     0.29765   0.10391   0.19861   0.00000  Uiso   1.00
H56    H     0.31407   0.07717   0.19847   0.00000  Uiso   1.00
C57    C     0.06245   0.10076   0.19089   0.00000  Uiso   1.00
H58    H     0.09980   0.10856   0.18005   0.00000  Uiso   1.00
H59    H     0.05575   0.07148   0.21340   0.00000  Uiso   1.00
H60    H     0.05624   0.09504   0.15204   0.00000  Uiso   1.00
C61    C     0.03146   0.23235   0.30845   0.00000  Uiso   1.00
H62    H     0.05568   0.22066   0.32830   0.00000  Uiso   1.00
H63    H     0.04797   0.25808   0.28169   0.00000  Uiso   1.00
H64    H     0.00107   0.24581   0.34134   0.00000  Uiso   1.00
O65    O     0.27401   0.23116   0.30184   0.00000  Uiso   1.00
H66    H     0.24135   0.22098   0.31376   0.00000  Uiso   1.00
O67    O     0.24894   0.25196   0.42714   0.00000  Uiso   1.00
H68    H     0.23933   0.26651   0.39996   0.00000  Uiso   1.00
C69    C     0.30750   0.22066   0.47877   0.00000  Uiso   1.00
H70    H     0.30572   0.25517   0.48644   0.00000  Uiso   1.00
H71    H     0.00295   0.20784   0.49162   0.00000  Uiso   1.00
H72    H     0.31756   0.21306   0.43519   0.00000  Uiso   1.00
O73    O     0.13582   0.13834   0.09071   0.00000  Uiso   1.00
H74    H     0.11059   0.15231   0.08074   0.00000  Uiso   1.00
O75    O     0.06006   0.11616   0.40248   0.00000  Uiso   1.00
H76    H     0.04021   0.09260   0.42071   0.00000  Uiso   1.00
O77    O     0.14423   0.07847   0.01849   0.00000  Uiso   1.00
H78    H     0.17777   0.08149   0.01652   0.00000  Uiso   1.00
O79    O     0.17526   0.28926   0.33536   0.00000  Uiso   1.00
H80    H     0.18563   0.30709   0.36081   0.00000  Uiso   1.00
C81    C     0.50048   0.24638   0.24913   0.00000  Uiso   1.00
C82    C     0.49281   0.14826   0.47901   0.00000  Uiso   1.00
C83    C     0.48917   0.17198   0.43710   0.00000  Uiso   1.00
C84    C     0.52221   0.16384   0.00800   0.00000  Uiso   1.00
C85    C     0.55841   0.19312   0.48478   0.00000  Uiso   1.00
C86    C     0.55429   0.21697   0.44285   0.00000  Uiso   1.00
C87    C     0.51760   0.20776   0.42222   0.00000  Uiso   1.00
C88    C     0.51183   0.15591   0.06231   0.00000  Uiso   1.00
C89    C     0.58473   0.19123   0.06228   0.00000  Uiso   1.00
C90    C     0.45882   0.15865   0.40869   0.00000  Uiso   1.00
C91    C     0.50513   0.31233   0.29356   0.00000  Uiso   1.00
C92    C     0.47378   0.16668   0.35168   0.00000  Uiso   1.00
C93    C     0.50355   0.02274   0.29566   0.00000  Uiso   1.00
C94    C     0.49916   0.04271   0.25104   0.00000  Uiso   1.00
C95    C     0.49567   0.02100   0.20540   0.00000  Uiso   1.00
C96    C     0.49739   0.31056   0.20328   0.00000  Uiso   1.00
C97    C     0.50127   0.29061   0.24816   0.00000  Uiso   1.00
C98    C     0.64882   0.13494   0.22445   0.00000  Uiso   1.00
C99    C     0.36397   0.13522   0.22321   0.00000  Uiso   1.00
C100   C     0.34976   0.19775   0.27705   0.00000  Uiso   1.00
C101   C     0.63578   0.19805   0.27620   0.00000  Uiso   1.00
C102   C     0.49967   0.08694   0.25040   0.00000  Uiso   1.00
C103   C     0.52625   0.16693   0.14817   0.00000  Uiso   1.00
C104   C     0.59388   0.20105   0.00867   0.00000  Uiso   1.00
C105   C     0.54225   0.17037   0.08989   0.00000  Uiso   1.00
C106   C     0.42572   0.12657   0.42816   0.00000  Uiso   1.00
C107   C     0.43052   0.10209   0.46881   0.00000  Uiso   1.00
C108   C     0.46686   0.10995   0.49007   0.00000  Uiso   1.00
H109   H     0.40898   0.07434   0.48028   0.00000  Uiso   1.00
H110   H     0.51182   0.22812   0.39337   0.00000  Uiso   1.00
N111   N     0.38093   0.16668   0.25002   0.00000  Uiso   1.00
N112   N     0.61906   0.16665   0.25001   0.00000  Uiso   1.00
O113   O     0.46179   0.22775   0.25001   0.00000  Uiso   1.00
O114   O     0.53823   0.22774   0.25001   0.00000  Uiso   1.00
O115   O     0.44280   0.16666   0.32681   0.00000  Uiso   1.00
O116   O     0.51924   0.16665   0.32681   0.00000  Uiso   1.00
O117   O     0.46177   0.10559   0.25000   0.00000  Uiso   1.00
O118   O     0.53821   0.10558   0.25000   0.00000  Uiso   1.00
O119   O     0.48076   0.16668   0.17319   0.00000  Uiso   1.00
O120   O     0.55720   0.16667   0.17319   0.00000  Uiso   1.00
Zn121  Zn    0.44896   0.16667   0.25000   0.00000  Uiso   1.00
Zn122  Zn    0.55104   0.16666   0.25000   0.00000  Uiso   1.00
O123   O     0.61595   0.20542   0.08763   0.00000  Uiso   1.00
H124   H     0.59745   0.22243   0.11966   0.00000  Uiso   1.00
C125   C     0.50452   0.04722   0.34573   0.00000  Uiso   1.00
H126   H     0.53948   0.04336   0.35124   0.00000  Uiso   1.00
H127   H     0.49834   0.08116   0.34495   0.00000  Uiso   1.00
H128   H     0.47616   0.03575   0.38109   0.00000  Uiso   1.00
O129   O     0.49286   0.04404   0.16325   0.00000  Uiso   1.00
H130   H     0.48157   0.02635   0.13841   0.00000  Uiso   1.00
C131   C     0.49749   0.28601   0.15284   0.00000  Uiso   1.00
H132   H     0.46260   0.28916   0.14694   0.00000  Uiso   1.00
H133   H     0.52576   0.29802   0.11777   0.00000  Uiso   1.00
H134   H     0.50469   0.25220   0.15341   0.00000  Uiso   1.00
O135   O     0.63098   0.10391   0.19861   0.00000  Uiso   1.00
H136   H     0.64741   0.07717   0.19847   0.00000  Uiso   1.00
C137   C     0.39578   0.10076   0.19089   0.00000  Uiso   1.00
H138   H     0.43313   0.10856   0.18005   0.00000  Uiso   1.00
H139   H     0.38908   0.07148   0.21340   0.00000  Uiso   1.00
H140   H     0.38957   0.09504   0.15204   0.00000  Uiso   1.00
C141   C     0.36479   0.23235   0.30845   0.00000  Uiso   1.00
H142   H     0.38901   0.22066   0.32830   0.00000  Uiso   1.00
H143   H     0.38130   0.25808   0.28169   0.00000  Uiso   1.00
H144   H     0.33441   0.24581   0.34134   0.00000  Uiso   1.00
O145   O     0.60735   0.23116   0.30184   0.00000  Uiso   1.00
H146   H     0.57468   0.22098   0.31376   0.00000  Uiso   1.00
O147   O     0.58227   0.25196   0.42714   0.00000  Uiso   1.00
H148   H     0.57266   0.26651   0.39996   0.00000  Uiso   1.00
C149   C     0.64083   0.22066   0.47877   0.00000  Uiso   1.00
H150   H     0.63905   0.25517   0.48644   0.00000  Uiso   1.00
H151   H     0.33628   0.20784   0.49162   0.00000  Uiso   1.00
H152   H     0.65089   0.21306   0.43519   0.00000  Uiso   1.00
O153   O     0.46915   0.13834   0.09071   0.00000  Uiso   1.00
H154   H     0.44392   0.15231   0.08074   0.00000  Uiso   1.00
O155   O     0.39339   0.11616   0.40248   0.00000  Uiso   1.00
H156   H     0.37355   0.09260   0.42071   0.00000  Uiso   1.00
O157   O     0.47756   0.07847   0.01849   0.00000  Uiso   1.00
H158   H     0.51111   0.08149   0.01652   0.00000  Uiso   1.00
O159   O     0.50860   0.28926   0.33536   0.00000  Uiso   1.00
H160   H     0.51896   0.30709   0.36081   0.00000  Uiso   1.00
C161   C     0.83382   0.24638   0.24913   0.00000  Uiso   1.00
C162   C     0.82614   0.14826   0.47901   0.00000  Uiso   1.00
C163   C     0.82250   0.17198   0.43710   0.00000  Uiso   1.00
C164   C     0.85554   0.16384   0.00800   0.00000  Uiso   1.00
C165   C     0.89174   0.19312   0.48478   0.00000  Uiso   1.00
C166   C     0.88763   0.21697   0.44285   0.00000  Uiso   1.00
C167   C     0.85094   0.20776   0.42222   0.00000  Uiso   1.00
C168   C     0.84516   0.15591   0.06231   0.00000  Uiso   1.00
C169   C     0.91807   0.19123   0.06228   0.00000  Uiso   1.00
C170   C     0.79215   0.15865   0.40869   0.00000  Uiso   1.00
C171   C     0.83846   0.31233   0.29356   0.00000  Uiso   1.00
C172   C     0.80711   0.16668   0.35168   0.00000  Uiso   1.00
C173   C     0.83688   0.02274   0.29566   0.00000  Uiso   1.00
C174   C     0.83249   0.04271   0.25104   0.00000  Uiso   1.00
C175   C     0.82900   0.02100   0.20540   0.00000  Uiso   1.00
C176   C     0.83072   0.31056   0.20328   0.00000  Uiso   1.00
C177   C     0.83460   0.29061   0.24816   0.00000  Uiso   1.00
C178   C     0.98216   0.13494   0.22445   0.00000  Uiso   1.00
C179   C     0.69730   0.13522   0.22321   0.00000  Uiso   1.00
C180   C     0.68309   0.19775   0.27705   0.00000  Uiso   1.00
C181   C     0.96911   0.19805   0.27620   0.00000  Uiso   1.00
C182   C     0.83301   0.08694   0.25040   0.00000  Uiso   1.00
C183   C     0.85958   0.16693   0.14817   0.00000  Uiso   1.00
C184   C     0.92721   0.20105   0.00867   0.00000  Uiso   1.00
C185   C     0.87559   0.17037   0.08989   0.00000  Uiso   1.00
C186   C     0.75905   0.12657   0.42816   0.00000  Uiso   1.00
C187   C     0.76385   0.10209   0.46881   0.00000  Uiso   1.00
C188   C     0.80019   0.10995   0.49007   0.00000  Uiso   1.00
H189   H     0.74231   0.07434   0.48028   0.00000  Uiso   1.00
H190   H     0.84515   0.22812   0.39337   0.00000  Uiso   1.00
N191   N     0.71426   0.16668   0.25002   0.00000  Uiso   1.00
N192   N     0.95239   0.16665   0.25001   0.00000  Uiso   1.00
O193   O     0.79512   0.22775   0.25001   0.00000  Uiso   1.00
O194   O     0.87157   0.22774   0.25001   0.00000  Uiso   1.00
O195   O     0.77613   0.16666   0.32681   0.00000  Uiso   1.00
O196   O     0.85258   0.16665   0.32681   0.00000  Uiso   1.00
O197   O     0.79510   0.10559   0.25000   0.00000  Uiso   1.00
O198   O     0.87154   0.10558   0.25000   0.00000  Uiso   1.00
O199   O     0.81409   0.16668   0.17319   0.00000  Uiso   1.00
O200   O     0.89053   0.16667   0.17319   0.00000  Uiso   1.00
Zn201  Zn    0.78229   0.16667   0.25000   0.00000  Uiso   1.00
Zn202  Zn    0.88438   0.16666   0.25000   0.00000  Uiso   1.00
O203   O     0.94928   0.20542   0.08763   0.00000  Uiso   1.00
H204   H     0.93079   0.22243   0.11966   0.00000  Uiso   1.00
C205   C     0.83785   0.04722   0.34573   0.00000  Uiso   1.00
H206   H     0.87281   0.04336   0.35124   0.00000  Uiso   1.00
H207   H     0.83168   0.08116   0.34495   0.00000  Uiso   1.00
H208   H     0.80949   0.03575   0.38109   0.00000  Uiso   1.00
O209   O     0.82620   0.04404   0.16325   0.00000  Uiso   1.00
H210   H     0.81490   0.02635   0.13841   0.00000  Uiso   1.00
C211   C     0.83083   0.28601   0.15284   0.00000  Uiso   1.00
H212   H     0.79594   0.28916   0.14694   0.00000  Uiso   1.00
H213   H     0.85909   0.29802   0.11777   0.00000  Uiso   1.00
H214   H     0.83802   0.25220   0.15341   0.00000  Uiso   1.00
O215   O     0.96432   0.10391   0.19861   0.00000  Uiso   1.00
H216   H     0.98074   0.07717   0.19847   0.00000  Uiso   1.00
C217   C     0.72912   0.10076   0.19089   0.00000  Uiso   1.00
H218   H     0.76646   0.10856   0.18005   0.00000  Uiso   1.00
H219   H     0.72242   0.07148   0.21340   0.00000  Uiso   1.00
H220   H     0.72291   0.09504   0.15204   0.00000  Uiso   1.00
C221   C     0.69812   0.23235   0.30845   0.00000  Uiso   1.00
H222   H     0.72235   0.22066   0.32830   0.00000  Uiso   1.00
H223   H     0.71464   0.25808   0.28169   0.00000  Uiso   1.00
H224   H     0.66774   0.24581   0.34134   0.00000  Uiso   1.00
O225   O     0.94068   0.23116   0.30184   0.00000  Uiso   1.00
H226   H     0.90802   0.22098   0.31376   0.00000  Uiso   1.00
O227   O     0.91561   0.25196   0.42714   0.00000  Uiso   1.00
H228   H     0.90599   0.26651   0.39996   0.00000  Uiso   1.00
C229   C     0.97417   0.22066   0.47877   0.00000  Uiso   1.00
H230   H     0.97239   0.25517   0.48644   0.00000  Uiso   1.00
H231   H     0.66961   0.20784   0.49162   0.00000  Uiso   1.00
H232   H     0.98422   0.21306   0.43519   0.00000  Uiso   1.00
O233   O     0.80248   0.13834   0.09071   0.00000  Uiso   1.00
H234   H     0.77726   0.15231   0.08074   0.00000  Uiso   1.00
O235   O     0.72673   0.11616   0.40248   0.00000  Uiso   1.00
H236   H     0.70688   0.09260   0.42071   0.00000  Uiso   1.00
O237   O     0.81090   0.07847   0.01849   0.00000  Uiso   1.00
H238   H     0.84444   0.08149   0.01652   0.00000  Uiso   1.00
O239   O     0.84193   0.28926   0.33536   0.00000  Uiso   1.00
H240   H     0.85230   0.30709   0.36081   0.00000  Uiso   1.00
C241   C     0.16715   0.57971   0.24913   0.00000  Uiso   1.00
C242   C     0.15947   0.48159   0.47901   0.00000  Uiso   1.00
C243   C     0.15584   0.50532   0.43710   0.00000  Uiso   1.00
C244   C     0.18887   0.49718   0.00800   0.00000  Uiso   1.00
C245   C     0.22507   0.52645   0.48478   0.00000  Uiso   1.00
C246   C     0.22096   0.55031   0.44285   0.00000  Uiso   1.00
C247   C     0.18427   0.54109   0.42222   0.00000  Uiso   1.00
C248   C     0.17850   0.48924   0.06231   0.00000  Uiso   1.00
C249   C     0.25140   0.52456   0.06228   0.00000  Uiso   1.00
C250   C     0.12548   0.49198   0.40869   0.00000  Uiso   1.00
C251   C     0.17180   0.64566   0.29356   0.00000  Uiso   1.00
C252   C     0.14044   0.50001   0.35168   0.00000  Uiso   1.00
C253   C     0.17021   0.35608   0.29566   0.00000  Uiso   1.00
C254   C     0.16582   0.37604   0.25104   0.00000  Uiso   1.00
C255   C     0.16234   0.35433   0.20540   0.00000  Uiso   1.00
C256   C     0.16405   0.64389   0.20328   0.00000  Uiso   1.00
C257   C     0.16793   0.62395   0.24816   0.00000  Uiso   1.00
C258   C     0.31549   0.46827   0.22445   0.00000  Uiso   1.00
C259   C     0.03064   0.46855   0.22321   0.00000  Uiso   1.00
C260   C     0.01642   0.53108   0.27705   0.00000  Uiso   1.00
C261   C     0.30245   0.53138   0.27620   0.00000  Uiso   1.00
C262   C     0.16634   0.42027   0.25040   0.00000  Uiso   1.00
C263   C     0.19292   0.50027   0.14817   0.00000  Uiso   1.00
C264   C     0.26055   0.53438   0.00867   0.00000  Uiso   1.00
C265   C     0.20892   0.50371   0.08989   0.00000  Uiso   1.00
C266   C     0.09238   0.45990   0.42816   0.00000  Uiso   1.00
C267   C     0.09718   0.43543   0.46881   0.00000  Uiso   1.00
C268   C     0.13353   0.44328   0.49007   0.00000  Uiso   1.00
H269   H     0.07564   0.40767   0.48028   0.00000  Uiso   1.00
H270   H     0.17848   0.56146   0.39337   0.00000  Uiso   1.00
N271   N     0.04760   0.50001   0.25002   0.00000  Uiso   1.00
N272   N     0.28573   0.49998   0.25001   0.00000  Uiso   1.00
O273   O     0.12846   0.56108   0.25001   0.00000  Uiso   1.00
O274   O     0.20490   0.56107   0.25001   0.00000  Uiso   1.00
O275   O     0.10947   0.50000   0.32681   0.00000  Uiso   1.00
O276   O     0.18591   0.49999   0.32681   0.00000  Uiso   1.00
O277   O     0.12843   0.43893   0.25000   0.00000  Uiso   1.00
O278   O     0.20488   0.43892   0.25000   0.00000  Uiso   1.00
O279   O     0.14742   0.50001   0.17319   0.00000  Uiso   1.00
O280   O     0.22387   0.50000   0.17319   0.00000  Uiso   1.00
Zn281  Zn    0.11562   0.50001   0.25000   0.00000  Uiso   1.00
Zn282  Zn    0.21771   0.49999   0.25000   0.00000  Uiso   1.00
O283   O     0.28261   0.53876   0.08763   0.00000  Uiso   1.00
H284   H     0.26412   0.55577   0.11966   0.00000  Uiso   1.00
C285   C     0.17119   0.38055   0.34573   0.00000  Uiso   1.00
H286   H     0.20614   0.37669   0.35124   0.00000  Uiso   1.00
H287   H     0.16501   0.41449   0.34495   0.00000  Uiso   1.00
H288   H     0.14283   0.36908   0.38109   0.00000  Uiso   1.00
O289   O     0.15953   0.37737   0.16325   0.00000  Uiso   1.00
H290   H     0.14823   0.35968   0.13841   0.00000  Uiso   1.00
C291   C     0.16416   0.61935   0.15284   0.00000  Uiso   1.00
H292   H     0.12927   0.62250   0.14694   0.00000  Uiso   1.00
H293   H     0.19243   0.63135   0.11777   0.00000  Uiso   1.00
H294   H     0.17135   0.58554   0.15341   0.00000  Uiso   1.00
O295   O     0.29765   0.43725   0.19861   0.00000  Uiso   1.00
H296   H     0.31407   0.41050   0.19847   0.00000  Uiso   1.00
C297   C     0.06245   0.43409   0.19089   0.00000  Uiso   1.00
H298   H     0.09980   0.44190   0.18005   0.00000  Uiso   1.00
H299   H     0.05575   0.40481   0.21340   0.00000  Uiso   1.00
H300   H     0.05624   0.42838   0.15204   0.00000  Uiso   1.00
C301   C     0.03146   0.56569   0.30845   0.00000  Uiso   1.00
H302   H     0.05568   0.55400   0.32830   0.00000  Uiso   1.00
H303   H     0.04797   0.59141   0.28169   0.00000  Uiso   1.00
H304   H     0.00107   0.57914   0.34134   0.00000  Uiso   1.00
O305   O     0.27401   0.56449   0.30184   0.00000  Uiso   1.00
H306   H     0.24135   0.55431   0.31376   0.00000  Uiso   1.00
O307   O     0.24894   0.58530   0.42714   0.00000  Uiso   1.00
H308   H     0.23933   0.59984   0.39996   0.00000  Uiso   1.00
C309   C     0.30750   0.55400   0.47877   0.00000  Uiso   1.00
H310   H     0.30572   0.58850   0.48644   0.00000  Uiso   1.00
H311   H     0.00295   0.54118   0.49162   0.00000  Uiso   1.00
H312   H     0.31756   0.54639   0.43519   0.00000  Uiso   1.00
O313   O     0.13582   0.47168   0.09071   0.00000  Uiso   1.00
H314   H     0.11059   0.48564   0.08074   0.00000  Uiso   1.00
O315   O     0.06006   0.44949   0.40248   0.00000  Uiso   1.00
H316   H     0.04021   0.42593   0.42071   0.00000  Uiso   1.00
O317   O     0.14423   0.41181   0.01849   0.00000  Uiso   1.00
H318   H     0.17777   0.41482   0.01652   0.00000  Uiso   1.00
O319   O     0.17526   0.62260   0.33536   0.00000  Uiso   1.00
H320   H     0.18563   0.64042   0.36081   0.00000  Uiso   1.00
C321   C     0.50048   0.57971   0.24913   0.00000  Uiso   1.00
C322   C     0.49281   0.48159   0.47901   0.00000  Uiso   1.00
C323   C     0.48917   0.50532   0.43710   0.00000  Uiso   1.00
C324   C     0.52221   0.49718   0.00800   0.00000  Uiso   1.00
C325   C     0.55841   0.52645   0.48478   0.00000  Uiso   1.00
C326   C     0.55429   0.55031   0.44285   0.00000  Uiso   1.00
C327   C     0.51760   0.54109   0.42222   0.00000  Uiso   1.00
C328   C     0.51183   0.48924   0.06231   0.00000  Uiso   1.00
C329   C     0.58473   0.52456   0.06228   0.00000  Uiso   1.00
C330   C     0.45882   0.49198   0.40869   0.00000  Uiso   1.00
C331   C     0.50513   0.64566   0.29356   0.00000  Uiso   1.00
C332   C     0.47378   0.50001   0.35168   0.00000  Uiso   1.00
C333   C     0.50355   0.35608   0.29566   0.00000  Uiso   1.00
C334   C     0.49916   0.37604   0.25104   0.00000  Uiso   1.00
C335   C     0.49567   0.35433   0.20540   0.00000  Uiso   1.00
C336   C     0.49739   0.64389   0.20328   0.00000  Uiso   1.00
C337   C     0.50127   0.62395   0.24816   0.00000  Uiso   1.00
C338   C     0.64882   0.46827   0.22445   0.00000  Uiso   1.00
C339   C     0.36397   0.46855   0.22321   0.00000  Uiso   1.00
C340   C     0.34976   0.53108   0.27705   0.00000  Uiso   1.00
C341   C     0.63578   0.53138   0.27620   0.00000  Uiso   1.00
C342   C     0.49967   0.42027   0.25040   0.00000  Uiso   1.00
C343   C     0.52625   0.50027   0.14817   0.00000  Uiso   1.00
C344   C     0.59388   0.53438   0.00867   0.00000  Uiso   1.00
C345   C     0.54225   0.50371   0.08989   0.00000  Uiso   1.00
C346   C     0.42572   0.45990   0.42816   0.00000  Uiso   1.00
C347   C     0.43052   0.43543   0.46881   0.00000  Uiso   1.00
C348   C     0.46686   0.44328   0.49007   0.00000  Uiso   1.00
H349   H     0.40898   0.40767   0.48028   0.00000  Uiso   1.00
H350   H     0.51182   0.56146   0.39337   0.00000  Uiso   1.00
N351   N     0.38093   0.50001   0.25002   0.00000  Uiso   1.00
N352   N     0.61906   0.49998   0.25001   0.00000  Uiso   1.00
O353   O     0.46179   0.56108   0.25001   0.00000  Uiso   1.00
O354   O     0.53823   0.56107   0.25001   0.00000  Uiso   1.00
O355   O     0.44280   0.50000   0.32681   0.00000  Uiso   1.00
O356   O     0.51924   0.49999   0.32681   0.00000  Uiso   1.00
O357   O     0.46177   0.43893   0.25000   0.00000  Uiso   1.00
O358   O     0.53821   0.43892   0.25000   0.00000  Uiso   1.00
O359   O     0.48076   0.50001   0.17319   0.00000  Uiso   1.00
O360   O     0.55720   0.50000   0.17319   0.00000  Uiso   1.00
Zn361  Zn    0.44896   0.50001   0.25000   0.00000  Uiso   1.00
Zn362  Zn    0.55104   0.49999   0.25000   0.00000  Uiso   1.00
O363   O     0.61595   0.53876   0.08763   0.00000  Uiso   1.00
H364   H     0.59745   0.55577   0.11966   0.00000  Uiso   1.00
C365   C     0.50452   0.38055   0.34573   0.00000  Uiso   1.00
H366   H     0.53948   0.37669   0.35124   0.00000  Uiso   1.00
H367   H     0.49834   0.41449   0.34495   0.00000  Uiso   1.00
H368   H     0.47616   0.36908   0.38109   0.00000  Uiso   1.00
O369   O     0.49286   0.37737   0.16325   0.00000  Uiso   1.00
H370   H     0.48157   0.35968   0.13841   0.00000  Uiso   1.00
C371   C     0.49749   0.61935   0.15284   0.00000  Uiso   1.00
H372   H     0.46260   0.62250   0.14694   0.00000  Uiso   1.00
H373   H     0.52576   0.63135   0.11777   0.00000  Uiso   1.00
H374   H     0.50469   0.58554   0.15341   0.00000  Uiso   1.00
O375   O     0.63098   0.43725   0.19861   0.00000  Uiso   1.00
H376   H     0.64741   0.41050   0.19847   0.00000  Uiso   1.00
C377   C     0.39578   0.43409   0.19089   0.00000  Uiso   1.00
H378   H     0.43313   0.44190   0.18005   0.00000  Uiso   1.00
H379   H     0.38908   0.40481   0.21340   0.00000  Uiso   1.00
H380   H     0.38957   0.42838   0.15204   0.00000  Uiso   1.00
C381   C     0.36479   0.56569   0.30845   0.00000  Uiso   1.00
H382   H     0.38901   0.55400   0.32830   0.00000  Uiso   1.00
H383   H     0.38130   0.59141   0.28169   0.00000  Uiso   1.00
H384   H     0.33441   0.57914   0.34134   0.00000  Uiso   1.00
O385   O     0.60735   0.56449   0.30184   0.00000  Uiso   1.00
H386   H     0.57468   0.55431   0.31376   0.00000  Uiso   1.00
O387   O     0.58227   0.58530   0.42714   0.00000  Uiso   1.00
H388   H     0.57266   0.59984   0.39996   0.00000  Uiso   1.00
C389   C     0.64083   0.55400   0.47877   0.00000  Uiso   1.00
H390   H     0.63905   0.58850   0.48644   0.00000  Uiso   1.00
H391   H     0.33628   0.54118   0.49162   0.00000  Uiso   1.00
H392   H     0.65089   0.54639   0.43519   0.00000  Uiso   1.00
O393   O     0.46915   0.47168   0.09071   0.00000  Uiso   1.00
H394   H     0.44392   0.48564   0.08074   0.00000  Uiso   1.00
O395   O     0.39339   0.44949   0.40248   0.00000  Uiso   1.00
H396   H     0.37355   0.42593   0.42071   0.00000  Uiso   1.00
O397   O     0.47756   0.41181   0.01849   0.00000  Uiso   1.00
H398   H     0.51111   0.41482   0.01652   0.00000  Uiso   1.00
O399   O     0.50860   0.62260   0.33536   0.00000  Uiso   1.00
H400   H     0.51896   0.64042   0.36081   0.00000  Uiso   1.00
C401   C     0.83382   0.57971   0.24913   0.00000  Uiso   1.00
C402   C     0.82614   0.48159   0.47901   0.00000  Uiso   1.00
C403   C     0.82250   0.50532   0.43710   0.00000  Uiso   1.00
C404   C     0.85554   0.49718   0.00800   0.00000  Uiso   1.00
C405   C     0.89174   0.52645   0.48478   0.00000  Uiso   1.00
C406   C     0.88763   0.55031   0.44285   0.00000  Uiso   1.00
C407   C     0.85094   0.54109   0.42222   0.00000  Uiso   1.00
C408   C     0.84516   0.48924   0.06231   0.00000  Uiso   1.00
C409   C     0.91807   0.52456   0.06228   0.00000  Uiso   1.00
C410   C     0.79215   0.49198   0.40869   0.00000  Uiso   1.00
C411   C     0.83846   0.64566   0.29356   0.00000  Uiso   1.00
C412   C     0.80711   0.50001   0.35168   0.00000  Uiso   1.00
C413   C     0.83688   0.35608   0.29566   0.00000  Uiso   1.00
C414   C     0.83249   0.37604   0.25104   0.00000  Uiso   1.00
C415   C     0.82900   0.35433   0.20540   0.00000  Uiso   1.00
C416   C     0.83072   0.64389   0.20328   0.00000  Uiso   1.00
C417   C     0.83460   0.62395   0.24816   0.00000  Uiso   1.00
C418   C     0.98216   0.46827   0.22445   0.00000  Uiso   1.00
C419   C     0.69730   0.46855   0.22321   0.00000  Uiso   1.00
C420   C     0.68309   0.53108   0.27705   0.00000  Uiso   1.00
C421   C     0.96911   0.53138   0.27620   0.00000  Uiso   1.00
C422   C     0.83301   0.42027   0.25040   0.00000  Uiso   1.00
C423   C     0.85958   0.50027   0.14817   0.00000  Uiso   1.00
C424   C     0.92721   0.53438   0.00867   0.00000  Uiso   1.00
C425   C     0.87559   0.50371   0.08989   0.00000  Uiso   1.00
C426   C     0.75905   0.45990   0.42816   0.00000  Uiso   1.00
C427   C     0.76385   0.43543   0.46881   0.00000  Uiso   1.00
C428   C     0.80019   0.44328   0.49007   0.00000  Uiso   1.00
H429   H     0.74231   0.40767   0.48028   0.00000  Uiso   1.00
H430   H     0.84515   0.56146   0.39337   0.00000  Uiso   1.00
N431   N     0.71426   0.50001   0.25002   0.00000  Uiso   1.00
N432   N     0.95239   0.49998   0.25001   0.00000  Uiso   1.00
O433   O     0.79512   0.56108   0.25001   0.00000  Uiso   1.00
O434   O     0.87157   0.56107   0.25001   0.00000  Uiso   1.00
O435   O     0.77613   0.50000   0.32681   0.00000  Uiso   1.00
O436   O     0.85258   0.49999   0.32681   0.00000  Uiso   1.00
O437   O     0.79510   0.43893   0.25000   0.00000  Uiso   1.00
O438   O     0.87154   0.43892   0.25000   0.00000  Uiso   1.00
O439   O     0.81409   0.50001   0.17319   0.00000  Uiso   1.00
O440   O     0.89053   0.50000   0.17319   0.00000  Uiso   1.00
Zn441  Zn    0.78229   0.50001   0.25000   0.00000  Uiso   1.00
Zn442  Zn    0.88438   0.49999   0.25000   0.00000  Uiso   1.00
O443   O     0.94928   0.53876   0.08763   0.00000  Uiso   1.00
H444   H     0.93079   0.55577   0.11966   0.00000  Uiso   1.00
C445   C     0.83785   0.38055   0.34573   0.00000  Uiso   1.00
H446   H     0.87281   0.37669   0.35124   0.00000  Uiso   1.00
H447   H     0.83168   0.41449   0.34495   0.00000  Uiso   1.00
H448   H     0.80949   0.36908   0.38109   0.00000  Uiso   1.00
O449   O     0.82620   0.37737   0.16325   0.00000  Uiso   1.00
H450   H     0.81490   0.35968   0.13841   0.00000  Uiso   1.00
C451   C     0.83083   0.61935   0.15284   0.00000  Uiso   1.00
H452   H     0.79594   0.62250   0.14694   0.00000  Uiso   1.00
H453   H     0.85909   0.63135   0.11777   0.00000  Uiso   1.00
H454   H     0.83802   0.58554   0.15341   0.00000  Uiso   1.00
O455   O     0.96432   0.43725   0.19861   0.00000  Uiso   1.00
H456   H     0.98074   0.41050   0.19847   0.00000  Uiso   1.00
C457   C     0.72912   0.43409   0.19089   0.00000  Uiso   1.00
H458   H     0.76646   0.44190   0.18005   0.00000  Uiso   1.00
H459   H     0.72242   0.40481   0.21340   0.00000  Uiso   1.00
H460   H     0.72291   0.42838   0.15204   0.00000  Uiso   1.00
C461   C     0.69812   0.56569   0.30845   0.00000  Uiso   1.00
H462   H     0.72235   0.55400   0.32830   0.00000  Uiso   1.00
H463   H     0.71464   0.59141   0.28169   0.00000  Uiso   1.00
H464   H     0.66774   0.57914   0.34134   0.00000  Uiso   1.00
O465   O     0.94068   0.56449   0.30184   0.00000  Uiso   1.00
H466   H     0.90802   0.55431   0.31376   0.00000  Uiso   1.00
O467   O     0.91561   0.58530   0.42714   0.00000  Uiso   1.00
H468   H     0.90599   0.59984   0.39996   0.00000  Uiso   1.00
C469   C     0.97417   0.55400   0.47877   0.00000  Uiso   1.00
H470   H     0.97239   0.58850   0.48644   0.00000  Uiso   1.00
H471   H     0.66961   0.54118   0.49162   0.00000  Uiso   1.00
H472   H     0.98422   0.54639   0.43519   0.00000  Uiso   1.00
O473   O     0.80248   0.47168   0.09071   0.00000  Uiso   1.00
H474   H     0.77726   0.48564   0.08074   0.00000  Uiso   1.00
O475   O     0.72673   0.44949   0.40248   0.00000  Uiso   1.00
H476   H     0.70688   0.42593   0.42071   0.00000  Uiso   1.00
O477   O     0.81090   0.41181   0.01849   0.00000  Uiso   1.00
H478   H     0.84444   0.41482   0.01652   0.00000  Uiso   1.00
O479   O     0.84193   0.62260   0.33536   0.00000  Uiso   1.00
H480   H     0.85230   0.64042   0.36081   0.00000  Uiso   1.00
C481   C     0.16715   0.91304   0.24913   0.00000  Uiso   1.00
C482   C     0.15947   0.81493   0.47901   0.00000  Uiso   1.00
C483   C     0.15584   0.83865   0.43710   0.00000  Uiso   1.00
C484   C     0.18887   0.83051   0.00800   0.00000  Uiso   1.00
C485   C     0.22507   0.85979   0.48478   0.00000  Uiso   1.00
C486   C     0.22096   0.88364   0.44285   0.00000  Uiso   1.00
C487   C     0.18427   0.87443   0.42222   0.00000  Uiso   1.00
C488   C     0.17850   0.82258   0.06231   0.00000  Uiso   1.00
C489   C     0.25140   0.85790   0.06228   0.00000  Uiso   1.00
C490   C     0.12548   0.82532   0.40869   0.00000  Uiso   1.00
C491   C     0.17180   0.97900   0.29356   0.00000  Uiso   1.00
C492   C     0.14044   0.83334   0.35168   0.00000  Uiso   1.00
C493   C     0.17021   0.68941   0.29566   0.00000  Uiso   1.00
C494   C     0.16582   0.70937   0.25104   0.00000  Uiso   1.00
C495   C     0.16234   0.68767   0.20540   0.00000  Uiso   1.00
C496   C     0.16405   0.97722   0.20328   0.00000  Uiso   1.00
C497   C     0.16793   0.95728   0.24816   0.00000  Uiso   1.00
C498   C     0.31549   0.80161   0.22445   0.00000  Uiso   1.00
C499   C     0.03064   0.80189   0.22321   0.00000  Uiso   1.00
C500   C     0.01642   0.86441   0.27705   0.00000  Uiso   1.00
C501   C     0.30245   0.86472   0.27620   0.00000  Uiso   1.00
C502   C     0.16634   0.75360   0.25040   0.00000  Uiso   1.00
C503   C     0.19292   0.83360   0.14817   0.00000  Uiso   1.00
C504   C     0.26055   0.86771   0.00867   0.00000  Uiso   1.00
C505   C     0.20892   0.83704   0.08989   0.00000  Uiso   1.00
C506   C     0.09238   0.79323   0.42816   0.00000  Uiso   1.00
C507   C     0.09718   0.76876   0.46881   0.00000  Uiso   1.00
C508   C     0.13353   0.77662   0.49007   0.00000  Uiso   1.00
H509   H     0.07564   0.74100   0.48028   0.00000  Uiso   1.00
H510   H     0.17848   0.89479   0.39337   0.00000  Uiso   1.00
N511   N     0.04760   0.83334   0.25002   0.00000  Uiso   1.00
N512   N     0.28573   0.83331   0.25001   0.00000  Uiso   1.00
O513   O     0.12846   0.89442   0.25001   0.00000  Uiso   1.00
O514   O     0.20490   0.89441   0.25001   0.00000  Uiso   1.00
O515   O     0.10947   0.83333   0.32681   0.00000  Uiso   1.00
O516   O     0.18591   0.83332   0.32681   0.00000  Uiso   1.00
O517   O     0.12843   0.77226   0.25000   0.00000  Uiso   1.00
O518   O     0.20488   0.77225   0.25000   0.00000  Uiso   1.00
O519   O     0.14742   0.83335   0.17319   0.00000  Uiso   1.00
O520   O     0.22387   0.83334   0.17319   0.00000  Uiso   1.00
Zn521  Zn    0.11562   0.83334   0.25000   0.00000  Uiso   1.00
Zn522  Zn    0.21771   0.83333   0.25000   0.00000  Uiso   1.00
O523   O     0.28261   0.87209   0.08763   0.00000  Uiso   1.00
H524   H     0.26412   0.88910   0.11966   0.00000  Uiso   1.00
C525   C     0.17119   0.71388   0.34573   0.00000  Uiso   1.00
H526   H     0.20614   0.71002   0.35124   0.00000  Uiso   1.00
H527   H     0.16501   0.74783   0.34495   0.00000  Uiso   1.00
H528   H     0.14283   0.70241   0.38109   0.00000  Uiso   1.00
O529   O     0.15953   0.71071   0.16325   0.00000  Uiso   1.00
H530   H     0.14823   0.69301   0.13841   0.00000  Uiso   1.00
C531   C     0.16416   0.95268   0.15284   0.00000  Uiso   1.00
H532   H     0.12927   0.95583   0.14694   0.00000  Uiso   1.00
H533   H     0.19243   0.96469   0.11777   0.00000  Uiso   1.00
H534   H     0.17135   0.91887   0.15341   0.00000  Uiso   1.00
O535   O     0.29765   0.77058   0.19861   0.00000  Uiso   1.00
H536   H     0.31407   0.74383   0.19847   0.00000  Uiso   1.00
C537   C     0.06245   0.76742   0.19089   0.00000  Uiso   1.00
H538   H     0.09980   0.77523   0.18005   0.00000  Uiso   1.00
H539   H     0.05575   0.73814   0.21340   0.00000  Uiso   1.00
H540   H     0.05624   0.76171   0.15204   0.00000  Uiso   1.00
C541   C     0.03146   0.89902   0.30845   0.00000  Uiso   1.00
H542   H     0.05568   0.88733   0.32830   0.00000  Uiso   1.00
H543   H     0.04797   0.92474   0.28169   0.00000  Uiso   1.00
H544   H     0.00107   0.91247   0.34134   0.00000  Uiso   1.00
O545   O     0.27401   0.89783   0.30184   0.00000  Uiso   1.00
H546   H     0.24135   0.88765   0.31376   0.00000  Uiso   1.00
O547   O     0.24894   0.91863   0.42714   0.00000  Uiso   1.00
H548   H     0.23933   0.93318   0.39996   0.00000  Uiso   1.00
C549   C     0.30750   0.88733   0.47877   0.00000  Uiso   1.00
H550   H     0.30572   0.92183   0.48644   0.00000  Uiso   1.00
H551   H     0.00295   0.87451   0.49162   0.00000  Uiso   1.00
H552   H     0.31756   0.87973   0.43519   0.00000  Uiso   1.00
O553   O     0.13582   0.80501   0.09071   0.00000  Uiso   1.00
H554   H     0.11059   0.81898   0.08074   0.00000  Uiso   1.00
O555   O     0.06006   0.78282   0.40248   0.00000  Uiso   1.00
H556   H     0.04021   0.75926   0.42071   0.00000  Uiso   1.00
O557   O     0.14423   0.74514   0.01849   0.00000  Uiso   1.00
H558   H     0.17777   0.74815   0.01652   0.00000  Uiso   1.00
O559   O     0.17526   0.95593   0.33536   0.00000  Uiso   1.00
H560   H     0.18563   0.97375   0.36081   0.00000  Uiso   1.00
C561   C     0.50048   0.91304   0.24913   0.00000  Uiso   1.00
C562   C     0.49281   0.81493   0.47901   0.00000  Uiso   1.00
C563   C     0.48917   0.83865   0.43710   0.00000  Uiso   1.00
C564   C     0.52221   0.83051   0.00800   0.00000  Uiso   1.00
C565   C     0.55841   0.85979   0.48478   0.00000  Uiso   1.00
C566   C     0.55429   0.88364   0.44285   0.00000  Uiso   1.00
C567   C     0.51760   0.87443   0.42222   0.00000  Uiso   1.00
C568   C     0.51183   0.82258   0.06231   0.00000  Uiso   1.00
C569   C     0.58473   0.85790   0.06228   0.00000  Uiso   1.00
C570   C     0.45882   0.82532   0.40869   0.00000  Uiso   1.00
C571   C     0.50513   0.97900   0.29356   0.00000  Uiso   1.00
C572   C     0.47378   0.83334   0.35168   0.00000  Uiso   1.00
C573   C     0.50355   0.68941   0.29566   0.00000  Uiso   1.00
C574   C     0.49916   0.70937   0.25104   0.00000  Uiso   1.00
C575   C     0.49567   0.68767   0.20540   0.00000  Uiso   1.00
C576   C     0.49739   0.97722   0.20328   0.00000  Uiso   1.00
C577   C     0.50127   0.95728   0.24816   0.00000  Uiso   1.00
C578   C     0.64882   0.80161   0.22445   0.00000  Uiso   1.00
C579   C     0.36397   0.80189   0.22321   0.00000  Uiso   1.00
C580   C     0.34976   0.86441   0.27705   0.00000  Uiso   1.00
C581   C     0.63578   0.86472   0.27620   0.00000  Uiso   1.00
C582   C     0.49967   0.75360   0.25040   0.00000  Uiso   1.00
C583   C     0.52625   0.83360   0.14817   0.00000  Uiso   1.00
C584   C     0.59388   0.86771   0.00867   0.00000  Uiso   1.00
C585   C     0.54225   0.83704   0.08989   0.00000  Uiso   1.00
C586   C     0.42572   0.79323   0.42816   0.00000  Uiso   1.00
C587   C     0.43052   0.76876   0.46881   0.00000  Uiso   1.00
C588   C     0.46686   0.77662   0.49007   0.00000  Uiso   1.00
H589   H     0.40898   0.74100   0.48028   0.00000  Uiso   1.00
H590   H     0.51182   0.89479   0.39337   0.00000  Uiso   1.00
N591   N     0.38093   0.83334   0.25002   0.00000  Uiso   1.00
N592   N     0.61906   0.83331   0.25001   0.00000  Uiso   1.00
O593   O     0.46179   0.89442   0.25001   0.00000  Uiso   1.00
O594   O     0.53823   0.89441   0.25001   0.00000  Uiso   1.00
O595   O     0.44280   0.83333   0.32681   0.00000  Uiso   1.00
O596   O     0.51924   0.83332   0.32681   0.00000  Uiso   1.00
O597   O     0.46177   0.77226   0.25000   0.00000  Uiso   1.00
O598   O     0.53821   0.77225   0.25000   0.00000  Uiso   1.00
O599   O     0.48076   0.83335   0.17319   0.00000  Uiso   1.00
O600   O     0.55720   0.83334   0.17319   0.00000  Uiso   1.00
Zn601  Zn    0.44896   0.83334   0.25000   0.00000  Uiso   1.00
Zn602  Zn    0.55104   0.83333   0.25000   0.00000  Uiso   1.00
O603   O     0.61595   0.87209   0.08763   0.00000  Uiso   1.00
H604   H     0.59745   0.88910   0.11966   0.00000  Uiso   1.00
C605   C     0.50452   0.71388   0.34573   0.00000  Uiso   1.00
H606   H     0.53948   0.71002   0.35124   0.00000  Uiso   1.00
H607   H     0.49834   0.74783   0.34495   0.00000  Uiso   1.00
H608   H     0.47616   0.70241   0.38109   0.00000  Uiso   1.00
O609   O     0.49286   0.71071   0.16325   0.00000  Uiso   1.00
H610   H     0.48157   0.69301   0.13841   0.00000  Uiso   1.00
C611   C     0.49749   0.95268   0.15284   0.00000  Uiso   1.00
H612   H     0.46260   0.95583   0.14694   0.00000  Uiso   1.00
H613   H     0.52576   0.96469   0.11777   0.00000  Uiso   1.00
H614   H     0.50469   0.91887   0.15341   0.00000  Uiso   1.00
O615   O     0.63098   0.77058   0.19861   0.00000  Uiso   1.00
H616   H     0.64741   0.74383   0.19847   0.00000  Uiso   1.00
C617   C     0.39578   0.76742   0.19089   0.00000  Uiso   1.00
H618   H     0.43313   0.77523   0.18005   0.00000  Uiso   1.00
H619   H     0.38908   0.73814   0.21340   0.00000  Uiso   1.00
H620   H     0.38957   0.76171   0.15204   0.00000  Uiso   1.00
C621   C     0.36479   0.89902   0.30845   0.00000  Uiso   1.00
H622   H     0.38901   0.88733   0.32830   0.00000  Uiso   1.00
H623   H     0.38130   0.92474   0.28169   0.00000  Uiso   1.00
H624   H     0.33441   0.91247   0.34134   0.00000  Uiso   1.00
O625   O     0.60735   0.89783   0.30184   0.00000  Uiso   1.00
H626   H     0.57468   0.88765   0.31376   0.00000  Uiso   1.00
O627   O     0.58227   0.91863   0.42714   0.00000  Uiso   1.00
H628   H     0.57266   0.93318   0.39996   0.00000  Uiso   1.00
C629   C     0.64083   0.88733   0.47877   0.00000  Uiso   1.00
H630   H     0.63905   0.92183   0.48644   0.00000  Uiso   1.00
H631   H     0.33628   0.87451   0.49162   0.00000  Uiso   1.00
H632   H     0.65089   0.87973   0.43519   0.00000  Uiso   1.00
O633   O     0.46915   0.80501   0.09071   0.00000  Uiso   1.00
H634   H     0.44392   0.81898   0.08074   0.00000  Uiso   1.00
O635   O     0.39339   0.78282   0.40248   0.00000  Uiso   1.00
H636   H     0.37355   0.75926   0.42071   0.00000  Uiso   1.00
O637   O     0.47756   0.74514   0.01849   0.00000  Uiso   1.00
H638   H     0.51111   0.74815   0.01652   0.00000  Uiso   1.00
O639   O     0.50860   0.95593   0.33536   0.00000  Uiso   1.00
H640   H     0.51896   0.97375   0.36081   0.00000  Uiso   1.00
C641   C     0.83382   0.91304   0.24913   0.00000  Uiso   1.00
C642   C     0.82614   0.81493   0.47901   0.00000  Uiso   1.00
C643   C     0.82250   0.83865   0.43710   0.00000  Uiso   1.00
C644   C     0.85554   0.83051   0.00800   0.00000  Uiso   1.00
C645   C     0.89174   0.85979   0.48478   0.00000  Uiso   1.00
C646   C     0.88763   0.88364   0.44285   0.00000  Uiso   1.00
C647   C     0.85094   0.87443   0.42222   0.00000  Uiso   1.00
C648   C     0.84516   0.82258   0.06231   0.00000  Uiso   1.00
C649   C     0.91807   0.85790   0.06228   0.00000  Uiso   1.00
C650   C     0.79215   0.82532   0.40869   0.00000  Uiso   1.00
C651   C     0.83846   0.97900   0.29356   0.00000  Uiso   1.00
C652   C     0.80711   0.83334   0.35168   0.00000  Uiso   1.00
C653   C     0.83688   0.68941   0.29566   0.00000  Uiso   1.00
C654   C     0.83249   0.70937   0.25104   0.00000  Uiso   1.00
C655   C     0.82900   0.68767   0.20540   0.00000  Uiso   1.00
C656   C     0.83072   0.97722   0.20328   0.00000  Uiso   1.00
C657   C     0.83460   0.95728   0.24816   0.00000  Uiso   1.00
C658   C     0.98216   0.80161   0.22445   0.00000  Uiso   1.00
C659   C     0.69730   0.80189   0.22321   0.00000  Uiso   1.00
C660   C     0.68309   0.86441   0.27705   0.00000  Uiso   1.00
C661   C     0.96911   0.86472   0.27620   0.00000  Uiso   1.00
C662   C     0.83301   0.75360   0.25040   0.00000  Uiso   1.00
C663   C     0.85958   0.83360   0.14817   0.00000  Uiso   1.00
C664   C     0.92721   0.86771   0.00867   0.00000  Uiso   1.00
C665   C     0.87559   0.83704   0.08989   0.00000  Uiso   1.00
C666   C     0.75905   0.79323   0.42816   0.00000  Uiso   1.00
C667   C     0.76385   0.76876   0.46881   0.00000  Uiso   1.00
C668   C     0.80019   0.77662   0.49007   0.00000  Uiso   1.00
H669   H     0.74231   0.74100   0.48028   0.00000  Uiso   1.00
H670   H     0.84515   0.89479   0.39337   0.00000  Uiso   1.00
N671   N     0.71426   0.83334   0.25002   0.00000  Uiso   1.00
N672   N     0.95239   0.83331   0.25001   0.00000  Uiso   1.00
O673   O     0.79512   0.89442   0.25001   0.00000  Uiso   1.00
O674   O     0.87157   0.89441   0.25001   0.00000  Uiso   1.00
O675   O     0.77613   0.83333   0.32681   0.00000  Uiso   1.00
O676   O     0.85258   0.83332   0.32681   0.00000  Uiso   1.00
O677   O     0.79510   0.77226   0.25000   0.00000  Uiso   1.00
O678   O     0.87154   0.77225   0.25000   0.00000  Uiso   1.00
O679   O     0.81409   0.83335   0.17319   0.00000  Uiso   1.00
O680   O     0.89053   0.83334   0.17319   0.00000  Uiso   1.00
Zn681  Zn    0.78229   0.83334   0.25000   0.00000  Uiso   1.00
Zn682  Zn    0.88438   0.83333   0.25000   0.00000  Uiso   1.00
O683   O     0.94928   0.87209   0.08763   0.00000  Uiso   1.00
H684   H     0.93079   0.88910   0.11966   0.00000  Uiso   1.00
C685   C     0.83785   0.71388   0.34573   0.00000  Uiso   1.00
H686   H     0.87281   0.71002   0.35124   0.00000  Uiso   1.00
H687   H     0.83168   0.74783   0.34495   0.00000  Uiso   1.00
H688   H     0.80949   0.70241   0.38109   0.00000  Uiso   1.00
O689   O     0.82620   0.71071   0.16325   0.00000  Uiso   1.00
H690   H     0.81490   0.69301   0.13841   0.00000  Uiso   1.00
C691   C     0.83083   0.95268   0.15284   0.00000  Uiso   1.00
H692   H     0.79594   0.95583   0.14694   0.00000  Uiso   1.00
H693   H     0.85909   0.96469   0.11777   0.00000  Uiso   1.00
H694   H     0.83802   0.91887   0.15341   0.00000  Uiso   1.00
O695   O     0.96432   0.77058   0.19861   0.00000  Uiso   1.00
H696   H     0.98074   0.74383   0.19847   0.00000  Uiso   1.00
C697   C     0.72912   0.76742   0.19089   0.00000  Uiso   1.00
H698   H     0.76646   0.77523   0.18005   0.00000  Uiso   1.00
H699   H     0.72242   0.73814   0.21340   0.00000  Uiso   1.00
H700   H     0.72291   0.76171   0.15204   0.00000  Uiso   1.00
C701   C     0.69812   0.89902   0.30845   0.00000  Uiso   1.00
H702   H     0.72235   0.88733   0.32830   0.00000  Uiso   1.00
H703   H     0.71464   0.92474   0.28169   0.00000  Uiso   1.00
H704   H     0.66774   0.91247   0.34134   0.00000  Uiso   1.00
O705   O     0.94068   0.89783   0.30184   0.00000  Uiso   1.00
H706   H     0.90802   0.88765   0.31376   0.00000  Uiso   1.00
O707   O     0.91561   0.91863   0.42714   0.00000  Uiso   1.00
H708   H     0.90599   0.93318   0.39996   0.00000  Uiso   1.00
C709   C     0.97417   0.88733   0.47877   0.00000  Uiso   1.00
H710   H     0.97239   0.92183   0.48644   0.00000  Uiso   1.00
H711   H     0.66961   0.87451   0.49162   0.00000  Uiso   1.00
H712   H     0.98422   0.87973   0.43519   0.00000  Uiso   1.00
O713   O     0.80248   0.80501   0.09071   0.00000  Uiso   1.00
H714   H     0.77726   0.81898   0.08074   0.00000  Uiso   1.00
O715   O     0.72673   0.78282   0.40248   0.00000  Uiso   1.00
H716   H     0.70688   0.75926   0.42071   0.00000  Uiso   1.00
O717   O     0.81090   0.74514   0.01849   0.00000  Uiso   1.00
H718   H     0.84444   0.74815   0.01652   0.00000  Uiso   1.00
O719   O     0.84193   0.95593   0.33536   0.00000  Uiso   1.00
H720   H     0.85230   0.97375   0.36081   0.00000  Uiso   1.00
C721   C     0.16715   0.24638   0.74913   0.00000  Uiso   1.00
C722   C     0.15947   0.14826   0.97901   0.00000  Uiso   1.00
C723   C     0.15584   0.17198   0.93710   0.00000  Uiso   1.00
C724   C     0.18887   0.16384   0.50800   0.00000  Uiso   1.00
C725   C     0.22507   0.19312   0.98478   0.00000  Uiso   1.00
C726   C     0.22096   0.21697   0.94285   0.00000  Uiso   1.00
C727   C     0.18427   0.20776   0.92222   0.00000  Uiso   1.00
C728   C     0.17850   0.15591   0.56231   0.00000  Uiso   1.00
C729   C     0.25140   0.19123   0.56228   0.00000  Uiso   1.00
C730   C     0.12548   0.15865   0.90869   0.00000  Uiso   1.00
C731   C     0.17180   0.31233   0.79356   0.00000  Uiso   1.00
C732   C     0.14044   0.16668   0.85168   0.00000  Uiso   1.00
C733   C     0.17021   0.02274   0.79566   0.00000  Uiso   1.00
C734   C     0.16582   0.04271   0.75104   0.00000  Uiso   1.00
C735   C     0.16234   0.02100   0.70540   0.00000  Uiso   1.00
C736   C     0.16405   0.31056   0.70328   0.00000  Uiso   1.00
C737   C     0.16793   0.29061   0.74816   0.00000  Uiso   1.00
C738   C     0.31549   0.13494   0.72445   0.00000  Uiso   1.00
C739   C     0.03064   0.13522   0.72321   0.00000  Uiso   1.00
C740   C     0.01642   0.19775   0.77705   0.00000  Uiso   1.00
C741   C     0.30245   0.19805   0.77620   0.00000  Uiso   1.00
C742   C     0.16634   0.08694   0.75040   0.00000  Uiso   1.00
C743   C     0.19292   0.16693   0.64817   0.00000  Uiso   1.00
C744   C     0.26055   0.20105   0.50867   0.00000  Uiso   1.00
C745   C     0.20892   0.17037   0.58989   0.00000  Uiso   1.00
C746   C     0.09238   0.12657   0.92816   0.00000  Uiso   1.00
C747   C     0.09718   0.10209   0.96881   0.00000  Uiso   1.00
C748   C     0.13353   0.10995   0.99007   0.00000  Uiso   1.00
H749   H     0.07564   0.07434   0.98028   0.00000  Uiso   1.00
H750   H     0.17848   0.22812   0.89337   0.00000  Uiso   1.00
N751   N     0.04760   0.16668   0.75002   0.00000  Uiso   1.00
N752   N     0.28573   0.16665   0.75001   0.00000  Uiso   1.00
O753   O     0.12846   0.22775   0.75001   0.00000  Uiso   1.00
O754   O     0.20490   0.22774   0.75001   0.00000  Uiso   1.00
O755   O     0.10947   0.16666   0.82681   0.00000  Uiso   1.00
O756   O     0.18591   0.16665   0.82681   0.00000  Uiso   1.00
O757   O     0.12843   0.10559   0.75000   0.00000  Uiso   1.00
O758   O     0.20488   0.10558   0.75000   0.00000  Uiso   1.00
O759   O     0.14742   0.16668   0.67319   0.00000  Uiso   1.00
O760   O     0.22387   0.16667   0.67319   0.00000  Uiso   1.00
Zn761  Zn    0.11562   0.16667   0.75000   0.00000  Uiso   1.00
Zn762  Zn    0.21771   0.16666   0.75000   0.00000  Uiso   1.00
O763   O     0.28261   0.20542   0.58763   0.00000  Uiso   1.00
H764   H     0.26412   0.22243   0.61966   0.00000  Uiso   1.00
C765   C     0.17119   0.04722   0.84573   0.00000  Uiso   1.00
H766   H     0.20614   0.04336   0.85124   0.00000  Uiso   1.00
H767   H     0.16501   0.08116   0.84495   0.00000  Uiso   1.00
H768   H     0.14283   0.03575   0.88109   0.00000  Uiso   1.00
O769   O     0.15953   0.04404   0.66325   0.00000  Uiso   1.00
H770   H     0.14823   0.02635   0.63841   0.00000  Uiso   1.00
C771   C     0.16416   0.28601   0.65284   0.00000  Uiso   1.00
H772   H     0.12927   0.28916   0.64694   0.00000  Uiso   1.00
H773   H     0.19243   0.29802   0.61777   0.00000  Uiso   1.00
H774   H     0.17135   0.25220   0.65341   0.00000  Uiso   1.00
O775   O     0.29765   0.10391   0.69861   0.00000  Uiso   1.00
H776   H     0.31407   0.07717   0.69847   0.00000  Uiso   1.00
C777   C     0.06245   0.10076   0.69089   0.00000  Uiso   1.00
H778   H     0.09980   0.10856   0.68005   0.00000  Uiso   1.00
H779   H     0.05575   0.07148   0.71340   0.00000  Uiso   1.00
H780   H     0.05624   0.09504   0.65204   0.00000  Uiso   1.00
C781   C     0.03146   0.23235   0.80845   0.00000  Uiso   1.00
H782   H     0.05568   0.22066   0.82830   0.00000  Uiso   1.00
H783   H     0.04797   0.25808   0.78169   0.00000  Uiso   1.00
H784   H     0.00107   0.24581   0.84134   0.00000  Uiso   1.00
O785   O     0.27401   0.23116   0.80184   0.00000  Uiso   1.00
H786   H     0.24135   0.22098   0.81376   0.00000  Uiso   1.00
O787   O     0.24894   0.25196   0.92714   0.00000  Uiso   1.00
H788   H     0.23933   0.26651   0.89996   0.00000  Uiso   1.00
C789   C     0.30750   0.22066   0.97877   0.00000  Uiso   1.00
H790   H     0.30572   0.25517   0.98644   0.00000  Uiso   1.00
H791   H     0.00295   0.20784   0.99162   0.00000  Uiso   1.00
H792   H     0.31756   0.21306   0.93519   0.00000  Uiso   1.00
O793   O     0.13582   0.13834   0.59071   0.00000  Uiso   1.00
H794   H     0.11059   0.15231   0.58074   0.00000  Uiso   1.00
O795   O     0.06006   0.11616   0.90248   0.00000  Uiso   1.00
H796   H     0.04021   0.09260   0.92071   0.00000  Uiso   1.00
O797   O     0.14423   0.07847   0.51849   0.00000  Uiso   1.00
H798   H     0.17777   0.08149   0.51652   0.00000  Uiso   1.00
O799   O     0.17526   0.28926   0.83536   0.00000  Uiso   1.00
H800   H     0.18563   0.30709   0.86081   0.00000  Uiso   1.00
C801   C     0.50048   0.24638   0.74913   0.00000  Uiso   1.00
C802   C     0.49281   0.14826   0.97901   0.00000  Uiso   1.00
C803   C     0.48917   0.17198   0.93710   0.00000  Uiso   1.00
C804   C     0.52221   0.16384   0.50800   0.00000  Uiso   1.00
C805   C     0.55841   0.19312   0.98478   0.00000  Uiso   1.00
C806   C     0.55429   0.21697   0.94285   0.00000  Uiso   1.00
C807   C     0.51760   0.20776   0.92222   0.00000  Uiso   1.00
C808   C     0.51183   0.15591   0.56231   0.00000  Uiso   1.00
C809   C     0.58473   0.19123   0.56228   0.00000  Uiso   1.00
C810   C     0.45882   0.15865   0.90869   0.00000  Uiso   1.00
C811   C     0.50513   0.31233   0.79356   0.00000  Uiso   1.00
C812   C     0.47378   0.16668   0.85168   0.00000  Uiso   1.00
C813   C     0.50355   0.02274   0.79566   0.00000  Uiso   1.00
C814   C     0.49916   0.04271   0.75104   0.00000  Uiso   1.00
C815   C     0.49567   0.02100   0.70540   0.00000  Uiso   1.00
C816   C     0.49739   0.31056   0.70328   0.00000  Uiso   1.00
C817   C     0.50127   0.29061   0.74816   0.00000  Uiso   1.00
C818   C     0.64882   0.13494   0.72445   0.00000  Uiso   1.00
C819   C     0.36397   0.13522   0.72321   0.00000  Uiso   1.00
C820   C     0.34976   0.19775   0.77705   0.00000  Uiso   1.00
C821   C     0.63578   0.19805   0.77620   0.00000  Uiso   1.00
C822   C     0.49967   0.08694   0.75040   0.00000  Uiso   1.00
C823   C     0.52625   0.16693   0.64817   0.00000  Uiso   1.00
C824   C     0.59388   0.20105   0.50867   0.00000  Uiso   1.00
C825   C     0.54225   0.17037   0.58989   0.00000  Uiso   1.00
C826   C     0.42572   0.12657   0.92816   0.00000  Uiso   1.00
C827   C     0.43052   0.10209   0.96881   0.00000  Uiso   1.00
C828   C     0.46686   0.10995   0.99007   0.00000  Uiso   1.00
H829   H     0.40898   0.07434   0.98028   0.00000  Uiso   1.00
H830   H     0.51182   0.22812   0.89337   0.00000  Uiso   1.00
N831   N     0.38093   0.16668   0.75002   0.00000  Uiso   1.00
N832   N     0.61906   0.16665   0.75001   0.00000  Uiso   1.00
O833   O     0.46179   0.22775   0.75001   0.00000  Uiso   1.00
O834   O     0.53823   0.22774   0.75001   0.00000  Uiso   1.00
O835   O     0.44280   0.16666   0.82681   0.00000  Uiso   1.00
O836   O     0.51924   0.16665   0.82681   0.00000  Uiso   1.00
O837   O     0.46177   0.10559   0.75000   0.00000  Uiso   1.00
O838   O     0.53821   0.10558   0.75000   0.00000  Uiso   1.00
O839   O     0.48076   0.16668   0.67319   0.00000  Uiso   1.00
O840   O     0.55720   0.16667   0.67319   0.00000  Uiso   1.00
Zn841  Zn    0.44896   0.16667   0.75000   0.00000  Uiso   1.00
Zn842  Zn    0.55104   0.16666   0.75000   0.00000  Uiso   1.00
O843   O     0.61595   0.20542   0.58763   0.00000  Uiso   1.00
H844   H     0.59745   0.22243   0.61966   0.00000  Uiso   1.00
C845   C     0.50452   0.04722   0.84573   0.00000  Uiso   1.00
H846   H     0.53948   0.04336   0.85124   0.00000  Uiso   1.00
H847   H     0.49834   0.08116   0.84495   0.00000  Uiso   1.00
H848   H     0.47616   0.03575   0.88109   0.00000  Uiso   1.00
O849   O     0.49286   0.04404   0.66325   0.00000  Uiso   1.00
H850   H     0.48157   0.02635   0.63841   0.00000  Uiso   1.00
C851   C     0.49749   0.28601   0.65284   0.00000  Uiso   1.00
H852   H     0.46260   0.28916   0.64694   0.00000  Uiso   1.00
H853   H     0.52576   0.29802   0.61777   0.00000  Uiso   1.00
H854   H     0.50469   0.25220   0.65341   0.00000  Uiso   1.00
O855   O     0.63098   0.10391   0.69861   0.00000  Uiso   1.00
H856   H     0.64741   0.07717   0.69847   0.00000  Uiso   1.00
C857   C     0.39578   0.10076   0.69089   0.00000  Uiso   1.00
H858   H     0.43313   0.10856   0.68005   0.00000  Uiso   1.00
H859   H     0.38908   0.07148   0.71340   0.00000  Uiso   1.00
H860   H     0.38957   0.09504   0.65204   0.00000  Uiso   1.00
C861   C     0.36479   0.23235   0.80845   0.00000  Uiso   1.00
H862   H     0.38901   0.22066   0.82830   0.00000  Uiso   1.00
H863   H     0.38130   0.25808   0.78169   0.00000  Uiso   1.00
H864   H     0.33441   0.24581   0.84134   0.00000  Uiso   1.00
O865   O     0.60735   0.23116   0.80184   0.00000  Uiso   1.00
H866   H     0.57468   0.22098   0.81376   0.00000  Uiso   1.00
O867   O     0.58227   0.25196   0.92714   0.00000  Uiso   1.00
H868   H     0.57266   0.26651   0.89996   0.00000  Uiso   1.00
C869   C     0.64083   0.22066   0.97877   0.00000  Uiso   1.00
H870   H     0.63905   0.25517   0.98644   0.00000  Uiso   1.00
H871   H     0.33628   0.20784   0.99162   0.00000  Uiso   1.00
H872   H     0.65089   0.21306   0.93519   0.00000  Uiso   1.00
O873   O     0.46915   0.13834   0.59071   0.00000  Uiso   1.00
H874   H     0.44392   0.15231   0.58074   0.00000  Uiso   1.00
O875   O     0.39339   0.11616   0.90248   0.00000  Uiso   1.00
H876   H     0.37355   0.09260   0.92071   0.00000  Uiso   1.00
O877   O     0.47756   0.07847   0.51849   0.00000  Uiso   1.00
H878   H     0.51111   0.08149   0.51652   0.00000  Uiso   1.00
O879   O     0.50860   0.28926   0.83536   0.00000  Uiso   1.00
H880   H     0.51896   0.30709   0.86081   0.00000  Uiso   1.00
C881   C     0.83382   0.24638   0.74913   0.00000  Uiso   1.00
C882   C     0.82614   0.14826   0.97901   0.00000  Uiso   1.00
C883   C     0.82250   0.17198   0.93710   0.00000  Uiso   1.00
C884   C     0.85554   0.16384   0.50800   0.00000  Uiso   1.00
C885   C     0.89174   0.19312   0.98478   0.00000  Uiso   1.00
C886   C     0.88763   0.21697   0.94285   0.00000  Uiso   1.00
C887   C     0.85094   0.20776   0.92222   0.00000  Uiso   1.00
C888   C     0.84516   0.15591   0.56231   0.00000  Uiso   1.00
C889   C     0.91807   0.19123   0.56228   0.00000  Uiso   1.00
C890   C     0.79215   0.15865   0.90869   0.00000  Uiso   1.00
C891   C     0.83846   0.31233   0.79356   0.00000  Uiso   1.00
C892   C     0.80711   0.16668   0.85168   0.00000  Uiso   1.00
C893   C     0.83688   0.02274   0.79566   0.00000  Uiso   1.00
C894   C     0.83249   0.04271   0.75104   0.00000  Uiso   1.00
C895   C     0.82900   0.02100   0.70540   0.00000  Uiso   1.00
C896   C     0.83072   0.31056   0.70328   0.00000  Uiso   1.00
C897   C     0.83460   0.29061   0.74816   0.00000  Uiso   1.00
C898   C     0.98216   0.13494   0.72445   0.00000  Uiso   1.00
C899   C     0.69730   0.13522   0.72321   0.00000  Uiso   1.00
C900   C     0.68309   0.19775   0.77705   0.00000  Uiso   1.00
C901   C     0.96911   0.19805   0.77620   0.00000  Uiso   1.00
C902   C     0.83301   0.08694   0.75040   0.00000  Uiso   1.00
C903   C     0.85958   0.16693   0.64817   0.00000  Uiso   1.00
C904   C     0.92721   0.20105   0.50867   0.00000  Uiso   1.00
C905   C     0.87559   0.17037   0.58989   0.00000  Uiso   1.00
C906   C     0.75905   0.12657   0.92816   0.00000  Uiso   1.00
C907   C     0.76385   0.10209   0.96881   0.00000  Uiso   1.00
C908   C     0.80019   0.10995   0.99007   0.00000  Uiso   1.00
H909   H     0.74231   0.07434   0.98028   0.00000  Uiso   1.00
H910   H     0.84515   0.22812   0.89337   0.00000  Uiso   1.00
N911   N     0.71426   0.16668   0.75002   0.00000  Uiso   1.00
N912   N     0.95239   0.16665   0.75001   0.00000  Uiso   1.00
O913   O     0.79512   0.22775   0.75001   0.00000  Uiso   1.00
O914   O     0.87157   0.22774   0.75001   0.00000  Uiso   1.00
O915   O     0.77613   0.16666   0.82681   0.00000  Uiso   1.00
O916   O     0.85258   0.16665   0.82681   0.00000  Uiso   1.00
O917   O     0.79510   0.10559   0.75000   0.00000  Uiso   1.00
O918   O     0.87154   0.10558   0.75000   0.00000  Uiso   1.00
O919   O     0.81409   0.16668   0.67319   0.00000  Uiso   1.00
O920   O     0.89053   0.16667   0.67319   0.00000  Uiso   1.00
Zn921  Zn    0.78229   0.16667   0.75000   0.00000  Uiso   1.00
Zn922  Zn    0.88438   0.16666   0.75000   0.00000  Uiso   1.00
O923   O     0.94928   0.20542   0.58763   0.00000  Uiso   1.00
H924   H     0.93079   0.22243   0.61966   0.00000  Uiso   1.00
C925   C     0.83785   0.04722   0.84573   0.00000  Uiso   1.00
H926   H     0.87281   0.04336   0.85124   0.00000  Uiso   1.00
H927   H     0.83168   0.08116   0.84495   0.00000  Uiso   1.00
H928   H     0.80949   0.03575   0.88109   0.00000  Uiso   1.00
O929   O     0.82620   0.04404   0.66325   0.00000  Uiso   1.00
H930   H     0.81490   0.02635   0.63841   0.00000  Uiso   1.00
C931   C     0.83083   0.28601   0.65284   0.00000  Uiso   1.00
H932   H     0.79594   0.28916   0.64694   0.00000  Uiso   1.00
H933   H     0.85909   0.29802   0.61777   0.00000  Uiso   1.00
H934   H     0.83802   0.25220   0.65341   0.00000  Uiso   1.00
O935   O     0.96432   0.10391   0.69861   0.00000  Uiso   1.00
H936   H     0.98074   0.07717   0.69847   0.00000  Uiso   1.00
C937   C     0.72912   0.10076   0.69089   0.00000  Uiso   1.00
H938   H     0.76646   0.10856   0.68005   0.00000  Uiso   1.00
H939   H     0.72242   0.07148   0.71340   0.00000  Uiso   1.00
H940   H     0.72291   0.09504   0.65204   0.00000  Uiso   1.00
C941   C     0.69812   0.23235   0.80845   0.00000  Uiso   1.00
H942   H     0.72235   0.22066   0.82830   0.00000  Uiso   1.00
H943   H     0.71464   0.25808   0.78169   0.00000  Uiso   1.00
H944   H     0.66774   0.24581   0.84134   0.00000  Uiso   1.00
O945   O     0.94068   0.23116   0.80184   0.00000  Uiso   1.00
H946   H     0.90802   0.22098   0.81376   0.00000  Uiso   1.00
O947   O     0.91561   0.25196   0.92714   0.00000  Uiso   1.00
H948   H     0.90599   0.26651   0.89996   0.00000  Uiso   1.00
C949   C     0.97417   0.22066   0.97877   0.00000  Uiso   1.00
H950   H     0.97239   0.25517   0.98644   0.00000  Uiso   1.00
H951   H     0.66961   0.20784   0.99162   0.00000  Uiso   1.00
H952   H     0.98422   0.21306   0.93519   0.00000  Uiso   1.00
O953   O     0.80248   0.13834   0.59071   0.00000  Uiso   1.00
H954   H     0.77726   0.15231   0.58074   0.00000  Uiso   1.00
O955   O     0.72673   0.11616   0.90248   0.00000  Uiso   1.00
H956   H     0.70688   0.09260   0.92071   0.00000  Uiso   1.00
O957   O     0.81090   0.07847   0.51849   0.00000  Uiso   1.00
H958   H     0.84444   0.08149   0.51652   0.00000  Uiso   1.00
O959   O     0.84193   0.28926   0.83536   0.00000  Uiso   1.00
H960   H     0.85230   0.30709   0.86081   0.00000  Uiso   1.00
C961   C     0.16715   0.57971   0.74913   0.00000  Uiso   1.00
C962   C     0.15947   0.48159   0.97901   0.00000  Uiso   1.00
C963   C     0.15584   0.50532   0.93710   0.00000  Uiso   1.00
C964   C     0.18887   0.49718   0.50800   0.00000  Uiso   1.00
C965   C     0.22507   0.52645   0.98478   0.00000  Uiso   1.00
C966   C     0.22096   0.55031   0.94285   0.00000  Uiso   1.00
C967   C     0.18427   0.54109   0.92222   0.00000  Uiso   1.00
C968   C     0.17850   0.48924   0.56231   0.00000  Uiso   1.00
C969   C     0.25140   0.52456   0.56228   0.00000  Uiso   1.00
C970   C     0.12548   0.49198   0.90869   0.00000  Uiso   1.00
C971   C     0.17180   0.64566   0.79356   0.00000  Uiso   1.00
C972   C     0.14044   0.50001   0.85168   0.00000  Uiso   1.00
C973   C     0.17021   0.35608   0.79566   0.00000  Uiso   1.00
C974   C     0.16582   0.37604   0.75104   0.00000  Uiso   1.00
C975   C     0.16234   0.35433   0.70540   0.00000  Uiso   1.00
C976   C     0.16405   0.64389   0.70328   0.00000  Uiso   1.00
C977   C     0.16793   0.62395   0.74816   0.00000  Uiso   1.00
C978   C     0.31549   0.46827   0.72445   0.00000  Uiso   1.00
C979   C     0.03064   0.46855   0.72321   0.00000  Uiso   1.00
C980   C     0.01642   0.53108   0.77705   0.00000  Uiso   1.00
C981   C     0.30245   0.53138   0.77620   0.00000  Uiso   1.00
C982   C     0.16634   0.42027   0.75040   0.00000  Uiso   1.00
C983   C     0.19292   0.50027   0.64817   0.00000  Uiso   1.00
C984   C     0.26055   0.53438   0.50867   0.00000  Uiso   1.00
C985   C     0.20892   0.50371   0.58989   0.00000  Uiso   1.00
C986   C     0.09238   0.45990   0.92816   0.00000  Uiso   1.00
C987   C     0.09718   0.43543   0.96881   0.00000  Uiso   1.00
C988   C     0.13353   0.44328   0.99007   0.00000  Uiso   1.00
H989   H     0.07564   0.40767   0.98028   0.00000  Uiso   1.00
H990   H     0.17848   0.56146   0.89337   0.00000  Uiso   1.00
N991   N     0.04760   0.50001   0.75002   0.00000  Uiso   1.00
N992   N     0.28573   0.49998   0.75001   0.00000  Uiso   1.00
O993   O     0.12846   0.56108   0.75001   0.00000  Uiso   1.00
O994   O     0.20490   0.56107   0.75001   0.00000  Uiso   1.00
O995   O     0.10947   0.50000   0.82681   0.00000  Uiso   1.00
O996   O     0.18591   0.49999   0.82681   0.00000  Uiso   1.00
O997   O     0.12843   0.43893   0.75000   0.00000  Uiso   1.00
O998   O     0.20488   0.43892   0.75000   0.00000  Uiso   1.00
O999   O     0.14742   0.50001   0.67319   0.00000  Uiso   1.00
O1000  O     0.22387   0.50000   0.67319   0.00000  Uiso   1.00
Zn1001 Zn    0.11562   0.50001   0.75000   0.00000  Uiso   1.00
Zn1002 Zn    0.21771   0.49999   0.75000   0.00000  Uiso   1.00
O1003  O     0.28261   0.53876   0.58763   0.00000  Uiso   1.00
H1004  H     0.26412   0.55577   0.61966   0.00000  Uiso   1.00
C1005  C     0.17119   0.38055   0.84573   0.00000  Uiso   1.00
H1006  H     0.20614   0.37669   0.85124   0.00000  Uiso   1.00
H1007  H     0.16501   0.41449   0.84495   0.00000  Uiso   1.00
H1008  H     0.14283   0.36908   0.88109   0.00000  Uiso   1.00
O1009  O     0.15953   0.37737   0.66325   0.00000  Uiso   1.00
H1010  H     0.14823   0.35968   0.63841   0.00000  Uiso   1.00
C1011  C     0.16416   0.61935   0.65284   0.00000  Uiso   1.00
H1012  H     0.12927   0.62250   0.64694   0.00000  Uiso   1.00
H1013  H     0.19243   0.63135   0.61777   0.00000  Uiso   1.00
H1014  H     0.17135   0.58554   0.65341   0.00000  Uiso   1.00
O1015  O     0.29765   0.43725   0.69861   0.00000  Uiso   1.00
H1016  H     0.31407   0.41050   0.69847   0.00000  Uiso   1.00
C1017  C     0.06245   0.43409   0.69089   0.00000  Uiso   1.00
H1018  H     0.09980   0.44190   0.68005   0.00000  Uiso   1.00
H1019  H     0.05575   0.40481   0.71340   0.00000  Uiso   1.00
H1020  H     0.05624   0.42838   0.65204   0.00000  Uiso   1.00
C1021  C     0.03146   0.56569   0.80845   0.00000  Uiso   1.00
H1022  H     0.05568   0.55400   0.82830   0.00000  Uiso   1.00
H1023  H     0.04797   0.59141   0.78169   0.00000  Uiso   1.00
H1024  H     0.00107   0.57914   0.84134   0.00000  Uiso   1.00
O1025  O     0.27401   0.56449   0.80184   0.00000  Uiso   1.00
H1026  H     0.24135   0.55431   0.81376   0.00000  Uiso   1.00
O1027  O     0.24894   0.58530   0.92714   0.00000  Uiso   1.00
H1028  H     0.23933   0.59984   0.89996   0.00000  Uiso   1.00
C1029  C     0.30750   0.55400   0.97877   0.00000  Uiso   1.00
H1030  H     0.30572   0.58850   0.98644   0.00000  Uiso   1.00
H1031  H     0.00295   0.54118   0.99162   0.00000  Uiso   1.00
H1032  H     0.31756   0.54639   0.93519   0.00000  Uiso   1.00
O1033  O     0.13582   0.47168   0.59071   0.00000  Uiso   1.00
H1034  H     0.11059   0.48564   0.58074   0.00000  Uiso   1.00
O1035  O     0.06006   0.44949   0.90248   0.00000  Uiso   1.00
H1036  H     0.04021   0.42593   0.92071   0.00000  Uiso   1.00
O1037  O     0.14423   0.41181   0.51849   0.00000  Uiso   1.00
H1038  H     0.17777   0.41482   0.51652   0.00000  Uiso   1.00
O1039  O     0.17526   0.62260   0.83536   0.00000  Uiso   1.00
H1040  H     0.18563   0.64042   0.86081   0.00000  Uiso   1.00
C1041  C     0.50048   0.57971   0.74913   0.00000  Uiso   1.00
C1042  C     0.49281   0.48159   0.97901   0.00000  Uiso   1.00
C1043  C     0.48917   0.50532   0.93710   0.00000  Uiso   1.00
C1044  C     0.52221   0.49718   0.50800   0.00000  Uiso   1.00
C1045  C     0.55841   0.52645   0.98478   0.00000  Uiso   1.00
C1046  C     0.55429   0.55031   0.94285   0.00000  Uiso   1.00
C1047  C     0.51760   0.54109   0.92222   0.00000  Uiso   1.00
C1048  C     0.51183   0.48924   0.56231   0.00000  Uiso   1.00
C1049  C     0.58473   0.52456   0.56228   0.00000  Uiso   1.00
C1050  C     0.45882   0.49198   0.90869   0.00000  Uiso   1.00
C1051  C     0.50513   0.64566   0.79356   0.00000  Uiso   1.00
C1052  C     0.47378   0.50001   0.85168   0.00000  Uiso   1.00
C1053  C     0.50355   0.35608   0.79566   0.00000  Uiso   1.00
C1054  C     0.49916   0.37604   0.75104   0.00000  Uiso   1.00
C1055  C     0.49567   0.35433   0.70540   0.00000  Uiso   1.00
C1056  C     0.49739   0.64389   0.70328   0.00000  Uiso   1.00
C1057  C     0.50127   0.62395   0.74816   0.00000  Uiso   1.00
C1058  C     0.64882   0.46827   0.72445   0.00000  Uiso   1.00
C1059  C     0.36397   0.46855   0.72321   0.00000  Uiso   1.00
C1060  C     0.34976   0.53108   0.77705   0.00000  Uiso   1.00
C1061  C     0.63578   0.53138   0.77620   0.00000  Uiso   1.00
C1062  C     0.49967   0.42027   0.75040   0.00000  Uiso   1.00
C1063  C     0.52625   0.50027   0.64817   0.00000  Uiso   1.00
C1064  C     0.59388   0.53438   0.50867   0.00000  Uiso   1.00
C1065  C     0.54225   0.50371   0.58989   0.00000  Uiso   1.00
C1066  C     0.42572   0.45990   0.92816   0.00000  Uiso   1.00
C1067  C     0.43052   0.43543   0.96881   0.00000  Uiso   1.00
C1068  C     0.46686   0.44328   0.99007   0.00000  Uiso   1.00
H1069  H     0.40898   0.40767   0.98028   0.00000  Uiso   1.00
H1070  H     0.51182   0.56146   0.89337   0.00000  Uiso   1.00
N1071  N     0.38093   0.50001   0.75002   0.00000  Uiso   1.00
N1072  N     0.61906   0.49998   0.75001   0.00000  Uiso   1.00
O1073  O     0.46179   0.56108   0.75001   0.00000  Uiso   1.00
O1074  O     0.53823   0.56107   0.75001   0.00000  Uiso   1.00
O1075  O     0.44280   0.50000   0.82681   0.00000  Uiso   1.00
O1076  O     0.51924   0.49999   0.82681   0.00000  Uiso   1.00
O1077  O     0.46177   0.43893   0.75000   0.00000  Uiso   1.00
O1078  O     0.53821   0.43892   0.75000   0.00000  Uiso   1.00
O1079  O     0.48076   0.50001   0.67319   0.00000  Uiso   1.00
O1080  O     0.55720   0.50000   0.67319   0.00000  Uiso   1.00
Zn1081 Zn    0.44896   0.50001   0.75000   0.00000  Uiso   1.00
Zn1082 Zn    0.55104   0.49999   0.75000   0.00000  Uiso   1.00
O1083  O     0.61595   0.53876   0.58763   0.00000  Uiso   1.00
H1084  H     0.59745   0.55577   0.61966   0.00000  Uiso   1.00
C1085  C     0.50452   0.38055   0.84573   0.00000  Uiso   1.00
H1086  H     0.53948   0.37669   0.85124   0.00000  Uiso   1.00
H1087  H     0.49834   0.41449   0.84495   0.00000  Uiso   1.00
H1088  H     0.47616   0.36908   0.88109   0.00000  Uiso   1.00
O1089  O     0.49286   0.37737   0.66325   0.00000  Uiso   1.00
H1090  H     0.48157   0.35968   0.63841   0.00000  Uiso   1.00
C1091  C     0.49749   0.61935   0.65284   0.00000  Uiso   1.00
H1092  H     0.46260   0.62250   0.64694   0.00000  Uiso   1.00
H1093  H     0.52576   0.63135   0.61777   0.00000  Uiso   1.00
H1094  H     0.50469   0.58554   0.65341   0.00000  Uiso   1.00
O1095  O     0.63098   0.43725   0.69861   0.00000  Uiso   1.00
H1096  H     0.64741   0.41050   0.69847   0.00000  Uiso   1.00
C1097  C     0.39578   0.43409   0.69089   0.00000  Uiso   1.00
H1098  H     0.43313   0.44190   0.68005   0.00000  Uiso   1.00
H1099  H     0.38908   0.40481   0.71340   0.00000  Uiso   1.00
H1100  H     0.38957   0.42838   0.65204   0.00000  Uiso   1.00
C1101  C     0.36479   0.56569   0.80845   0.00000  Uiso   1.00
H1102  H     0.38901   0.55400   0.82830   0.00000  Uiso   1.00
H1103  H     0.38130   0.59141   0.78169   0.00000  Uiso   1.00
H1104  H     0.33441   0.57914   0.84134   0.00000  Uiso   1.00
O1105  O     0.60735   0.56449   0.80184   0.00000  Uiso   1.00
H1106  H     0.57468   0.55431   0.81376   0.00000  Uiso   1.00
O1107  O     0.58227   0.58530   0.92714   0.00000  Uiso   1.00
H1108  H     0.57266   0.59984   0.89996   0.00000  Uiso   1.00
C1109  C     0.64083   0.55400   0.97877   0.00000  Uiso   1.00
H1110  H     0.63905   0.58850   0.98644   0.00000  Uiso   1.00
H1111  H     0.33628   0.54118   0.99162   0.00000  Uiso   1.00
H1112  H     0.65089   0.54639   0.93519   0.00000  Uiso   1.00
O1113  O     0.46915   0.47168   0.59071   0.00000  Uiso   1.00
H1114  H     0.44392   0.48564   0.58074   0.00000  Uiso   1.00
O1115  O     0.39339   0.44949   0.90248   0.00000  Uiso   1.00
H1116  H     0.37355   0.42593   0.92071   0.00000  Uiso   1.00
O1117  O     0.47756   0.41181   0.51849   0.00000  Uiso   1.00
H1118  H     0.51111   0.41482   0.51652   0.00000  Uiso   1.00
O1119  O     0.50860   0.62260   0.83536   0.00000  Uiso   1.00
H1120  H     0.51896   0.64042   0.86081   0.00000  Uiso   1.00
C1121  C     0.83382   0.57971   0.74913   0.00000  Uiso   1.00
C1122  C     0.82614   0.48159   0.97901   0.00000  Uiso   1.00
C1123  C     0.82250   0.50532   0.93710   0.00000  Uiso   1.00
C1124  C     0.85554   0.49718   0.50800   0.00000  Uiso   1.00
C1125  C     0.89174   0.52645   0.98478   0.00000  Uiso   1.00
C1126  C     0.88763   0.55031   0.94285   0.00000  Uiso   1.00
C1127  C     0.85094   0.54109   0.92222   0.00000  Uiso   1.00
C1128  C     0.84516   0.48924   0.56231   0.00000  Uiso   1.00
C1129  C     0.91807   0.52456   0.56228   0.00000  Uiso   1.00
C1130  C     0.79215   0.49198   0.90869   0.00000  Uiso   1.00
C1131  C     0.83846   0.64566   0.79356   0.00000  Uiso   1.00
C1132  C     0.80711   0.50001   0.85168   0.00000  Uiso   1.00
C1133  C     0.83688   0.35608   0.79566   0.00000  Uiso   1.00
C1134  C     0.83249   0.37604   0.75104   0.00000  Uiso   1.00
C1135  C     0.82900   0.35433   0.70540   0.00000  Uiso   1.00
C1136  C     0.83072   0.64389   0.70328   0.00000  Uiso   1.00
C1137  C     0.83460   0.62395   0.74816   0.00000  Uiso   1.00
C1138  C     0.98216   0.46827   0.72445   0.00000  Uiso   1.00
C1139  C     0.69730   0.46855   0.72321   0.00000  Uiso   1.00
C1140  C     0.68309   0.53108   0.77705   0.00000  Uiso   1.00
C1141  C     0.96911   0.53138   0.77620   0.00000  Uiso   1.00
C1142  C     0.83301   0.42027   0.75040   0.00000  Uiso   1.00
C1143  C     0.85958   0.50027   0.64817   0.00000  Uiso   1.00
C1144  C     0.92721   0.53438   0.50867   0.00000  Uiso   1.00
C1145  C     0.87559   0.50371   0.58989   0.00000  Uiso   1.00
C1146  C     0.75905   0.45990   0.92816   0.00000  Uiso   1.00
C1147  C     0.76385   0.43543   0.96881   0.00000  Uiso   1.00
C1148  C     0.80019   0.44328   0.99007   0.00000  Uiso   1.00
H1149  H     0.74231   0.40767   0.98028   0.00000  Uiso   1.00
H1150  H     0.84515   0.56146   0.89337   0.00000  Uiso   1.00
N1151  N     0.71426   0.50001   0.75002   0.00000  Uiso   1.00
N1152  N     0.95239   0.49998   0.75001   0.00000  Uiso   1.00
O1153  O     0.79512   0.56108   0.75001   0.00000  Uiso   1.00
O1154  O     0.87157   0.56107   0.75001   0.00000  Uiso   1.00
O1155  O     0.77613   0.50000   0.82681   0.00000  Uiso   1.00
O1156  O     0.85258   0.49999   0.82681   0.00000  Uiso   1.00
O1157  O     0.79510   0.43893   0.75000   0.00000  Uiso   1.00
O1158  O     0.87154   0.43892   0.75000   0.00000  Uiso   1.00
O1159  O     0.81409   0.50001   0.67319   0.00000  Uiso   1.00
O1160  O     0.89053   0.50000   0.67319   0.00000  Uiso   1.00
Zn1161 Zn    0.78229   0.50001   0.75000   0.00000  Uiso   1.00
Zn1162 Zn    0.88438   0.49999   0.75000   0.00000  Uiso   1.00
O1163  O     0.94928   0.53876   0.58763   0.00000  Uiso   1.00
H1164  H     0.93079   0.55577   0.61966   0.00000  Uiso   1.00
C1165  C     0.83785   0.38055   0.84573   0.00000  Uiso   1.00
H1166  H     0.87281   0.37669   0.85124   0.00000  Uiso   1.00
H1167  H     0.83168   0.41449   0.84495   0.00000  Uiso   1.00
H1168  H     0.80949   0.36908   0.88109   0.00000  Uiso   1.00
O1169  O     0.82620   0.37737   0.66325   0.00000  Uiso   1.00
H1170  H     0.81490   0.35968   0.63841   0.00000  Uiso   1.00
C1171  C     0.83083   0.61935   0.65284   0.00000  Uiso   1.00
H1172  H     0.79594   0.62250   0.64694   0.00000  Uiso   1.00
H1173  H     0.85909   0.63135   0.61777   0.00000  Uiso   1.00
H1174  H     0.83802   0.58554   0.65341   0.00000  Uiso   1.00
O1175  O     0.96432   0.43725   0.69861   0.00000  Uiso   1.00
H1176  H     0.98074   0.41050   0.69847   0.00000  Uiso   1.00
C1177  C     0.72912   0.43409   0.69089   0.00000  Uiso   1.00
H1178  H     0.76646   0.44190   0.68005   0.00000  Uiso   1.00
H1179  H     0.72242   0.40481   0.71340   0.00000  Uiso   1.00
H1180  H     0.72291   0.42838   0.65204   0.00000  Uiso   1.00
C1181  C     0.69812   0.56569   0.80845   0.00000  Uiso   1.00
H1182  H     0.72235   0.55400   0.82830   0.00000  Uiso   1.00
H1183  H     0.71464   0.59141   0.78169   0.00000  Uiso   1.00
H1184  H     0.66774   0.57914   0.84134   0.00000  Uiso   1.00
O1185  O     0.94068   0.56449   0.80184   0.00000  Uiso   1.00
H1186  H     0.90802   0.55431   0.81376   0.00000  Uiso   1.00
O1187  O     0.91561   0.58530   0.92714   0.00000  Uiso   1.00
H1188  H     0.90599   0.59984   0.89996   0.00000  Uiso   1.00
C1189  C     0.97417   0.55400   0.97877   0.00000  Uiso   1.00
H1190  H     0.97239   0.58850   0.98644   0.00000  Uiso   1.00
H1191  H     0.66961   0.54118   0.99162   0.00000  Uiso   1.00
H1192  H     0.98422   0.54639   0.93519   0.00000  Uiso   1.00
O1193  O     0.80248   0.47168   0.59071   0.00000  Uiso   1.00
H1194  H     0.77726   0.48564   0.58074   0.00000  Uiso   1.00
O1195  O     0.72673   0.44949   0.90248   0.00000  Uiso   1.00
H1196  H     0.70688   0.42593   0.92071   0.00000  Uiso   1.00
O1197  O     0.81090   0.41181   0.51849   0.00000  Uiso   1.00
H1198  H     0.84444   0.41482   0.51652   0.00000  Uiso   1.00
O1199  O     0.84193   0.62260   0.83536   0.00000  Uiso   1.00
H1200  H     0.85230   0.64042   0.86081   0.00000  Uiso   1.00
C1201  C     0.16715   0.91304   0.74913   0.00000  Uiso   1.00
C1202  C     0.15947   0.81493   0.97901   0.00000  Uiso   1.00
C1203  C     0.15584   0.83865   0.93710   0.00000  Uiso   1.00
C1204  C     0.18887   0.83051   0.50800   0.00000  Uiso   1.00
C1205  C     0.22507   0.85979   0.98478   0.00000  Uiso   1.00
C1206  C     0.22096   0.88364   0.94285   0.00000  Uiso   1.00
C1207  C     0.18427   0.87443   0.92222   0.00000  Uiso   1.00
C1208  C     0.17850   0.82258   0.56231   0.00000  Uiso   1.00
C1209  C     0.25140   0.85790   0.56228   0.00000  Uiso   1.00
C1210  C     0.12548   0.82532   0.90869   0.00000  Uiso   1.00
C1211  C     0.17180   0.97900   0.79356   0.00000  Uiso   1.00
C1212  C     0.14044   0.83334   0.85168   0.00000  Uiso   1.00
C1213  C     0.17021   0.68941   0.79566   0.00000  Uiso   1.00
C1214  C     0.16582   0.70937   0.75104   0.00000  Uiso   1.00
C1215  C     0.16234   0.68767   0.70540   0.00000  Uiso   1.00
C1216  C     0.16405   0.97722   0.70328   0.00000  Uiso   1.00
C1217  C     0.16793   0.95728   0.74816   0.00000  Uiso   1.00
C1218  C     0.31549   0.80161   0.72445   0.00000  Uiso   1.00
C1219  C     0.03064   0.80189   0.72321   0.00000  Uiso   1.00
C1220  C     0.01642   0.86441   0.77705   0.00000  Uiso   1.00
C1221  C     0.30245   0.86472   0.77620   0.00000  Uiso   1.00
C1222  C     0.16634   0.75360   0.75040   0.00000  Uiso   1.00
C1223  C     0.19292   0.83360   0.64817   0.00000  Uiso   1.00
C1224  C     0.26055   0.86771   0.50867   0.00000  Uiso   1.00
C1225  C     0.20892   0.83704   0.58989   0.00000  Uiso   1.00
C1226  C     0.09238   0.79323   0.92816   0.00000  Uiso   1.00
C1227  C     0.09718   0.76876   0.96881   0.00000  Uiso   1.00
C1228  C     0.13353   0.77662   0.99007   0.00000  Uiso   1.00
H1229  H     0.07564   0.74100   0.98028   0.00000  Uiso   1.00
H1230  H     0.17848   0.89479   0.89337   0.00000  Uiso   1.00
N1231  N     0.04760   0.83334   0.75002   0.00000  Uiso   1.00
N1232  N     0.28573   0.83331   0.75001   0.00000  Uiso   1.00
O1233  O     0.12846   0.89442   0.75001   0.00000  Uiso   1.00
O1234  O     0.20490   0.89441   0.75001   0.00000  Uiso   1.00
O1235  O     0.10947   0.83333   0.82681   0.00000  Uiso   1.00
O1236  O     0.18591   0.83332   0.82681   0.00000  Uiso   1.00
O1237  O     0.12843   0.77226   0.75000   0.00000  Uiso   1.00
O1238  O     0.20488   0.77225   0.75000   0.00000  Uiso   1.00
O1239  O     0.14742   0.83335   0.67319   0.00000  Uiso   1.00
O1240  O     0.22387   0.83334   0.67319   0.00000  Uiso   1.00
Zn1241 Zn    0.11562   0.83334   0.75000   0.00000  Uiso   1.00
Zn1242 Zn    0.21771   0.83333   0.75000   0.00000  Uiso   1.00
O1243  O     0.28261   0.87209   0.58763   0.00000  Uiso   1.00
H1244  H     0.26412   0.88910   0.61966   0.00000  Uiso   1.00
C1245  C     0.17119   0.71388   0.84573   0.00000  Uiso   1.00
H1246  H     0.20614   0.71002   0.85124   0.00000  Uiso   1.00
H1247  H     0.16501   0.74783   0.84495   0.00000  Uiso   1.00
H1248  H     0.14283   0.70241   0.88109   0.00000  Uiso   1.00
O1249  O     0.15953   0.71071   0.66325   0.00000  Uiso   1.00
H1250  H     0.14823   0.69301   0.63841   0.00000  Uiso   1.00
C1251  C     0.16416   0.95268   0.65284   0.00000  Uiso   1.00
H1252  H     0.12927   0.95583   0.64694   0.00000  Uiso   1.00
H1253  H     0.19243   0.96469   0.61777   0.00000  Uiso   1.00
H1254  H     0.17135   0.91887   0.65341   0.00000  Uiso   1.00
O1255  O     0.29765   0.77058   0.69861   0.00000  Uiso   1.00
H1256  H     0.31407   0.74383   0.69847   0.00000  Uiso   1.00
C1257  C     0.06245   0.76742   0.69089   0.00000  Uiso   1.00
H1258  H     0.09980   0.77523   0.68005   0.00000  Uiso   1.00
H1259  H     0.05575   0.73814   0.71340   0.00000  Uiso   1.00
H1260  H     0.05624   0.76171   0.65204   0.00000  Uiso   1.00
C1261  C     0.03146   0.89902   0.80845   0.00000  Uiso   1.00
H1262  H     0.05568   0.88733   0.82830   0.00000  Uiso   1.00
H1263  H     0.04797   0.92474   0.78169   0.00000  Uiso   1.00
H1264  H     0.00107   0.91247   0.84134   0.00000  Uiso   1.00
O1265  O     0.27401   0.89783   0.80184   0.00000  Uiso   1.00
H1266  H     0.24135   0.88765   0.81376   0.00000  Uiso   1.00
O1267  O     0.24894   0.91863   0.92714   0.00000  Uiso   1.00
H1268  H     0.23933   0.93318   0.89996   0.00000  Uiso   1.00
C1269  C     0.30750   0.88733   0.97877   0.00000  Uiso   1.00
H1270  H     0.30572   0.92183   0.98644   0.00000  Uiso   1.00
H1271  H     0.00295   0.87451   0.99162   0.00000  Uiso   1.00
H1272  H     0.31756   0.87973   0.93519   0.00000  Uiso   1.00
O1273  O     0.13582   0.80501   0.59071   0.00000  Uiso   1.00
H1274  H     0.11059   0.81898   0.58074   0.00000  Uiso   1.00
O1275  O     0.06006   0.78282   0.90248   0.00000  Uiso   1.00
H1276  H     0.04021   0.75926   0.92071   0.00000  Uiso   1.00
O1277  O     0.14423   0.74514   0.51849   0.00000  Uiso   1.00
H1278  H     0.17777   0.74815   0.51652   0.00000  Uiso   1.00
O1279  O     0.17526   0.95593   0.83536   0.00000  Uiso   1.00
H1280  H     0.18563   0.97375   0.86081   0.00000  Uiso   1.00
C1281  C     0.50048   0.91304   0.74913   0.00000  Uiso   1.00
C1282  C     0.49281   0.81493   0.97901   0.00000  Uiso   1.00
C1283  C     0.48917   0.83865   0.93710   0.00000  Uiso   1.00
C1284  C     0.52221   0.83051   0.50800   0.00000  Uiso   1.00
C1285  C     0.55841   0.85979   0.98478   0.00000  Uiso   1.00
C1286  C     0.55429   0.88364   0.94285   0.00000  Uiso   1.00
C1287  C     0.51760   0.87443   0.92222   0.00000  Uiso   1.00
C1288  C     0.51183   0.82258   0.56231   0.00000  Uiso   1.00
C1289  C     0.58473   0.85790   0.56228   0.00000  Uiso   1.00
C1290  C     0.45882   0.82532   0.90869   0.00000  Uiso   1.00
C1291  C     0.50513   0.97900   0.79356   0.00000  Uiso   1.00
C1292  C     0.47378   0.83334   0.85168   0.00000  Uiso   1.00
C1293  C     0.50355   0.68941   0.79566   0.00000  Uiso   1.00
C1294  C     0.49916   0.70937   0.75104   0.00000  Uiso   1.00
C1295  C     0.49567   0.68767   0.70540   0.00000  Uiso   1.00
C1296  C     0.49739   0.97722   0.70328   0.00000  Uiso   1.00
C1297  C     0.50127   0.95728   0.74816   0.00000  Uiso   1.00
C1298  C     0.64882   0.80161   0.72445   0.00000  Uiso   1.00
C1299  C     0.36397   0.80189   0.72321   0.00000  Uiso   1.00
C1300  C     0.34976   0.86441   0.77705   0.00000  Uiso   1.00
C1301  C     0.63578   0.86472   0.77620   0.00000  Uiso   1.00
C1302  C     0.49967   0.75360   0.75040   0.00000  Uiso   1.00
C1303  C     0.52625   0.83360   0.64817   0.00000  Uiso   1.00
C1304  C     0.59388   0.86771   0.50867   0.00000  Uiso   1.00
C1305  C     0.54225   0.83704   0.58989   0.00000  Uiso   1.00
C1306  C     0.42572   0.79323   0.92816   0.00000  Uiso   1.00
C1307  C     0.43052   0.76876   0.96881   0.00000  Uiso   1.00
C1308  C     0.46686   0.77662   0.99007   0.00000  Uiso   1.00
H1309  H     0.40898   0.74100   0.98028   0.00000  Uiso   1.00
H1310  H     0.51182   0.89479   0.89337   0.00000  Uiso   1.00
N1311  N     0.38093   0.83334   0.75002   0.00000  Uiso   1.00
N1312  N     0.61906   0.83331   0.75001   0.00000  Uiso   1.00
O1313  O     0.46179   0.89442   0.75001   0.00000  Uiso   1.00
O1314  O     0.53823   0.89441   0.75001   0.00000  Uiso   1.00
O1315  O     0.44280   0.83333   0.82681   0.00000  Uiso   1.00
O1316  O     0.51924   0.83332   0.82681   0.00000  Uiso   1.00
O1317  O     0.46177   0.77226   0.75000   0.00000  Uiso   1.00
O1318  O     0.53821   0.77225   0.75000   0.00000  Uiso   1.00
O1319  O     0.48076   0.83335   0.67319   0.00000  Uiso   1.00
O1320  O     0.55720   0.83334   0.67319   0.00000  Uiso   1.00
Zn1321 Zn    0.44896   0.83334   0.75000   0.00000  Uiso   1.00
Zn1322 Zn    0.55104   0.83333   0.75000   0.00000  Uiso   1.00
O1323  O     0.61595   0.87209   0.58763   0.00000  Uiso   1.00
H1324  H     0.59745   0.88910   0.61966   0.00000  Uiso   1.00
C1325  C     0.50452   0.71388   0.84573   0.00000  Uiso   1.00
H1326  H     0.53948   0.71002   0.85124   0.00000  Uiso   1.00
H1327  H     0.49834   0.74783   0.84495   0.00000  Uiso   1.00
H1328  H     0.47616   0.70241   0.88109   0.00000  Uiso   1.00
O1329  O     0.49286   0.71071   0.66325   0.00000  Uiso   1.00
H1330  H     0.48157   0.69301   0.63841   0.00000  Uiso   1.00
C1331  C     0.49749   0.95268   0.65284   0.00000  Uiso   1.00
H1332  H     0.46260   0.95583   0.64694   0.00000  Uiso   1.00
H1333  H     0.52576   0.96469   0.61777   0.00000  Uiso   1.00
H1334  H     0.50469   0.91887   0.65341   0.00000  Uiso   1.00
O1335  O     0.63098   0.77058   0.69861   0.00000  Uiso   1.00
H1336  H     0.64741   0.74383   0.69847   0.00000  Uiso   1.00
C1337  C     0.39578   0.76742   0.69089   0.00000  Uiso   1.00
H1338  H     0.43313   0.77523   0.68005   0.00000  Uiso   1.00
H1339  H     0.38908   0.73814   0.71340   0.00000  Uiso   1.00
H1340  H     0.38957   0.76171   0.65204   0.00000  Uiso   1.00
C1341  C     0.36479   0.89902   0.80845   0.00000  Uiso   1.00
H1342  H     0.38901   0.88733   0.82830   0.00000  Uiso   1.00
H1343  H     0.38130   0.92474   0.78169   0.00000  Uiso   1.00
H1344  H     0.33441   0.91247   0.84134   0.00000  Uiso   1.00
O1345  O     0.60735   0.89783   0.80184   0.00000  Uiso   1.00
H1346  H     0.57468   0.88765   0.81376   0.00000  Uiso   1.00
O1347  O     0.58227   0.91863   0.92714   0.00000  Uiso   1.00
H1348  H     0.57266   0.93318   0.89996   0.00000  Uiso   1.00
C1349  C     0.64083   0.88733   0.97877   0.00000  Uiso   1.00
H1350  H     0.63905   0.92183   0.98644   0.00000  Uiso   1.00
H1351  H     0.33628   0.87451   0.99162   0.00000  Uiso   1.00
H1352  H     0.65089   0.87973   0.93519   0.00000  Uiso   1.00
O1353  O     0.46915   0.80501   0.59071   0.00000  Uiso   1.00
H1354  H     0.44392   0.81898   0.58074   0.00000  Uiso   1.00
O1355  O     0.39339   0.78282   0.90248   0.00000  Uiso   1.00
H1356  H     0.37355   0.75926   0.92071   0.00000  Uiso   1.00
O1357  O     0.47756   0.74514   0.51849   0.00000  Uiso   1.00
H1358  H     0.51111   0.74815   0.51652   0.00000  Uiso   1.00
O1359  O     0.50860   0.95593   0.83536   0.00000  Uiso   1.00
H1360  H     0.51896   0.97375   0.86081   0.00000  Uiso   1.00
C1361  C     0.83382   0.91304   0.74913   0.00000  Uiso   1.00
C1362  C     0.82614   0.81493   0.97901   0.00000  Uiso   1.00
C1363  C     0.82250   0.83865   0.93710   0.00000  Uiso   1.00
C1364  C     0.85554   0.83051   0.50800   0.00000  Uiso   1.00
C1365  C     0.89174   0.85979   0.98478   0.00000  Uiso   1.00
C1366  C     0.88763   0.88364   0.94285   0.00000  Uiso   1.00
C1367  C     0.85094   0.87443   0.92222   0.00000  Uiso   1.00
C1368  C     0.84516   0.82258   0.56231   0.00000  Uiso   1.00
C1369  C     0.91807   0.85790   0.56228   0.00000  Uiso   1.00
C1370  C     0.79215   0.82532   0.90869   0.00000  Uiso   1.00
C1371  C     0.83846   0.97900   0.79356   0.00000  Uiso   1.00
C1372  C     0.80711   0.83334   0.85168   0.00000  Uiso   1.00
C1373  C     0.83688   0.68941   0.79566   0.00000  Uiso   1.00
C1374  C     0.83249   0.70937   0.75104   0.00000  Uiso   1.00
C1375  C     0.82900   0.68767   0.70540   0.00000  Uiso   1.00
C1376  C     0.83072   0.97722   0.70328   0.00000  Uiso   1.00
C1377  C     0.83460   0.95728   0.74816   0.00000  Uiso   1.00
C1378  C     0.98216   0.80161   0.72445   0.00000  Uiso   1.00
C1379  C     0.69730   0.80189   0.72321   0.00000  Uiso   1.00
C1380  C     0.68309   0.86441   0.77705   0.00000  Uiso   1.00
C1381  C     0.96911   0.86472   0.77620   0.00000  Uiso   1.00
C1382  C     0.83301   0.75360   0.75040   0.00000  Uiso   1.00
C1383  C     0.85958   0.83360   0.64817   0.00000  Uiso   1.00
C1384  C     0.92721   0.86771   0.50867   0.00000  Uiso   1.00
C1385  C     0.87559   0.83704   0.58989   0.00000  Uiso   1.00
C1386  C     0.75905   0.79323   0.92816   0.00000  Uiso   1.00
C1387  C     0.76385   0.76876   0.96881   0.00000  Uiso   1.00
C1388  C     0.80019   0.77662   0.99007   0.00000  Uiso   1.00
H1389  H     0.74231   0.74100   0.98028   0.00000  Uiso   1.00
H1390  H     0.84515   0.89479   0.89337   0.00000  Uiso   1.00
N1391  N     0.71426   0.83334   0.75002   0.00000  Uiso   1.00
N1392  N     0.95239   0.83331   0.75001   0.00000  Uiso   1.00
O1393  O     0.79512   0.89442   0.75001   0.00000  Uiso   1.00
O1394  O     0.87157   0.89441   0.75001   0.00000  Uiso   1.00
O1395  O     0.77613   0.83333   0.82681   0.00000  Uiso   1.00
O1396  O     0.85258   0.83332   0.82681   0.00000  Uiso   1.00
O1397  O     0.79510   0.77226   0.75000   0.00000  Uiso   1.00
O1398  O     0.87154   0.77225   0.75000   0.00000  Uiso   1.00
O1399  O     0.81409   0.83335   0.67319   0.00000  Uiso   1.00
O1400  O     0.89053   0.83334   0.67319   0.00000  Uiso   1.00
Zn1401 Zn    0.78229   0.83334   0.75000   0.00000  Uiso   1.00
Zn1402 Zn    0.88438   0.83333   0.75000   0.00000  Uiso   1.00
O1403  O     0.94928   0.87209   0.58763   0.00000  Uiso   1.00
H1404  H     0.93079   0.88910   0.61966   0.00000  Uiso   1.00
C1405  C     0.83785   0.71388   0.84573   0.00000  Uiso   1.00
H1406  H     0.87281   0.71002   0.85124   0.00000  Uiso   1.00
H1407  H     0.83168   0.74783   0.84495   0.00000  Uiso   1.00
H1408  H     0.80949   0.70241   0.88109   0.00000  Uiso   1.00
O1409  O     0.82620   0.71071   0.66325   0.00000  Uiso   1.00
H1410  H     0.81490   0.69301   0.63841   0.00000  Uiso   1.00
C1411  C     0.83083   0.95268   0.65284   0.00000  Uiso   1.00
H1412  H     0.79594   0.95583   0.64694   0.00000  Uiso   1.00
H1413  H     0.85909   0.96469   0.61777   0.00000  Uiso   1.00
H1414  H     0.83802   0.91887   0.65341   0.00000  Uiso   1.00
O1415  O     0.96432   0.77058   0.69861   0.00000  Uiso   1.00
H1416  H     0.98074   0.74383   0.69847   0.00000  Uiso   1.00
C1417  C     0.72912   0.76742   0.69089   0.00000  Uiso   1.00
H1418  H     0.76646   0.77523   0.68005   0.00000  Uiso   1.00
H1419  H     0.72242   0.73814   0.71340   0.00000  Uiso   1.00
H1420  H     0.72291   0.76171   0.65204   0.00000  Uiso   1.00
C1421  C     0.69812   0.89902   0.80845   0.00000  Uiso   1.00
H1422  H     0.72235   0.88733   0.82830   0.00000  Uiso   1.00
H1423  H     0.71464   0.92474   0.78169   0.00000  Uiso   1.00
H1424  H     0.66774   0.91247   0.84134   0.00000  Uiso   1.00
O1425  O     0.94068   0.89783   0.80184   0.00000  Uiso   1.00
H1426  H     0.90802   0.88765   0.81376   0.00000  Uiso   1.00
O1427  O     0.91561   0.91863   0.92714   0.00000  Uiso   1.00
H1428  H     0.90599   0.93318   0.89996   0.00000  Uiso   1.00
C1429  C     0.97417   0.88733   0.97877   0.00000  Uiso   1.00
H1430  H     0.97239   0.92183   0.98644   0.00000  Uiso   1.00
H1431  H     0.66961   0.87451   0.99162   0.00000  Uiso   1.00
H1432  H     0.98422   0.87973   0.93519   0.00000  Uiso   1.00
O1433  O     0.80248   0.80501   0.59071   0.00000  Uiso   1.00
H1434  H     0.77726   0.81898   0.58074   0.00000  Uiso   1.00
O1435  O     0.72673   0.78282   0.90248   0.00000  Uiso   1.00
H1436  H     0.70688   0.75926   0.92071   0.00000  Uiso   1.00
O1437  O     0.81090   0.74514   0.51849   0.00000  Uiso   1.00
H1438  H     0.84444   0.74815   0.51652   0.00000  Uiso   1.00
O1439  O     0.84193   0.95593   0.83536   0.00000  Uiso   1.00
H1440  H     0.85230   0.97375   0.86081   0.00000  Uiso   1.00
loop_
_geom_bond_atom_site_label_1
_geom_bond_atom_site_label_2
_geom_bond_distance
_geom_bond_site_symmetry_2
_ccdc_geom_bond_type
C1     O34     1.289   .     A
C1     O33     1.289   .     A
C1     C17     1.413   .     S
C2     C3      1.402   .     A
C2     C28     1.429   .     A
C2     C724    1.417   .     S
C3     C7      1.407   .     A
C3     C10     1.407   .     A
C4     C8      1.402   .     A
C4     C722    1.417   1_554 S
C4     C725    1.419   1_554 S
C5     C6      1.410   .     A
C5     C724    1.419   .     S
C5     C744    1.417   .     S
C6     O67     1.382   .     S
C6     C7      1.400   .     A
C7     H30     1.080   .     S
C8     C25     1.403   .     A
C8     O73     1.379   .     S
C9     C25     1.417   .     A
C9     O43     1.379   .     S
C9     C24     1.403   .     A
C10    C26     1.408   .     A
C10    C12     1.460   .     S
C11    O79     1.386   .     S
C11    C17     1.399   .     A
C11    C253    1.396   .     S
C12    O36     1.303   .     A
C12    O35     1.300   .     A
C13    C14     1.409   .     A
C13    C45     1.519   .     S
C13    C491    1.396   1_545 S
C14    C22     1.412   .     S
C14    C15     1.401   .     A
C15    O49     1.387   .     S
C15    C496    1.397   1_545 S
C16    C51     1.519   .     S
C16    C17     1.409   .     A
C16    C255    1.397   .     S
C18    O55     1.379   .     S
C18    N32     1.358   .     A
C18    C99     1.439   .     S
C19    N31     1.390   .     A
C19    C57     1.504   .     S
C19    C178    1.439   1_455 S
C20    C61     1.506   .     S
C20    N31     1.375   .     A
C20    C181    1.422   1_455 S
C21    N32     1.376   .     A
C21    O65     1.373   .     S
C21    C100    1.422   .     S
C22    O38     1.288   .     A
C22    O37     1.290   .     A
C23    O39     1.304   .     A
C23    C25     1.467   .     S
C23    O40     1.302   .     A
C24    C725    1.417   1_554 S
C24    C789    1.512   1_554 S
C26    C27     1.401   .     A
C26    O75     1.382   .     S
C27    H29     1.083   .     S
C27    C28     1.393   .     A
C28    O797    1.380   .     S
N31    Zn41    2.034   .     S
N32    Zn42    2.034   .     S
O33    Zn41    1.982   .     S
O34    Zn42    1.991   .     S
O35    Zn41    1.981   .     S
O36    Zn42    1.944   .     S
O37    Zn41    1.991   .     S
O38    Zn42    1.982   .     S
O39    Zn41    1.944   .     S
O40    Zn42    1.981   .     S
O43    H44     0.991   .     S
C45    H47     1.103   .     S
C45    H46     1.110   .     S
C45    H48     1.111   .     S
O49    H50     0.988   .     S
C51    H52     1.110   .     S
C51    H53     1.111   .     S
C51    H54     1.104   .     S
O55    H56     0.989   .     S
C57    H59     1.110   .     S
C57    H60     1.111   .     S
C57    H58     1.087   .     S
C61    H63     1.109   .     S
C61    H64     1.109   .     S
C61    H62     1.100   .     S
O65    H66     0.979   .     S
O67    H68     0.991   .     S
C69    H70     1.110   .     S
C69    H72     1.110   .     S
C69    C744    1.512   .     S
C69    H151    1.111   .     S
H71    C229    1.111   1_455 S
O73    H74     0.992   .     S
O75    H76     0.992   .     S
O77    H78     0.991   .     S
O77    C748    1.380   1_554 S
O79    H80     0.987   .     S
C81    O114    1.289   .     A
C81    O113    1.289   .     A
C81    C97     1.413   .     S
C82    C83     1.402   .     A
C82    C108    1.429   .     A
C82    C804    1.417   .     S
C83    C87     1.407   .     A
C83    C90     1.407   .     A
C84    C88     1.402   .     A
C84    C802    1.417   1_554 S
C84    C805    1.419   1_554 S
C85    C86     1.410   .     A
C85    C804    1.419   .     S
C85    C824    1.417   .     S
C86    O147    1.382   .     S
C86    C87     1.400   .     A
C87    H110    1.080   .     S
C88    C105    1.403   .     A
C88    O153    1.379   .     S
C89    C105    1.417   .     A
C89    O123    1.379   .     S
C89    C104    1.403   .     A
C90    C106    1.408   .     A
C90    C92     1.460   .     S
C91    O159    1.386   .     S
C91    C97     1.399   .     A
C91    C333    1.396   .     S
C92    O116    1.303   .     A
C92    O115    1.300   .     A
C93    C94     1.409   .     A
C93    C125    1.519   .     S
C93    C571    1.396   1_545 S
C94    C102    1.412   .     S
C94    C95     1.401   .     A
C95    O129    1.387   .     S
C95    C576    1.397   1_545 S
C96    C131    1.519   .     S
C96    C97     1.409   .     A
C96    C335    1.397   .     S
C98    O135    1.379   .     S
C98    N112    1.358   .     A
C98    C179    1.439   .     S
C99    N111    1.390   .     A
C99    C137    1.504   .     S
C100   C141    1.506   .     S
C100   N111    1.375   .     A
C101   N112    1.376   .     A
C101   O145    1.373   .     S
C101   C180    1.422   .     S
C102   O118    1.288   .     A
C102   O117    1.290   .     A
C103   O119    1.304   .     A
C103   C105    1.467   .     S
C103   O120    1.302   .     A
C104   C805    1.417   1_554 S
C104   C869    1.512   1_554 S
C106   C107    1.401   .     A
C106   O155    1.382   .     S
C107   H109    1.083   .     S
C107   C108    1.393   .     A
C108   O877    1.380   .     S
N111   Zn121   2.034   .     S
N112   Zn122   2.034   .     S
O113   Zn121   1.982   .     S
O114   Zn122   1.991   .     S
O115   Zn121   1.981   .     S
O116   Zn122   1.944   .     S
O117   Zn121   1.991   .     S
O118   Zn122   1.982   .     S
O119   Zn121   1.944   .     S
O120   Zn122   1.981   .     S
O123   H124    0.991   .     S
C125   H127    1.103   .     S
C125   H126    1.110   .     S
C125   H128    1.111   .     S
O129   H130    0.988   .     S
C131   H132    1.110   .     S
C131   H133    1.111   .     S
C131   H134    1.104   .     S
O135   H136    0.989   .     S
C137   H139    1.110   .     S
C137   H140    1.111   .     S
C137   H138    1.087   .     S
C141   H143    1.109   .     S
C141   H144    1.109   .     S
C141   H142    1.100   .     S
O145   H146    0.979   .     S
O147   H148    0.991   .     S
C149   H150    1.110   .     S
C149   H152    1.110   .     S
C149   C824    1.512   .     S
C149   H231    1.111   .     S
O153   H154    0.992   .     S
O155   H156    0.992   .     S
O157   H158    0.991   .     S
O157   C828    1.380   1_554 S
O159   H160    0.987   .     S
C161   O194    1.289   .     A
C161   O193    1.289   .     A
C161   C177    1.413   .     S
C162   C163    1.402   .     A
C162   C188    1.429   .     A
C162   C884    1.417   .     S
C163   C167    1.407   .     A
C163   C170    1.407   .     A
C164   C168    1.402   .     A
C164   C882    1.417   1_554 S
C164   C885    1.419   1_554 S
C165   C166    1.410   .     A
C165   C884    1.419   .     S
C165   C904    1.417   .     S
C166   O227    1.382   .     S
C166   C167    1.400   .     A
C167   H190    1.080   .     S
C168   C185    1.403   .     A
C168   O233    1.379   .     S
C169   C185    1.417   .     A
C169   O203    1.379   .     S
C169   C184    1.403   .     A
C170   C186    1.408   .     A
C170   C172    1.460   .     S
C171   O239    1.386   .     S
C171   C177    1.399   .     A
C171   C413    1.396   .     S
C172   O196    1.303   .     A
C172   O195    1.300   .     A
C173   C174    1.409   .     A
C173   C205    1.519   .     S
C173   C651    1.396   1_545 S
C174   C182    1.412   .     S
C174   C175    1.401   .     A
C175   O209    1.387   .     S
C175   C656    1.397   1_545 S
C176   C211    1.519   .     S
C176   C177    1.409   .     A
C176   C415    1.397   .     S
C178   O215    1.379   .     S
C178   N192    1.358   .     A
C178   C19     1.439   1_655 S
C179   N191    1.390   .     A
C179   C217    1.504   .     S
C180   C221    1.506   .     S
C180   N191    1.375   .     A
C181   N192    1.376   .     A
C181   O225    1.373   .     S
C181   C20     1.422   1_655 S
C182   O198    1.288   .     A
C182   O197    1.290   .     A
C183   O199    1.304   .     A
C183   C185    1.467   .     S
C183   O200    1.302   .     A
C184   C885    1.417   1_554 S
C184   C949    1.512   1_554 S
C186   C187    1.401   .     A
C186   O235    1.382   .     S
C187   H189    1.083   .     S
C187   C188    1.393   .     A
C188   O957    1.380   .     S
N191   Zn201   2.034   .     S
N192   Zn202   2.034   .     S
O193   Zn201   1.982   .     S
O194   Zn202   1.991   .     S
O195   Zn201   1.981   .     S
O196   Zn202   1.944   .     S
O197   Zn201   1.991   .     S
O198   Zn202   1.982   .     S
O199   Zn201   1.944   .     S
O200   Zn202   1.981   .     S
O203   H204    0.991   .     S
C205   H207    1.103   .     S
C205   H206    1.110   .     S
C205   H208    1.111   .     S
O209   H210    0.988   .     S
C211   H212    1.110   .     S
C211   H213    1.111   .     S
C211   H214    1.104   .     S
O215   H216    0.989   .     S
C217   H219    1.110   .     S
C217   H220    1.111   .     S
C217   H218    1.087   .     S
C221   H223    1.109   .     S
C221   H224    1.109   .     S
C221   H222    1.100   .     S
O225   H226    0.979   .     S
O227   H228    0.991   .     S
C229   H230    1.110   .     S
C229   H232    1.110   .     S
C229   C904    1.512   .     S
C229   H71     1.111   1_655 S
O233   H234    0.992   .     S
O235   H236    0.992   .     S
O237   H238    0.991   .     S
O237   C908    1.380   1_554 S
O239   H240    0.987   .     S
C241   O274    1.289   .     A
C241   O273    1.289   .     A
C241   C257    1.413   .     S
C242   C243    1.402   .     A
C242   C268    1.429   .     A
C242   C964    1.417   .     S
C243   C247    1.407   .     A
C243   C250    1.407   .     A
C244   C248    1.402   .     A
C244   C962    1.417   1_554 S
C244   C965    1.419   1_554 S
C245   C246    1.410   .     A
C245   C964    1.419   .     S
C245   C984    1.417   .     S
C246   O307    1.382   .     S
C246   C247    1.400   .     A
C247   H270    1.080   .     S
C248   C265    1.403   .     A
C248   O313    1.379   .     S
C249   C265    1.417   .     A
C249   O283    1.379   .     S
C249   C264    1.403   .     A
C250   C266    1.408   .     A
C250   C252    1.460   .     S
C251   O319    1.386   .     S
C251   C257    1.399   .     A
C251   C493    1.396   .     S
C252   O276    1.303   .     A
C252   O275    1.300   .     A
C253   C254    1.409   .     A
C253   C285    1.519   .     S
C254   C262    1.412   .     S
C254   C255    1.401   .     A
C255   O289    1.387   .     S
C256   C291    1.519   .     S
C256   C257    1.409   .     A
C256   C495    1.397   .     S
C258   O295    1.379   .     S
C258   N272    1.358   .     A
C258   C339    1.439   .     S
C259   N271    1.390   .     A
C259   C297    1.504   .     S
C259   C418    1.439   1_455 S
C260   C301    1.506   .     S
C260   N271    1.375   .     A
C260   C421    1.422   1_455 S
C261   N272    1.376   .     A
C261   O305    1.373   .     S
C261   C340    1.422   .     S
C262   O278    1.288   .     A
C262   O277    1.290   .     A
C263   O279    1.304   .     A
C263   C265    1.467   .     S
C263   O280    1.302   .     A
C264   C965    1.417   1_554 S
C264   C1029   1.512   1_554 S
C266   C267    1.401   .     A
C266   O315    1.382   .     S
C267   H269    1.083   .     S
C267   C268    1.393   .     A
C268   O1037   1.380   .     S
N271   Zn281   2.034   .     S
N272   Zn282   2.034   .     S
O273   Zn281   1.982   .     S
O274   Zn282   1.991   .     S
O275   Zn281   1.981   .     S
O276   Zn282   1.944   .     S
O277   Zn281   1.991   .     S
O278   Zn282   1.982   .     S
O279   Zn281   1.944   .     S
O280   Zn282   1.981   .     S
O283   H284    0.991   .     S
C285   H287    1.103   .     S
C285   H286    1.110   .     S
C285   H288    1.111   .     S
O289   H290    0.988   .     S
C291   H292    1.110   .     S
C291   H293    1.111   .     S
C291   H294    1.104   .     S
O295   H296    0.989   .     S
C297   H299    1.110   .     S
C297   H300    1.111   .     S
C297   H298    1.087   .     S
C301   H303    1.109   .     S
C301   H304    1.109   .     S
C301   H302    1.100   .     S
O305   H306    0.979   .     S
O307   H308    0.991   .     S
C309   H310    1.110   .     S
C309   H312    1.110   .     S
C309   C984    1.512   .     S
C309   H391    1.111   .     S
H311   C469    1.111   1_455 S
O313   H314    0.992   .     S
O315   H316    0.992   .     S
O317   H318    0.991   .     S
O317   C988    1.380   1_554 S
O319   H320    0.987   .     S
C321   O354    1.289   .     A
C321   O353    1.289   .     A
C321   C337    1.413   .     S
C322   C323    1.402   .     A
C322   C348    1.429   .     A
C322   C1044   1.417   .     S
C323   C327    1.407   .     A
C323   C330    1.407   .     A
C324   C328    1.402   .     A
C324   C1042   1.417   1_554 S
C324   C1045   1.419   1_554 S
C325   C326    1.410   .     A
C325   C1044   1.419   .     S
C325   C1064   1.417   .     S
C326   O387    1.382   .     S
C326   C327    1.400   .     A
C327   H350    1.080   .     S
C328   C345    1.403   .     A
C328   O393    1.379   .     S
C329   C345    1.417   .     A
C329   O363    1.379   .     S
C329   C344    1.403   .     A
C330   C346    1.408   .     A
C330   C332    1.460   .     S
C331   O399    1.386   .     S
C331   C337    1.399   .     A
C331   C573    1.396   .     S
C332   O356    1.303   .     A
C332   O355    1.300   .     A
C333   C334    1.409   .     A
C333   C365    1.519   .     S
C334   C342    1.412   .     S
C334   C335    1.401   .     A
C335   O369    1.387   .     S
C336   C371    1.519   .     S
C336   C337    1.409   .     A
C336   C575    1.397   .     S
C338   O375    1.379   .     S
C338   N352    1.358   .     A
C338   C419    1.439   .     S
C339   N351    1.390   .     A
C339   C377    1.504   .     S
C340   C381    1.506   .     S
C340   N351    1.375   .     A
C341   N352    1.376   .     A
C341   O385    1.373   .     S
C341   C420    1.422   .     S
C342   O358    1.288   .     A
C342   O357    1.290   .     A
C343   O359    1.304   .     A
C343   C345    1.467   .     S
C343   O360    1.302   .     A
C344   C1045   1.417   1_554 S
C344   C1109   1.512   1_554 S
C346   C347    1.401   .     A
C346   O395    1.382   .     S
C347   H349    1.083   .     S
C347   C348    1.393   .     A
C348   O1117   1.380   .     S
N351   Zn361   2.034   .     S
N352   Zn362   2.034   .     S
O353   Zn361   1.982   .     S
O354   Zn362   1.991   .     S
O355   Zn361   1.981   .     S
O356   Zn362   1.944   .     S
O357   Zn361   1.991   .     S
O358   Zn362   1.982   .     S
O359   Zn361   1.944   .     S
O360   Zn362   1.981   .     S
O363   H364    0.991   .     S
C365   H367    1.103   .     S
C365   H366    1.110   .     S
C365   H368    1.111   .     S
O369   H370    0.988   .     S
C371   H372    1.110   .     S
C371   H373    1.111   .     S
C371   H374    1.104   .     S
O375   H376    0.989   .     S
C377   H379    1.110   .     S
C377   H380    1.111   .     S
C377   H378    1.087   .     S
C381   H383    1.109   .     S
C381   H384    1.109   .     S
C381   H382    1.100   .     S
O385   H386    0.979   .     S
O387   H388    0.991   .     S
C389   H390    1.110   .     S
C389   H392    1.110   .     S
C389   C1064   1.512   .     S
C389   H471    1.111   .     S
O393   H394    0.992   .     S
O395   H396    0.992   .     S
O397   H398    0.991   .     S
O397   C1068   1.380   1_554 S
O399   H400    0.987   .     S
C401   O434    1.289   .     A
C401   O433    1.289   .     A
C401   C417    1.413   .     S
C402   C403    1.402   .     A
C402   C428    1.429   .     A
C402   C1124   1.417   .     S
C403   C407    1.407   .     A
C403   C410    1.407   .     A
C404   C408    1.402   .     A
C404   C1122   1.417   1_554 S
C404   C1125   1.419   1_554 S
C405   C406    1.410   .     A
C405   C1124   1.419   .     S
C405   C1144   1.417   .     S
C406   O467    1.382   .     S
C406   C407    1.400   .     A
C407   H430    1.080   .     S
C408   C425    1.403   .     A
C408   O473    1.379   .     S
C409   C425    1.417   .     A
C409   O443    1.379   .     S
C409   C424    1.403   .     A
C410   C426    1.408   .     A
C410   C412    1.460   .     S
C411   O479    1.386   .     S
C411   C417    1.399   .     A
C411   C653    1.396   .     S
C412   O436    1.303   .     A
C412   O435    1.300   .     A
C413   C414    1.409   .     A
C413   C445    1.519   .     S
C414   C422    1.412   .     S
C414   C415    1.401   .     A
C415   O449    1.387   .     S
C416   C451    1.519   .     S
C416   C417    1.409   .     A
C416   C655    1.397   .     S
C418   O455    1.379   .     S
C418   N432    1.358   .     A
C418   C259    1.439   1_655 S
C419   N431    1.390   .     A
C419   C457    1.504   .     S
C420   C461    1.506   .     S
C420   N431    1.375   .     A
C421   N432    1.376   .     A
C421   O465    1.373   .     S
C421   C260    1.422   1_655 S
C422   O438    1.288   .     A
C422   O437    1.290   .     A
C423   O439    1.304   .     A
C423   C425    1.467   .     S
C423   O440    1.302   .     A
C424   C1125   1.417   1_554 S
C424   C1189   1.512   1_554 S
C426   C427    1.401   .     A
C426   O475    1.382   .     S
C427   H429    1.083   .     S
C427   C428    1.393   .     A
C428   O1197   1.380   .     S
N431   Zn441   2.034   .     S
N432   Zn442   2.034   .     S
O433   Zn441   1.982   .     S
O434   Zn442   1.991   .     S
O435   Zn441   1.981   .     S
O436   Zn442   1.944   .     S
O437   Zn441   1.991   .     S
O438   Zn442   1.982   .     S
O439   Zn441   1.944   .     S
O440   Zn442   1.981   .     S
O443   H444    0.991   .     S
C445   H447    1.103   .     S
C445   H446    1.110   .     S
C445   H448    1.111   .     S
O449   H450    0.988   .     S
C451   H452    1.110   .     S
C451   H453    1.111   .     S
C451   H454    1.104   .     S
O455   H456    0.989   .     S
C457   H459    1.110   .     S
C457   H460    1.111   .     S
C457   H458    1.087   .     S
C461   H463    1.109   .     S
C461   H464    1.109   .     S
C461   H462    1.100   .     S
O465   H466    0.979   .     S
O467   H468    0.991   .     S
C469   H470    1.110   .     S
C469   H472    1.110   .     S
C469   C1144   1.512   .     S
C469   H311    1.111   1_655 S
O473   H474    0.992   .     S
O475   H476    0.992   .     S
O477   H478    0.991   .     S
O477   C1148   1.380   1_554 S
O479   H480    0.987   .     S
C481   O514    1.289   .     A
C481   O513    1.289   .     A
C481   C497    1.413   .     S
C482   C483    1.402   .     A
C482   C508    1.429   .     A
C482   C1204   1.417   .     S
C483   C487    1.407   .     A
C483   C490    1.407   .     A
C484   C488    1.402   .     A
C484   C1202   1.417   1_554 S
C484   C1205   1.419   1_554 S
C485   C486    1.410   .     A
C485   C1204   1.419   .     S
C485   C1224   1.417   .     S
C486   O547    1.382   .     S
C486   C487    1.400   .     A
C487   H510    1.080   .     S
C488   C505    1.403   .     A
C488   O553    1.379   .     S
C489   C505    1.417   .     A
C489   O523    1.379   .     S
C489   C504    1.403   .     A
C490   C506    1.408   .     A
C490   C492    1.460   .     S
C491   O559    1.386   .     S
C491   C497    1.399   .     A
C491   C13     1.396   1_565 S
C492   O516    1.303   .     A
C492   O515    1.300   .     A
C493   C494    1.409   .     A
C493   C525    1.519   .     S
C494   C502    1.412   .     S
C494   C495    1.401   .     A
C495   O529    1.387   .     S
C496   C531    1.519   .     S
C496   C497    1.409   .     A
C496   C15     1.397   1_565 S
C498   O535    1.379   .     S
C498   N512    1.358   .     A
C498   C579    1.439   .     S
C499   N511    1.390   .     A
C499   C537    1.504   .     S
C499   C658    1.439   1_455 S
C500   C541    1.506   .     S
C500   N511    1.375   .     A
C500   C661    1.422   1_455 S
C501   N512    1.376   .     A
C501   O545    1.373   .     S
C501   C580    1.422   .     S
C502   O518    1.288   .     A
C502   O517    1.290   .     A
C503   O519    1.304   .     A
C503   C505    1.467   .     S
C503   O520    1.302   .     A
C504   C1205   1.417   1_554 S
C504   C1269   1.512   1_554 S
C506   C507    1.401   .     A
C506   O555    1.382   .     S
C507   H509    1.083   .     S
C507   C508    1.393   .     A
C508   O1277   1.380   .     S
N511   Zn521   2.034   .     S
N512   Zn522   2.034   .     S
O513   Zn521   1.982   .     S
O514   Zn522   1.991   .     S
O515   Zn521   1.981   .     S
O516   Zn522   1.944   .     S
O517   Zn521   1.991   .     S
O518   Zn522   1.982   .     S
O519   Zn521   1.944   .     S
O520   Zn522   1.981   .     S
O523   H524    0.991   .     S
C525   H527    1.103   .     S
C525   H526    1.110   .     S
C525   H528    1.111   .     S
O529   H530    0.988   .     S
C531   H532    1.110   .     S
C531   H533    1.111   .     S
C531   H534    1.104   .     S
O535   H536    0.989   .     S
C537   H539    1.110   .     S
C537   H540    1.111   .     S
C537   H538    1.087   .     S
C541   H543    1.109   .     S
C541   H544    1.109   .     S
C541   H542    1.100   .     S
O545   H546    0.979   .     S
O547   H548    0.991   .     S
C549   H550    1.110   .     S
C549   H552    1.110   .     S
C549   C1224   1.512   .     S
C549   H631    1.111   .     S
H551   C709    1.111   1_455 S
O553   H554    0.992   .     S
O555   H556    0.992   .     S
O557   H558    0.991   .     S
O557   C1228   1.380   1_554 S
O559   H560    0.987   .     S
C561   O594    1.289   .     A
C561   O593    1.289   .     A
C561   C577    1.413   .     S
C562   C563    1.402   .     A
C562   C588    1.429   .     A
C562   C1284   1.417   .     S
C563   C567    1.407   .     A
C563   C570    1.407   .     A
C564   C568    1.402   .     A
C564   C1282   1.417   1_554 S
C564   C1285   1.419   1_554 S
C565   C566    1.410   .     A
C565   C1284   1.419   .     S
C565   C1304   1.417   .     S
C566   O627    1.382   .     S
C566   C567    1.400   .     A
C567   H590    1.080   .     S
C568   C585    1.403   .     A
C568   O633    1.379   .     S
C569   C585    1.417   .     A
C569   O603    1.379   .     S
C569   C584    1.403   .     A
C570   C586    1.408   .     A
C570   C572    1.460   .     S
C571   O639    1.386   .     S
C571   C577    1.399   .     A
C571   C93     1.396   1_565 S
C572   O596    1.303   .     A
C572   O595    1.300   .     A
C573   C574    1.409   .     A
C573   C605    1.519   .     S
C574   C582    1.412   .     S
C574   C575    1.401   .     A
C575   O609    1.387   .     S
C576   C611    1.519   .     S
C576   C577    1.409   .     A
C576   C95     1.397   1_565 S
C578   O615    1.379   .     S
C578   N592    1.358   .     A
C578   C659    1.439   .     S
C579   N591    1.390   .     A
C579   C617    1.504   .     S
C580   C621    1.506   .     S
C580   N591    1.375   .     A
C581   N592    1.376   .     A
C581   O625    1.373   .     S
C581   C660    1.422   .     S
C582   O598    1.288   .     A
C582   O597    1.290   .     A
C583   O599    1.304   .     A
C583   C585    1.467   .     S
C583   O600    1.302   .     A
C584   C1285   1.417   1_554 S
C584   C1349   1.512   1_554 S
C586   C587    1.401   .     A
C586   O635    1.382   .     S
C587   H589    1.083   .     S
C587   C588    1.393   .     A
C588   O1357   1.380   .     S
N591   Zn601   2.034   .     S
N592   Zn602   2.034   .     S
O593   Zn601   1.982   .     S
O594   Zn602   1.991   .     S
O595   Zn601   1.981   .     S
O596   Zn602   1.944   .     S
O597   Zn601   1.991   .     S
O598   Zn602   1.982   .     S
O599   Zn601   1.944   .     S
O600   Zn602   1.981   .     S
O603   H604    0.991   .     S
C605   H607    1.103   .     S
C605   H606    1.110   .     S
C605   H608    1.111   .     S
O609   H610    0.988   .     S
C611   H612    1.110   .     S
C611   H613    1.111   .     S
C611   H614    1.104   .     S
O615   H616    0.989   .     S
C617   H619    1.110   .     S
C617   H620    1.111   .     S
C617   H618    1.087   .     S
C621   H623    1.109   .     S
C621   H624    1.109   .     S
C621   H622    1.100   .     S
O625   H626    0.979   .     S
O627   H628    0.991   .     S
C629   H630    1.110   .     S
C629   H632    1.110   .     S
C629   C1304   1.512   .     S
C629   H711    1.111   .     S
O633   H634    0.992   .     S
O635   H636    0.992   .     S
O637   H638    0.991   .     S
O637   C1308   1.380   1_554 S
O639   H640    0.987   .     S
C641   O674    1.289   .     A
C641   O673    1.289   .     A
C641   C657    1.413   .     S
C642   C643    1.402   .     A
C642   C668    1.429   .     A
C642   C1364   1.417   .     S
C643   C647    1.407   .     A
C643   C650    1.407   .     A
C644   C648    1.402   .     A
C644   C1362   1.417   1_554 S
C644   C1365   1.419   1_554 S
C645   C646    1.410   .     A
C645   C1364   1.419   .     S
C645   C1384   1.417   .     S
C646   O707    1.382   .     S
C646   C647    1.400   .     A
C647   H670    1.080   .     S
C648   C665    1.403   .     A
C648   O713    1.379   .     S
C649   C665    1.417   .     A
C649   O683    1.379   .     S
C649   C664    1.403   .     A
C650   C666    1.408   .     A
C650   C652    1.460   .     S
C651   O719    1.386   .     S
C651   C657    1.399   .     A
C651   C173    1.396   1_565 S
C652   O676    1.303   .     A
C652   O675    1.300   .     A
C653   C654    1.409   .     A
C653   C685    1.519   .     S
C654   C662    1.412   .     S
C654   C655    1.401   .     A
C655   O689    1.387   .     S
C656   C691    1.519   .     S
C656   C657    1.409   .     A
C656   C175    1.397   1_565 S
C658   O695    1.379   .     S
C658   N672    1.358   .     A
C658   C499    1.439   1_655 S
C659   N671    1.390   .     A
C659   C697    1.504   .     S
C660   C701    1.506   .     S
C660   N671    1.375   .     A
C661   N672    1.376   .     A
C661   O705    1.373   .     S
C661   C500    1.422   1_655 S
C662   O678    1.288   .     A
C662   O677    1.290   .     A
C663   O679    1.304   .     A
C663   C665    1.467   .     S
C663   O680    1.302   .     A
C664   C1365   1.417   1_554 S
C664   C1429   1.512   1_554 S
C666   C667    1.401   .     A
C666   O715    1.382   .     S
C667   H669    1.083   .     S
C667   C668    1.393   .     A
C668   O1437   1.380   .     S
N671   Zn681   2.034   .     S
N672   Zn682   2.034   .     S
O673   Zn681   1.982   .     S
O674   Zn682   1.991   .     S
O675   Zn681   1.981   .     S
O676   Zn682   1.944   .     S
O677   Zn681   1.991   .     S
O678   Zn682   1.982   .     S
O679   Zn681   1.944   .     S
O680   Zn682   1.981   .     S
O683   H684    0.991   .     S
C685   H687    1.103   .     S
C685   H686    1.110   .     S
C685   H688    1.111   .     S
O689   H690    0.988   .     S
C691   H692    1.110   .     S
C691   H693    1.111   .     S
C691   H694    1.104   .     S
O695   H696    0.989   .     S
C697   H699    1.110   .     S
C697   H700    1.111   .     S
C697   H698    1.087   .     S
C701   H703    1.109   .     S
C701   H704    1.109   .     S
C701   H702    1.100   .     S
O705   H706    0.979   .     S
O707   H708    0.991   .     S
C709   H710    1.110   .     S
C709   H712    1.110   .     S
C709   C1384   1.512   .     S
C709   H551    1.111   1_655 S
O713   H714    0.992   .     S
O715   H716    0.992   .     S
O717   H718    0.991   .     S
O717   C1388   1.380   1_554 S
O719   H720    0.987   .     S
C721   O754    1.289   .     A
C721   O753    1.289   .     A
C721   C737    1.413   .     S
C722   C723    1.402   .     A
C722   C748    1.429   .     A
C722   C4      1.417   1_556 S
C723   C727    1.407   .     A
C723   C730    1.407   .     A
C724   C728    1.402   .     A
C725   C726    1.410   .     A
C725   C4      1.419   1_556 S
C725   C24     1.417   1_556 S
C726   O787    1.382   .     S
C726   C727    1.400   .     A
C727   H750    1.080   .     S
C728   C745    1.403   .     A
C728   O793    1.379   .     S
C729   C745    1.417   .     A
C729   O763    1.379   .     S
C729   C744    1.403   .     A
C730   C746    1.408   .     A
C730   C732    1.460   .     S
C731   O799    1.386   .     S
C731   C737    1.399   .     A
C731   C973    1.396   .     S
C732   O756    1.303   .     A
C732   O755    1.300   .     A
C733   C734    1.409   .     A
C733   C765    1.519   .     S
C733   C1211   1.396   1_545 S
C734   C742    1.412   .     S
C734   C735    1.401   .     A
C735   O769    1.387   .     S
C735   C1216   1.397   1_545 S
C736   C771    1.519   .     S
C736   C737    1.409   .     A
C736   C975    1.397   .     S
C738   O775    1.379   .     S
C738   N752    1.358   .     A
C738   C819    1.439   .     S
C739   N751    1.390   .     A
C739   C777    1.504   .     S
C739   C898    1.439   1_455 S
C740   C781    1.506   .     S
C740   N751    1.375   .     A
C740   C901    1.422   1_455 S
C741   N752    1.376   .     A
C741   O785    1.373   .     S
C741   C820    1.422   .     S
C742   O758    1.288   .     A
C742   O757    1.290   .     A
C743   O759    1.304   .     A
C743   C745    1.467   .     S
C743   O760    1.302   .     A
C746   C747    1.401   .     A
C746   O795    1.382   .     S
C747   H749    1.083   .     S
C747   C748    1.393   .     A
C748   O77     1.380   1_556 S
N751   Zn761   2.034   .     S
N752   Zn762   2.034   .     S
O753   Zn761   1.982   .     S
O754   Zn762   1.991   .     S
O755   Zn761   1.981   .     S
O756   Zn762   1.944   .     S
O757   Zn761   1.991   .     S
O758   Zn762   1.982   .     S
O759   Zn761   1.944   .     S
O760   Zn762   1.981   .     S
O763   H764    0.991   .     S
C765   H767    1.103   .     S
C765   H766    1.110   .     S
C765   H768    1.111   .     S
O769   H770    0.988   .     S
C771   H772    1.110   .     S
C771   H773    1.111   .     S
C771   H774    1.104   .     S
O775   H776    0.989   .     S
C777   H779    1.110   .     S
C777   H780    1.111   .     S
C777   H778    1.087   .     S
C781   H783    1.109   .     S
C781   H784    1.109   .     S
C781   H782    1.100   .     S
O785   H786    0.979   .     S
O787   H788    0.991   .     S
C789   H790    1.110   .     S
C789   H792    1.110   .     S
C789   C24     1.512   1_556 S
C789   H871    1.111   .     S
H791   C949    1.111   1_455 S
O793   H794    0.992   .     S
O795   H796    0.992   .     S
O797   H798    0.991   .     S
O799   H800    0.987   .     S
C801   O834    1.289   .     A
C801   O833    1.289   .     A
C801   C817    1.413   .     S
C802   C803    1.402   .     A
C802   C828    1.429   .     A
C802   C84     1.417   1_556 S
C803   C807    1.407   .     A
C803   C810    1.407   .     A
C804   C808    1.402   .     A
C805   C806    1.410   .     A
C805   C84     1.419   1_556 S
C805   C104    1.417   1_556 S
C806   O867    1.382   .     S
C806   C807    1.400   .     A
C807   H830    1.080   .     S
C808   C825    1.403   .     A
C808   O873    1.379   .     S
C809   C825    1.417   .     A
C809   O843    1.379   .     S
C809   C824    1.403   .     A
C810   C826    1.408   .     A
C810   C812    1.460   .     S
C811   O879    1.386   .     S
C811   C817    1.399   .     A
C811   C1053   1.396   .     S
C812   O836    1.303   .     A
C812   O835    1.300   .     A
C813   C814    1.409   .     A
C813   C845    1.519   .     S
C813   C1291   1.396   1_545 S
C814   C822    1.412   .     S
C814   C815    1.401   .     A
C815   O849    1.387   .     S
C815   C1296   1.397   1_545 S
C816   C851    1.519   .     S
C816   C817    1.409   .     A
C816   C1055   1.397   .     S
C818   O855    1.379   .     S
C818   N832    1.358   .     A
C818   C899    1.439   .     S
C819   N831    1.390   .     A
C819   C857    1.504   .     S
C820   C861    1.506   .     S
C820   N831    1.375   .     A
C821   N832    1.376   .     A
C821   O865    1.373   .     S
C821   C900    1.422   .     S
C822   O838    1.288   .     A
C822   O837    1.290   .     A
C823   O839    1.304   .     A
C823   C825    1.467   .     S
C823   O840    1.302   .     A
C826   C827    1.401   .     A
C826   O875    1.382   .     S
C827   H829    1.083   .     S
C827   C828    1.393   .     A
C828   O157    1.380   1_556 S
N831   Zn841   2.034   .     S
N832   Zn842   2.034   .     S
O833   Zn841   1.982   .     S
O834   Zn842   1.991   .     S
O835   Zn841   1.981   .     S
O836   Zn842   1.944   .     S
O837   Zn841   1.991   .     S
O838   Zn842   1.982   .     S
O839   Zn841   1.944   .     S
O840   Zn842   1.981   .     S
O843   H844    0.991   .     S
C845   H847    1.103   .     S
C845   H846    1.110   .     S
C845   H848    1.111   .     S
O849   H850    0.988   .     S
C851   H852    1.110   .     S
C851   H853    1.111   .     S
C851   H854    1.104   .     S
O855   H856    0.989   .     S
C857   H859    1.110   .     S
C857   H860    1.111   .     S
C857   H858    1.087   .     S
C861   H863    1.109   .     S
C861   H864    1.109   .     S
C861   H862    1.100   .     S
O865   H866    0.979   .     S
O867   H868    0.991   .     S
C869   H870    1.110   .     S
C869   H872    1.110   .     S
C869   C104    1.512   1_556 S
C869   H951    1.111   .     S
O873   H874    0.992   .     S
O875   H876    0.992   .     S
O877   H878    0.991   .     S
O879   H880    0.987   .     S
C881   O914    1.289   .     A
C881   O913    1.289   .     A
C881   C897    1.413   .     S
C882   C883    1.402   .     A
C882   C908    1.429   .     A
C882   C164    1.417   1_556 S
C883   C887    1.407   .     A
C883   C890    1.407   .     A
C884   C888    1.402   .     A
C885   C886    1.410   .     A
C885   C164    1.419   1_556 S
C885   C184    1.417   1_556 S
C886   O947    1.382   .     S
C886   C887    1.400   .     A
C887   H910    1.080   .     S
C888   C905    1.403   .     A
C888   O953    1.379   .     S
C889   C905    1.417   .     A
C889   O923    1.379   .     S
C889   C904    1.403   .     A
C890   C906    1.408   .     A
C890   C892    1.460   .     S
C891   O959    1.386   .     S
C891   C897    1.399   .     A
C891   C1133   1.396   .     S
C892   O916    1.303   .     A
C892   O915    1.300   .     A
C893   C894    1.409   .     A
C893   C925    1.519   .     S
C893   C1371   1.396   1_545 S
C894   C902    1.412   .     S
C894   C895    1.401   .     A
C895   O929    1.387   .     S
C895   C1376   1.397   1_545 S
C896   C931    1.519   .     S
C896   C897    1.409   .     A
C896   C1135   1.397   .     S
C898   O935    1.379   .     S
C898   N912    1.358   .     A
C898   C739    1.439   1_655 S
C899   N911    1.390   .     A
C899   C937    1.504   .     S
C900   C941    1.506   .     S
C900   N911    1.375   .     A
C901   N912    1.376   .     A
C901   O945    1.373   .     S
C901   C740    1.422   1_655 S
C902   O918    1.288   .     A
C902   O917    1.290   .     A
C903   O919    1.304   .     A
C903   C905    1.467   .     S
C903   O920    1.302   .     A
C906   C907    1.401   .     A
C906   O955    1.382   .     S
C907   H909    1.083   .     S
C907   C908    1.393   .     A
C908   O237    1.380   1_556 S
N911   Zn921   2.034   .     S
N912   Zn922   2.034   .     S
O913   Zn921   1.982   .     S
O914   Zn922   1.991   .     S
O915   Zn921   1.981   .     S
O916   Zn922   1.944   .     S
O917   Zn921   1.991   .     S
O918   Zn922   1.982   .     S
O919   Zn921   1.944   .     S
O920   Zn922   1.981   .     S
O923   H924    0.991   .     S
C925   H927    1.103   .     S
C925   H926    1.110   .     S
C925   H928    1.111   .     S
O929   H930    0.988   .     S
C931   H932    1.110   .     S
C931   H933    1.111   .     S
C931   H934    1.104   .     S
O935   H936    0.989   .     S
C937   H939    1.110   .     S
C937   H940    1.111   .     S
C937   H938    1.087   .     S
C941   H943    1.109   .     S
C941   H944    1.109   .     S
C941   H942    1.100   .     S
O945   H946    0.979   .     S
O947   H948    0.991   .     S
C949   H950    1.110   .     S
C949   H952    1.110   .     S
C949   C184    1.512   1_556 S
C949   H791    1.111   1_655 S
O953   H954    0.992   .     S
O955   H956    0.992   .     S
O957   H958    0.991   .     S
O959   H960    0.987   .     S
C961   O994    1.289   .     A
C961   O993    1.289   .     A
C961   C977    1.413   .     S
C962   C963    1.402   .     A
C962   C988    1.429   .     A
C962   C244    1.417   1_556 S
C963   C967    1.407   .     A
C963   C970    1.407   .     A
C964   C968    1.402   .     A
C965   C966    1.410   .     A
C965   C244    1.419   1_556 S
C965   C264    1.417   1_556 S
C966   O1027   1.382   .     S
C966   C967    1.400   .     A
C967   H990    1.080   .     S
C968   C985    1.403   .     A
C968   O1033   1.379   .     S
C969   C985    1.417   .     A
C969   O1003   1.379   .     S
C969   C984    1.403   .     A
C970   C986    1.408   .     A
C970   C972    1.460   .     S
C971   O1039   1.386   .     S
C971   C977    1.399   .     A
C971   C1213   1.396   .     S
C972   O996    1.303   .     A
C972   O995    1.300   .     A
C973   C974    1.409   .     A
C973   C1005   1.519   .     S
C974   C982    1.412   .     S
C974   C975    1.401   .     A
C975   O1009   1.387   .     S
C976   C1011   1.519   .     S
C976   C977    1.409   .     A
C976   C1215   1.397   .     S
C978   O1015   1.379   .     S
C978   N992    1.358   .     A
C978   C1059   1.439   .     S
C979   N991    1.390   .     A
C979   C1017   1.504   .     S
C979   C1138   1.439   1_455 S
C980   C1021   1.506   .     S
C980   N991    1.375   .     A
C980   C1141   1.422   1_455 S
C981   N992    1.376   .     A
C981   O1025   1.373   .     S
C981   C1060   1.422   .     S
C982   O998    1.288   .     A
C982   O997    1.290   .     A
C983   O999    1.304   .     A
C983   C985    1.467   .     S
C983   O1000   1.302   .     A
C986   C987    1.401   .     A
C986   O1035   1.382   .     S
C987   H989    1.083   .     S
C987   C988    1.393   .     A
C988   O317    1.380   1_556 S
N991   Zn1001  2.034   .     S
N992   Zn1002  2.034   .     S
O993   Zn1001  1.982   .     S
O994   Zn1002  1.991   .     S
O995   Zn1001  1.981   .     S
O996   Zn1002  1.944   .     S
O997   Zn1001  1.991   .     S
O998   Zn1002  1.982   .     S
O999   Zn1001  1.944   .     S
O1000  Zn1002  1.981   .     S
O1003  H1004   0.991   .     S
C1005  H1007   1.103   .     S
C1005  H1006   1.110   .     S
C1005  H1008   1.111   .     S
O1009  H1010   0.988   .     S
C1011  H1012   1.110   .     S
C1011  H1013   1.111   .     S
C1011  H1014   1.104   .     S
O1015  H1016   0.989   .     S
C1017  H1019   1.110   .     S
C1017  H1020   1.111   .     S
C1017  H1018   1.087   .     S
C1021  H1023   1.109   .     S
C1021  H1024   1.109   .     S
C1021  H1022   1.100   .     S
O1025  H1026   0.979   .     S
O1027  H1028   0.991   .     S
C1029  H1030   1.110   .     S
C1029  H1032   1.110   .     S
C1029  C264    1.512   1_556 S
C1029  H1111   1.111   .     S
H1031  C1189   1.111   1_455 S
O1033  H1034   0.992   .     S
O1035  H1036   0.992   .     S
O1037  H1038   0.991   .     S
O1039  H1040   0.987   .     S
C1041  O1074   1.289   .     A
C1041  O1073   1.289   .     A
C1041  C1057   1.413   .     S
C1042  C1043   1.402   .     A
C1042  C1068   1.429   .     A
C1042  C324    1.417   1_556 S
C1043  C1047   1.407   .     A
C1043  C1050   1.407   .     A
C1044  C1048   1.402   .     A
C1045  C1046   1.410   .     A
C1045  C324    1.419   1_556 S
C1045  C344    1.417   1_556 S
C1046  O1107   1.382   .     S
C1046  C1047   1.400   .     A
C1047  H1070   1.080   .     S
C1048  C1065   1.403   .     A
C1048  O1113   1.379   .     S
C1049  C1065   1.417   .     A
C1049  O1083   1.379   .     S
C1049  C1064   1.403   .     A
C1050  C1066   1.408   .     A
C1050  C1052   1.460   .     S
C1051  O1119   1.386   .     S
C1051  C1057   1.399   .     A
C1051  C1293   1.396   .     S
C1052  O1076   1.303   .     A
C1052  O1075   1.300   .     A
C1053  C1054   1.409   .     A
C1053  C1085   1.519   .     S
C1054  C1062   1.412   .     S
C1054  C1055   1.401   .     A
C1055  O1089   1.387   .     S
C1056  C1091   1.519   .     S
C1056  C1057   1.409   .     A
C1056  C1295   1.397   .     S
C1058  O1095   1.379   .     S
C1058  N1072   1.358   .     A
C1058  C1139   1.439   .     S
C1059  N1071   1.390   .     A
C1059  C1097   1.504   .     S
C1060  C1101   1.506   .     S
C1060  N1071   1.375   .     A
C1061  N1072   1.376   .     A
C1061  O1105   1.373   .     S
C1061  C1140   1.422   .     S
C1062  O1078   1.288   .     A
C1062  O1077   1.290   .     A
C1063  O1079   1.304   .     A
C1063  C1065   1.467   .     S
C1063  O1080   1.302   .     A
C1066  C1067   1.401   .     A
C1066  O1115   1.382   .     S
C1067  H1069   1.083   .     S
C1067  C1068   1.393   .     A
C1068  O397    1.380   1_556 S
N1071  Zn1081  2.034   .     S
N1072  Zn1082  2.034   .     S
O1073  Zn1081  1.982   .     S
O1074  Zn1082  1.991   .     S
O1075  Zn1081  1.981   .     S
O1076  Zn1082  1.944   .     S
O1077  Zn1081  1.991   .     S
O1078  Zn1082  1.982   .     S
O1079  Zn1081  1.944   .     S
O1080  Zn1082  1.981   .     S
O1083  H1084   0.991   .     S
C1085  H1087   1.103   .     S
C1085  H1086   1.110   .     S
C1085  H1088   1.111   .     S
O1089  H1090   0.988   .     S
C1091  H1092   1.110   .     S
C1091  H1093   1.111   .     S
C1091  H1094   1.104   .     S
O1095  H1096   0.989   .     S
C1097  H1099   1.110   .     S
C1097  H1100   1.111   .     S
C1097  H1098   1.087   .     S
C1101  H1103   1.109   .     S
C1101  H1104   1.109   .     S
C1101  H1102   1.100   .     S
O1105  H1106   0.979   .     S
O1107  H1108   0.991   .     S
C1109  H1110   1.110   .     S
C1109  H1112   1.110   .     S
C1109  C344    1.512   1_556 S
C1109  H1191   1.111   .     S
O1113  H1114   0.992   .     S
O1115  H1116   0.992   .     S
O1117  H1118   0.991   .     S
O1119  H1120   0.987   .     S
C1121  O1154   1.289   .     A
C1121  O1153   1.289   .     A
C1121  C1137   1.413   .     S
C1122  C1123   1.402   .     A
C1122  C1148   1.429   .     A
C1122  C404    1.417   1_556 S
C1123  C1127   1.407   .     A
C1123  C1130   1.407   .     A
C1124  C1128   1.402   .     A
C1125  C1126   1.410   .     A
C1125  C404    1.419   1_556 S
C1125  C424    1.417   1_556 S
C1126  O1187   1.382   .     S
C1126  C1127   1.400   .     A
C1127  H1150   1.080   .     S
C1128  C1145   1.403   .     A
C1128  O1193   1.379   .     S
C1129  C1145   1.417   .     A
C1129  O1163   1.379   .     S
C1129  C1144   1.403   .     A
C1130  C1146   1.408   .     A
C1130  C1132   1.460   .     S
C1131  O1199   1.386   .     S
C1131  C1137   1.399   .     A
C1131  C1373   1.396   .     S
C1132  O1156   1.303   .     A
C1132  O1155   1.300   .     A
C1133  C1134   1.409   .     A
C1133  C1165   1.519   .     S
C1134  C1142   1.412   .     S
C1134  C1135   1.401   .     A
C1135  O1169   1.387   .     S
C1136  C1171   1.519   .     S
C1136  C1137   1.409   .     A
C1136  C1375   1.397   .     S
C1138  O1175   1.379   .     S
C1138  N1152   1.358   .     A
C1138  C979    1.439   1_655 S
C1139  N1151   1.390   .     A
C1139  C1177   1.504   .     S
C1140  C1181   1.506   .     S
C1140  N1151   1.375   .     A
C1141  N1152   1.376   .     A
C1141  O1185   1.373   .     S
C1141  C980    1.422   1_655 S
C1142  O1158   1.288   .     A
C1142  O1157   1.290   .     A
C1143  O1159   1.304   .     A
C1143  C1145   1.467   .     S
C1143  O1160   1.302   .     A
C1146  C1147   1.401   .     A
C1146  O1195   1.382   .     S
C1147  H1149   1.083   .     S
C1147  C1148   1.393   .     A
C1148  O477    1.380   1_556 S
N1151  Zn1161  2.034   .     S
N1152  Zn1162  2.034   .     S
O1153  Zn1161  1.982   .     S
O1154  Zn1162  1.991   .     S
O1155  Zn1161  1.981   .     S
O1156  Zn1162  1.944   .     S
O1157  Zn1161  1.991   .     S
O1158  Zn1162  1.982   .     S
O1159  Zn1161  1.944   .     S
O1160  Zn1162  1.981   .     S
O1163  H1164   0.991   .     S
C1165  H1167   1.103   .     S
C1165  H1166   1.110   .     S
C1165  H1168   1.111   .     S
O1169  H1170   0.988   .     S
C1171  H1172   1.110   .     S
C1171  H1173   1.111   .     S
C1171  H1174   1.104   .     S
O1175  H1176   0.989   .     S
C1177  H1179   1.110   .     S
C1177  H1180   1.111   .     S
C1177  H1178   1.087   .     S
C1181  H1183   1.109   .     S
C1181  H1184   1.109   .     S
C1181  H1182   1.100   .     S
O1185  H1186   0.979   .     S
O1187  H1188   0.991   .     S
C1189  H1190   1.110   .     S
C1189  H1192   1.110   .     S
C1189  C424    1.512   1_556 S
C1189  H1031   1.111   1_655 S
O1193  H1194   0.992   .     S
O1195  H1196   0.992   .     S
O1197  H1198   0.991   .     S
O1199  H1200   0.987   .     S
C1201  O1234   1.289   .     A
C1201  O1233   1.289   .     A
C1201  C1217   1.413   .     S
C1202  C1203   1.402   .     A
C1202  C1228   1.429   .     A
C1202  C484    1.417   1_556 S
C1203  C1207   1.407   .     A
C1203  C1210   1.407   .     A
C1204  C1208   1.402   .     A
C1205  C1206   1.410   .     A
C1205  C484    1.419   1_556 S
C1205  C504    1.417   1_556 S
C1206  O1267   1.382   .     S
C1206  C1207   1.400   .     A
C1207  H1230   1.080   .     S
C1208  C1225   1.403   .     A
C1208  O1273   1.379   .     S
C1209  C1225   1.417   .     A
C1209  O1243   1.379   .     S
C1209  C1224   1.403   .     A
C1210  C1226   1.408   .     A
C1210  C1212   1.460   .     S
C1211  O1279   1.386   .     S
C1211  C1217   1.399   .     A
C1211  C733    1.396   1_565 S
C1212  O1236   1.303   .     A
C1212  O1235   1.300   .     A
C1213  C1214   1.409   .     A
C1213  C1245   1.519   .     S
C1214  C1222   1.412   .     S
C1214  C1215   1.401   .     A
C1215  O1249   1.387   .     S
C1216  C1251   1.519   .     S
C1216  C1217   1.409   .     A
C1216  C735    1.397   1_565 S
C1218  O1255   1.379   .     S
C1218  N1232   1.358   .     A
C1218  C1299   1.439   .     S
C1219  N1231   1.390   .     A
C1219  C1257   1.504   .     S
C1219  C1378   1.439   1_455 S
C1220  C1261   1.506   .     S
C1220  N1231   1.375   .     A
C1220  C1381   1.422   1_455 S
C1221  N1232   1.376   .     A
C1221  O1265   1.373   .     S
C1221  C1300   1.422   .     S
C1222  O1238   1.288   .     A
C1222  O1237   1.290   .     A
C1223  O1239   1.304   .     A
C1223  C1225   1.467   .     S
C1223  O1240   1.302   .     A
C1226  C1227   1.401   .     A
C1226  O1275   1.382   .     S
C1227  H1229   1.083   .     S
C1227  C1228   1.393   .     A
C1228  O557    1.380   1_556 S
N1231  Zn1241  2.034   .     S
N1232  Zn1242  2.034   .     S
O1233  Zn1241  1.982   .     S
O1234  Zn1242  1.991   .     S
O1235  Zn1241  1.981   .     S
O1236  Zn1242  1.944   .     S
O1237  Zn1241  1.991   .     S
O1238  Zn1242  1.982   .     S
O1239  Zn1241  1.944   .     S
O1240  Zn1242  1.981   .     S
O1243  H1244   0.991   .     S
C1245  H1247   1.103   .     S
C1245  H1246   1.110   .     S
C1245  H1248   1.111   .     S
O1249  H1250   0.988   .     S
C1251  H1252   1.110   .     S
C1251  H1253   1.111   .     S
C1251  H1254   1.104   .     S
O1255  H1256   0.989   .     S
C1257  H1259   1.110   .     S
C1257  H1260   1.111   .     S
C1257  H1258   1.087   .     S
C1261  H1263   1.109   .     S
C1261  H1264   1.109   .     S
C1261  H1262   1.100   .     S
O1265  H1266   0.979   .     S
O1267  H1268   0.991   .     S
C1269  H1270   1.110   .     S
C1269  H1272   1.110   .     S
C1269  C504    1.512   1_556 S
C1269  H1351   1.111   .     S
H1271  C1429   1.111   1_455 S
O1273  H1274   0.992   .     S
O1275  H1276   0.992   .     S
O1277  H1278   0.991   .     S
O1279  H1280   0.987   .     S
C1281  O1314   1.289   .     A
C1281  O1313   1.289   .     A
C1281  C1297   1.413   .     S
C1282  C1283   1.402   .     A
C1282  C1308   1.429   .     A
C1282  C564    1.417   1_556 S
C1283  C1287   1.407   .     A
C1283  C1290   1.407   .     A
C1284  C1288   1.402   .     A
C1285  C1286   1.410   .     A
C1285  C564    1.419   1_556 S
C1285  C584    1.417   1_556 S
C1286  O1347   1.382   .     S
C1286  C1287   1.400   .     A
C1287  H1310   1.080   .     S
C1288  C1305   1.403   .     A
C1288  O1353   1.379   .     S
C1289  C1305   1.417   .     A
C1289  O1323   1.379   .     S
C1289  C1304   1.403   .     A
C1290  C1306   1.408   .     A
C1290  C1292   1.460   .     S
C1291  O1359   1.386   .     S
C1291  C1297   1.399   .     A
C1291  C813    1.396   1_565 S
C1292  O1316   1.303   .     A
C1292  O1315   1.300   .     A
C1293  C1294   1.409   .     A
C1293  C1325   1.519   .     S
C1294  C1302   1.412   .     S
C1294  C1295   1.401   .     A
C1295  O1329   1.387   .     S
C1296  C1331   1.519   .     S
C1296  C1297   1.409   .     A
C1296  C815    1.397   1_565 S
C1298  O1335   1.379   .     S
C1298  N1312   1.358   .     A
C1298  C1379   1.439   .     S
C1299  N1311   1.390   .     A
C1299  C1337   1.504   .     S
C1300  C1341   1.506   .     S
C1300  N1311   1.375   .     A
C1301  N1312   1.376   .     A
C1301  O1345   1.373   .     S
C1301  C1380   1.422   .     S
C1302  O1318   1.288   .     A
C1302  O1317   1.290   .     A
C1303  O1319   1.304   .     A
C1303  C1305   1.467   .     S
C1303  O1320   1.302   .     A
C1306  C1307   1.401   .     A
C1306  O1355   1.382   .     S
C1307  H1309   1.083   .     S
C1307  C1308   1.393   .     A
C1308  O637    1.380   1_556 S
N1311  Zn1321  2.034   .     S
N1312  Zn1322  2.034   .     S
O1313  Zn1321  1.982   .     S
O1314  Zn1322  1.991   .     S
O1315  Zn1321  1.981   .     S
O1316  Zn1322  1.944   .     S
O1317  Zn1321  1.991   .     S
O1318  Zn1322  1.982   .     S
O1319  Zn1321  1.944   .     S
O1320  Zn1322  1.981   .     S
O1323  H1324   0.991   .     S
C1325  H1327   1.103   .     S
C1325  H1326   1.110   .     S
C1325  H1328   1.111   .     S
O1329  H1330   0.988   .     S
C1331  H1332   1.110   .     S
C1331  H1333   1.111   .     S
C1331  H1334   1.104   .     S
O1335  H1336   0.989   .     S
C1337  H1339   1.110   .     S
C1337  H1340   1.111   .     S
C1337  H1338   1.087   .     S
C1341  H1343   1.109   .     S
C1341  H1344   1.109   .     S
C1341  H1342   1.100   .     S
O1345  H1346   0.979   .     S
O1347  H1348   0.991   .     S
C1349  H1350   1.110   .     S
C1349  H1352   1.110   .     S
C1349  C584    1.512   1_556 S
C1349  H1431   1.111   .     S
O1353  H1354   0.992   .     S
O1355  H1356   0.992   .     S
O1357  H1358   0.991   .     S
O1359  H1360   0.987   .     S
C1361  O1394   1.289   .     A
C1361  O1393   1.289   .     A
C1361  C1377   1.413   .     S
C1362  C1363   1.402   .     A
C1362  C1388   1.429   .     A
C1362  C644    1.417   1_556 S
C1363  C1367   1.407   .     A
C1363  C1370   1.407   .     A
C1364  C1368   1.402   .     A
C1365  C1366   1.410   .     A
C1365  C644    1.419   1_556 S
C1365  C664    1.417   1_556 S
C1366  O1427   1.382   .     S
C1366  C1367   1.400   .     A
C1367  H1390   1.080   .     S
C1368  C1385   1.403   .     A
C1368  O1433   1.379   .     S
C1369  C1385   1.417   .     A
C1369  O1403   1.379   .     S
C1369  C1384   1.403   .     A
C1370  C1386   1.408   .     A
C1370  C1372   1.460   .     S
C1371  O1439   1.386   .     S
C1371  C1377   1.399   .     A
C1371  C893    1.396   1_565 S
C1372  O1396   1.303   .     A
C1372  O1395   1.300   .     A
C1373  C1374   1.409   .     A
C1373  C1405   1.519   .     S
C1374  C1382   1.412   .     S
C1374  C1375   1.401   .     A
C1375  O1409   1.387   .     S
C1376  C1411   1.519   .     S
C1376  C1377   1.409   .     A
C1376  C895    1.397   1_565 S
C1378  O1415   1.379   .     S
C1378  N1392   1.358   .     A
C1378  C1219   1.439   1_655 S
C1379  N1391   1.390   .     A
C1379  C1417   1.504   .     S
C1380  C1421   1.506   .     S
C1380  N1391   1.375   .     A
C1381  N1392   1.376   .     A
C1381  O1425   1.373   .     S
C1381  C1220   1.422   1_655 S
C1382  O1398   1.288   .     A
C1382  O1397   1.290   .     A
C1383  O1399   1.304   .     A
C1383  C1385   1.467   .     S
C1383  O1400   1.302   .     A
C1386  C1387   1.401   .     A
C1386  O1435   1.382   .     S
C1387  H1389   1.083   .     S
C1387  C1388   1.393   .     A
C1388  O717    1.380   1_556 S
N1391  Zn1401  2.034   .     S
N1392  Zn1402  2.034   .     S
O1393  Zn1401  1.982   .     S
O1394  Zn1402  1.991   .     S
O1395  Zn1401  1.981   .     S
O1396  Zn1402  1.944   .     S
O1397  Zn1401  1.991   .     S
O1398  Zn1402  1.982   .     S
O1399  Zn1401  1.944   .     S
O1400  Zn1402  1.981   .     S
O1403  H1404   0.991   .     S
C1405  H1407   1.103   .     S
C1405  H1406   1.110   .     S
C1405  H1408   1.111   .     S
O1409  H1410   0.988   .     S
C1411  H1412   1.110   .     S
C1411  H1413   1.111   .     S
C1411  H1414   1.104   .     S
O1415  H1416   0.989   .     S
C1417  H1419   1.110   .     S
C1417  H1420   1.111   .     S
C1417  H1418   1.087   .     S
C1421  H1423   1.109   .     S
C1421  H1424   1.109   .     S
C1421  H1422   1.100   .     S
O1425  H1426   0.979   .     S
O1427  H1428   0.991   .     S
C1429  H1430   1.110   .     S
C1429  H1432   1.110   .     S
C1429  C664    1.512   1_556 S
C1429  H1271   1.111   1_655 S
O1433  H1434   0.992   .     S
O1435  H1436   0.992   .     S
O1437  H1438   0.991   .     S
O1439  H1440   0.987   .     S
