data_str_m3_o1_o10_pcu_sym.14
_audit_creation_date              2020-01-03
_audit_creation_method            'Materials Studio'
_symmetry_space_group_name_H-M    'P1'
_symmetry_Int_Tables_number       1
_symmetry_cell_setting            triclinic
loop_
_symmetry_equiv_pos_as_xyz
  x,y,z
_cell_length_a                    25.9965
_cell_length_b                    31.9466
_cell_length_c                    29.8798
_cell_angle_alpha                 90.3963
_cell_angle_beta                  98.7352
_cell_angle_gamma                 92.4832
loop_
_atom_site_label
_atom_site_type_symbol
_atom_site_fract_x
_atom_site_fract_y
_atom_site_fract_z
_atom_site_U_iso_or_equiv
_atom_site_adp_type
_atom_site_occupancy
C1     C     0.16667   0.08697   0.16661   0.00000  Uiso   1.00
C2     C     0.21310   0.02352   0.18492   0.00000  Uiso   1.00
C3     C     0.16652   0.29065   0.16648   0.00000  Uiso   1.00
C4     C     0.16683   0.04268   0.16685   0.00000  Uiso   1.00
C5     C     0.19854   0.19438   0.02848   0.00000  Uiso   1.00
C6     C     0.13478   0.13897   0.30485   0.00000  Uiso   1.00
C7     C     0.20040   0.19303   0.31409   0.00000  Uiso   1.00
C8     C     0.13294   0.14030   0.01924   0.00000  Uiso   1.00
C9     C     0.32252   0.13608   0.10811   0.00000  Uiso   1.00
C10    C     0.01081   0.19724   0.22522   0.00000  Uiso   1.00
C11    C     0.07131   0.04225   0.13630   0.00000  Uiso   1.00
C12    C     0.16666   0.24636   0.16672   0.00000  Uiso   1.00
C13    C     0.26203   0.29108   0.19702   0.00000  Uiso   1.00
C14    C     0.07219   0.28359   0.13079   0.00000  Uiso   1.00
C15    C     0.26116   0.04975   0.20254   0.00000  Uiso   1.00
C16    C     0.22743   0.22842   0.05689   0.00000  Uiso   1.00
C17    C     0.10588   0.10495   0.27643   0.00000  Uiso   1.00
C18    C     0.24208   0.21756   0.29570   0.00000  Uiso   1.00
C19    C     0.09127   0.11575   0.03763   0.00000  Uiso   1.00
C20    C     0.06733   0.16671   0.15487   0.00000  Uiso   1.00
C21    C     0.26600   0.16662   0.17846   0.00000  Uiso   1.00
C22    C     0.01262   0.16102   0.14932   0.00000  Uiso   1.00
C23    C     0.32072   0.17230   0.18402   0.00000  Uiso   1.00
C24    C     0.12031   0.02010   0.14952   0.00000  Uiso   1.00
C25    C     0.21303   0.31323   0.18381   0.00000  Uiso   1.00
C26    C     0.12025   0.30981   0.14841   0.00000  Uiso   1.00
H27    H     0.33167   0.14511   0.07522   0.00000  Uiso   1.00
H28    H     0.09686   0.10446   0.07160   0.00000  Uiso   1.00
H29    H     0.00170   0.18819   0.25812   0.00000  Uiso   1.00
H30    H     0.04937   0.03839   0.10256   0.00000  Uiso   1.00
H31    H     0.28399   0.29495   0.23076   0.00000  Uiso   1.00
H32    H     0.06656   0.25248   0.14377   0.00000  Uiso   1.00
H33    H     0.26676   0.08087   0.18958   0.00000  Uiso   1.00
H34    H     0.25043   0.22212   0.08898   0.00000  Uiso   1.00
H35    H     0.08270   0.11128   0.24444   0.00000  Uiso   1.00
H36    H     0.23647   0.22891   0.26176   0.00000  Uiso   1.00
N37    N     0.16665   0.16666   0.28573   0.00000  Uiso   1.00
N38    N     0.16668   0.16668   0.04760   0.00000  Uiso   1.00
O39    O     0.16666   0.10558   0.20487   0.00000  Uiso   1.00
O40    O     0.03826   0.22882   0.22235   0.00000  Uiso   1.00
O41    O     0.05507   0.06489   0.16358   0.00000  Uiso   1.00
O42    O     0.27824   0.26841   0.16974   0.00000  Uiso   1.00
O43    O     0.03928   0.29561   0.10068   0.00000  Uiso   1.00
O44    O     0.29410   0.03771   0.23261   0.00000  Uiso   1.00
O45    O     0.22533   0.26469   0.04435   0.00000  Uiso   1.00
O46    O     0.10815   0.06865   0.28885   0.00000  Uiso   1.00
O47    O     0.28478   0.22447   0.31848   0.00000  Uiso   1.00
O48    O     0.04859   0.10877   0.01483   0.00000  Uiso   1.00
O49    O     0.16667   0.22775   0.12846   0.00000  Uiso   1.00
O50    O     0.16666   0.10559   0.12843   0.00000  Uiso   1.00
O51    O     0.16667   0.22774   0.20490   0.00000  Uiso   1.00
O52    O     0.09058   0.16666   0.19595   0.00000  Uiso   1.00
O53    O     0.24275   0.16667   0.13739   0.00000  Uiso   1.00
O54    O     0.09058   0.16667   0.11950   0.00000  Uiso   1.00
O55    O     0.24275   0.16666   0.21383   0.00000  Uiso   1.00
O56    O     0.29505   0.10452   0.11098   0.00000  Uiso   1.00
Zn57   Zn    0.16667   0.16666   0.21771   0.00000  Uiso   1.00
Zn58   Zn    0.16667   0.16667   0.11563   0.00000  Uiso   1.00
C59    C     0.50000   0.08697   0.16661   0.00000  Uiso   1.00
C60    C     0.54643   0.02352   0.18492   0.00000  Uiso   1.00
C61    C     0.49985   0.29065   0.16648   0.00000  Uiso   1.00
C62    C     0.50016   0.04268   0.16685   0.00000  Uiso   1.00
C63    C     0.53187   0.19438   0.02848   0.00000  Uiso   1.00
C64    C     0.46812   0.13897   0.30485   0.00000  Uiso   1.00
C65    C     0.53373   0.19303   0.31409   0.00000  Uiso   1.00
C66    C     0.46627   0.14030   0.01924   0.00000  Uiso   1.00
C67    C     0.65585   0.13608   0.10811   0.00000  Uiso   1.00
C68    C     0.34415   0.19724   0.22522   0.00000  Uiso   1.00
C69    C     0.40464   0.04225   0.13630   0.00000  Uiso   1.00
C70    C     0.50000   0.24636   0.16672   0.00000  Uiso   1.00
C71    C     0.59537   0.29108   0.19702   0.00000  Uiso   1.00
C72    C     0.40552   0.28359   0.13079   0.00000  Uiso   1.00
C73    C     0.59449   0.04975   0.20254   0.00000  Uiso   1.00
C74    C     0.56076   0.22842   0.05689   0.00000  Uiso   1.00
C75    C     0.43921   0.10495   0.27643   0.00000  Uiso   1.00
C76    C     0.57541   0.21756   0.29570   0.00000  Uiso   1.00
C77    C     0.42460   0.11575   0.03763   0.00000  Uiso   1.00
C78    C     0.40067   0.16671   0.15487   0.00000  Uiso   1.00
C79    C     0.59933   0.16662   0.17846   0.00000  Uiso   1.00
C80    C     0.34595   0.16102   0.14932   0.00000  Uiso   1.00
C81    C     0.65405   0.17230   0.18402   0.00000  Uiso   1.00
C82    C     0.45365   0.02010   0.14952   0.00000  Uiso   1.00
C83    C     0.54636   0.31323   0.18381   0.00000  Uiso   1.00
C84    C     0.45358   0.30981   0.14841   0.00000  Uiso   1.00
H85    H     0.66500   0.14511   0.07522   0.00000  Uiso   1.00
H86    H     0.43019   0.10446   0.07160   0.00000  Uiso   1.00
H87    H     0.33503   0.18819   0.25812   0.00000  Uiso   1.00
H88    H     0.38270   0.03839   0.10256   0.00000  Uiso   1.00
H89    H     0.61732   0.29495   0.23076   0.00000  Uiso   1.00
H90    H     0.39989   0.25248   0.14377   0.00000  Uiso   1.00
H91    H     0.60009   0.08087   0.18958   0.00000  Uiso   1.00
H92    H     0.58376   0.22212   0.08898   0.00000  Uiso   1.00
H93    H     0.41603   0.11128   0.24444   0.00000  Uiso   1.00
H94    H     0.56980   0.22891   0.26176   0.00000  Uiso   1.00
N95    N     0.49999   0.16666   0.28573   0.00000  Uiso   1.00
N96    N     0.50001   0.16668   0.04760   0.00000  Uiso   1.00
O97    O     0.50000   0.10558   0.20487   0.00000  Uiso   1.00
O98    O     0.37159   0.22882   0.22235   0.00000  Uiso   1.00
O99    O     0.38840   0.06489   0.16358   0.00000  Uiso   1.00
O100   O     0.61157   0.26841   0.16974   0.00000  Uiso   1.00
O101   O     0.37261   0.29561   0.10068   0.00000  Uiso   1.00
O102   O     0.62744   0.03771   0.23261   0.00000  Uiso   1.00
O103   O     0.55866   0.26469   0.04435   0.00000  Uiso   1.00
O104   O     0.44148   0.06865   0.28885   0.00000  Uiso   1.00
O105   O     0.61811   0.22447   0.31848   0.00000  Uiso   1.00
O106   O     0.38193   0.10877   0.01483   0.00000  Uiso   1.00
O107   O     0.50000   0.22775   0.12846   0.00000  Uiso   1.00
O108   O     0.50000   0.10559   0.12843   0.00000  Uiso   1.00
O109   O     0.50000   0.22774   0.20490   0.00000  Uiso   1.00
O110   O     0.42392   0.16666   0.19595   0.00000  Uiso   1.00
O111   O     0.57608   0.16667   0.13739   0.00000  Uiso   1.00
O112   O     0.42392   0.16667   0.11950   0.00000  Uiso   1.00
O113   O     0.57608   0.16666   0.21383   0.00000  Uiso   1.00
O114   O     0.62839   0.10452   0.11098   0.00000  Uiso   1.00
Zn115  Zn    0.50000   0.16666   0.21771   0.00000  Uiso   1.00
Zn116  Zn    0.50000   0.16667   0.11563   0.00000  Uiso   1.00
C117   C     0.83334   0.08697   0.16661   0.00000  Uiso   1.00
C118   C     0.87976   0.02352   0.18492   0.00000  Uiso   1.00
C119   C     0.83318   0.29065   0.16648   0.00000  Uiso   1.00
C120   C     0.83349   0.04268   0.16685   0.00000  Uiso   1.00
C121   C     0.86521   0.19438   0.02848   0.00000  Uiso   1.00
C122   C     0.80145   0.13897   0.30485   0.00000  Uiso   1.00
C123   C     0.86706   0.19303   0.31409   0.00000  Uiso   1.00
C124   C     0.79961   0.14030   0.01924   0.00000  Uiso   1.00
C125   C     0.98919   0.13608   0.10811   0.00000  Uiso   1.00
C126   C     0.67748   0.19724   0.22522   0.00000  Uiso   1.00
C127   C     0.73797   0.04225   0.13630   0.00000  Uiso   1.00
C128   C     0.83333   0.24636   0.16672   0.00000  Uiso   1.00
C129   C     0.92870   0.29108   0.19702   0.00000  Uiso   1.00
C130   C     0.73886   0.28359   0.13079   0.00000  Uiso   1.00
C131   C     0.92782   0.04975   0.20254   0.00000  Uiso   1.00
C132   C     0.89409   0.22842   0.05689   0.00000  Uiso   1.00
C133   C     0.77255   0.10495   0.27643   0.00000  Uiso   1.00
C134   C     0.90875   0.21756   0.29570   0.00000  Uiso   1.00
C135   C     0.75794   0.11575   0.03763   0.00000  Uiso   1.00
C136   C     0.73400   0.16671   0.15487   0.00000  Uiso   1.00
C137   C     0.93267   0.16662   0.17846   0.00000  Uiso   1.00
C138   C     0.67928   0.16102   0.14932   0.00000  Uiso   1.00
C139   C     0.98738   0.17230   0.18402   0.00000  Uiso   1.00
C140   C     0.78698   0.02010   0.14952   0.00000  Uiso   1.00
C141   C     0.87969   0.31323   0.18381   0.00000  Uiso   1.00
C142   C     0.78691   0.30981   0.14841   0.00000  Uiso   1.00
H143   H     0.99834   0.14511   0.07522   0.00000  Uiso   1.00
H144   H     0.76353   0.10446   0.07160   0.00000  Uiso   1.00
H145   H     0.66836   0.18819   0.25812   0.00000  Uiso   1.00
H146   H     0.71603   0.03839   0.10256   0.00000  Uiso   1.00
H147   H     0.95066   0.29495   0.23076   0.00000  Uiso   1.00
H148   H     0.73323   0.25248   0.14377   0.00000  Uiso   1.00
H149   H     0.93342   0.08087   0.18958   0.00000  Uiso   1.00
H150   H     0.91709   0.22212   0.08898   0.00000  Uiso   1.00
H151   H     0.74936   0.11128   0.24444   0.00000  Uiso   1.00
H152   H     0.90313   0.22891   0.26176   0.00000  Uiso   1.00
N153   N     0.83332   0.16666   0.28573   0.00000  Uiso   1.00
N154   N     0.83335   0.16668   0.04760   0.00000  Uiso   1.00
O155   O     0.83333   0.10558   0.20487   0.00000  Uiso   1.00
O156   O     0.70492   0.22882   0.22235   0.00000  Uiso   1.00
O157   O     0.72174   0.06489   0.16358   0.00000  Uiso   1.00
O158   O     0.94491   0.26841   0.16974   0.00000  Uiso   1.00
O159   O     0.70594   0.29561   0.10068   0.00000  Uiso   1.00
O160   O     0.96077   0.03771   0.23261   0.00000  Uiso   1.00
O161   O     0.89199   0.26469   0.04435   0.00000  Uiso   1.00
O162   O     0.77481   0.06865   0.28885   0.00000  Uiso   1.00
O163   O     0.95145   0.22447   0.31848   0.00000  Uiso   1.00
O164   O     0.71526   0.10877   0.01483   0.00000  Uiso   1.00
O165   O     0.83334   0.22775   0.12846   0.00000  Uiso   1.00
O166   O     0.83333   0.10559   0.12843   0.00000  Uiso   1.00
O167   O     0.83334   0.22774   0.20490   0.00000  Uiso   1.00
O168   O     0.75725   0.16666   0.19595   0.00000  Uiso   1.00
O169   O     0.90942   0.16667   0.13739   0.00000  Uiso   1.00
O170   O     0.75725   0.16667   0.11950   0.00000  Uiso   1.00
O171   O     0.90942   0.16666   0.21383   0.00000  Uiso   1.00
O172   O     0.96172   0.10452   0.11098   0.00000  Uiso   1.00
Zn173  Zn    0.83333   0.16666   0.21771   0.00000  Uiso   1.00
Zn174  Zn    0.83333   0.16667   0.11563   0.00000  Uiso   1.00
C175   C     0.16667   0.42030   0.16661   0.00000  Uiso   1.00
C176   C     0.21310   0.35685   0.18492   0.00000  Uiso   1.00
C177   C     0.16652   0.62398   0.16648   0.00000  Uiso   1.00
C178   C     0.16683   0.37602   0.16685   0.00000  Uiso   1.00
C179   C     0.19854   0.52771   0.02848   0.00000  Uiso   1.00
C180   C     0.13478   0.47230   0.30485   0.00000  Uiso   1.00
C181   C     0.20040   0.52636   0.31409   0.00000  Uiso   1.00
C182   C     0.13294   0.47364   0.01924   0.00000  Uiso   1.00
C183   C     0.32252   0.46942   0.10811   0.00000  Uiso   1.00
C184   C     0.01081   0.53057   0.22522   0.00000  Uiso   1.00
C185   C     0.07131   0.37558   0.13630   0.00000  Uiso   1.00
C186   C     0.16666   0.57970   0.16672   0.00000  Uiso   1.00
C187   C     0.26203   0.62441   0.19702   0.00000  Uiso   1.00
C188   C     0.07219   0.61692   0.13079   0.00000  Uiso   1.00
C189   C     0.26116   0.38308   0.20254   0.00000  Uiso   1.00
C190   C     0.22743   0.56175   0.05689   0.00000  Uiso   1.00
C191   C     0.10588   0.43828   0.27643   0.00000  Uiso   1.00
C192   C     0.24208   0.55089   0.29570   0.00000  Uiso   1.00
C193   C     0.09127   0.44909   0.03763   0.00000  Uiso   1.00
C194   C     0.06733   0.50004   0.15487   0.00000  Uiso   1.00
C195   C     0.26600   0.49995   0.17846   0.00000  Uiso   1.00
C196   C     0.01262   0.49435   0.14932   0.00000  Uiso   1.00
C197   C     0.32072   0.50564   0.18402   0.00000  Uiso   1.00
C198   C     0.12031   0.35343   0.14952   0.00000  Uiso   1.00
C199   C     0.21303   0.64657   0.18381   0.00000  Uiso   1.00
C200   C     0.12025   0.64314   0.14841   0.00000  Uiso   1.00
H201   H     0.33167   0.47844   0.07522   0.00000  Uiso   1.00
H202   H     0.09686   0.43779   0.07160   0.00000  Uiso   1.00
H203   H     0.00170   0.52152   0.25812   0.00000  Uiso   1.00
H204   H     0.04937   0.37172   0.10256   0.00000  Uiso   1.00
H205   H     0.28399   0.62828   0.23076   0.00000  Uiso   1.00
H206   H     0.06656   0.58582   0.14377   0.00000  Uiso   1.00
H207   H     0.26676   0.41420   0.18958   0.00000  Uiso   1.00
H208   H     0.25043   0.55546   0.08898   0.00000  Uiso   1.00
H209   H     0.08270   0.44462   0.24444   0.00000  Uiso   1.00
H210   H     0.23647   0.56224   0.26176   0.00000  Uiso   1.00
N211   N     0.16665   0.49999   0.28573   0.00000  Uiso   1.00
N212   N     0.16668   0.50001   0.04760   0.00000  Uiso   1.00
O213   O     0.16666   0.43892   0.20487   0.00000  Uiso   1.00
O214   O     0.03826   0.56215   0.22235   0.00000  Uiso   1.00
O215   O     0.05507   0.39822   0.16358   0.00000  Uiso   1.00
O216   O     0.27824   0.60175   0.16974   0.00000  Uiso   1.00
O217   O     0.03928   0.62894   0.10068   0.00000  Uiso   1.00
O218   O     0.29410   0.37105   0.23261   0.00000  Uiso   1.00
O219   O     0.22533   0.59802   0.04435   0.00000  Uiso   1.00
O220   O     0.10815   0.40199   0.28885   0.00000  Uiso   1.00
O221   O     0.28478   0.55780   0.31848   0.00000  Uiso   1.00
O222   O     0.04859   0.44210   0.01483   0.00000  Uiso   1.00
O223   O     0.16667   0.56108   0.12846   0.00000  Uiso   1.00
O224   O     0.16666   0.43893   0.12843   0.00000  Uiso   1.00
O225   O     0.16667   0.56107   0.20490   0.00000  Uiso   1.00
O226   O     0.09058   0.50000   0.19595   0.00000  Uiso   1.00
O227   O     0.24275   0.50000   0.13739   0.00000  Uiso   1.00
O228   O     0.09058   0.50000   0.11950   0.00000  Uiso   1.00
O229   O     0.24275   0.50000   0.21383   0.00000  Uiso   1.00
O230   O     0.29505   0.43785   0.11098   0.00000  Uiso   1.00
Zn231  Zn    0.16667   0.49999   0.21771   0.00000  Uiso   1.00
Zn232  Zn    0.16667   0.50001   0.11563   0.00000  Uiso   1.00
C233   C     0.50000   0.42030   0.16661   0.00000  Uiso   1.00
C234   C     0.54643   0.35685   0.18492   0.00000  Uiso   1.00
C235   C     0.49985   0.62398   0.16648   0.00000  Uiso   1.00
C236   C     0.50016   0.37602   0.16685   0.00000  Uiso   1.00
C237   C     0.53187   0.52771   0.02848   0.00000  Uiso   1.00
C238   C     0.46812   0.47230   0.30485   0.00000  Uiso   1.00
C239   C     0.53373   0.52636   0.31409   0.00000  Uiso   1.00
C240   C     0.46627   0.47364   0.01924   0.00000  Uiso   1.00
C241   C     0.65585   0.46942   0.10811   0.00000  Uiso   1.00
C242   C     0.34415   0.53057   0.22522   0.00000  Uiso   1.00
C243   C     0.40464   0.37558   0.13630   0.00000  Uiso   1.00
C244   C     0.50000   0.57970   0.16672   0.00000  Uiso   1.00
C245   C     0.59537   0.62441   0.19702   0.00000  Uiso   1.00
C246   C     0.40552   0.61692   0.13079   0.00000  Uiso   1.00
C247   C     0.59449   0.38308   0.20254   0.00000  Uiso   1.00
C248   C     0.56076   0.56175   0.05689   0.00000  Uiso   1.00
C249   C     0.43921   0.43828   0.27643   0.00000  Uiso   1.00
C250   C     0.57541   0.55089   0.29570   0.00000  Uiso   1.00
C251   C     0.42460   0.44909   0.03763   0.00000  Uiso   1.00
C252   C     0.40067   0.50004   0.15487   0.00000  Uiso   1.00
C253   C     0.59933   0.49995   0.17846   0.00000  Uiso   1.00
C254   C     0.34595   0.49435   0.14932   0.00000  Uiso   1.00
C255   C     0.65405   0.50564   0.18402   0.00000  Uiso   1.00
C256   C     0.45365   0.35343   0.14952   0.00000  Uiso   1.00
C257   C     0.54636   0.64657   0.18381   0.00000  Uiso   1.00
C258   C     0.45358   0.64314   0.14841   0.00000  Uiso   1.00
H259   H     0.66500   0.47844   0.07522   0.00000  Uiso   1.00
H260   H     0.43019   0.43779   0.07160   0.00000  Uiso   1.00
H261   H     0.33503   0.52152   0.25812   0.00000  Uiso   1.00
H262   H     0.38270   0.37172   0.10256   0.00000  Uiso   1.00
H263   H     0.61732   0.62828   0.23076   0.00000  Uiso   1.00
H264   H     0.39989   0.58582   0.14377   0.00000  Uiso   1.00
H265   H     0.60009   0.41420   0.18958   0.00000  Uiso   1.00
H266   H     0.58376   0.55546   0.08898   0.00000  Uiso   1.00
H267   H     0.41603   0.44462   0.24444   0.00000  Uiso   1.00
H268   H     0.56980   0.56224   0.26176   0.00000  Uiso   1.00
N269   N     0.49999   0.49999   0.28573   0.00000  Uiso   1.00
N270   N     0.50001   0.50001   0.04760   0.00000  Uiso   1.00
O271   O     0.50000   0.43892   0.20487   0.00000  Uiso   1.00
O272   O     0.37159   0.56215   0.22235   0.00000  Uiso   1.00
O273   O     0.38840   0.39822   0.16358   0.00000  Uiso   1.00
O274   O     0.61157   0.60175   0.16974   0.00000  Uiso   1.00
O275   O     0.37261   0.62894   0.10068   0.00000  Uiso   1.00
O276   O     0.62744   0.37105   0.23261   0.00000  Uiso   1.00
O277   O     0.55866   0.59802   0.04435   0.00000  Uiso   1.00
O278   O     0.44148   0.40199   0.28885   0.00000  Uiso   1.00
O279   O     0.61811   0.55780   0.31848   0.00000  Uiso   1.00
O280   O     0.38193   0.44210   0.01483   0.00000  Uiso   1.00
O281   O     0.50000   0.56108   0.12846   0.00000  Uiso   1.00
O282   O     0.50000   0.43893   0.12843   0.00000  Uiso   1.00
O283   O     0.50000   0.56107   0.20490   0.00000  Uiso   1.00
O284   O     0.42392   0.50000   0.19595   0.00000  Uiso   1.00
O285   O     0.57608   0.50000   0.13739   0.00000  Uiso   1.00
O286   O     0.42392   0.50000   0.11950   0.00000  Uiso   1.00
O287   O     0.57608   0.50000   0.21383   0.00000  Uiso   1.00
O288   O     0.62839   0.43785   0.11098   0.00000  Uiso   1.00
Zn289  Zn    0.50000   0.49999   0.21771   0.00000  Uiso   1.00
Zn290  Zn    0.50000   0.50001   0.11563   0.00000  Uiso   1.00
C291   C     0.83334   0.42030   0.16661   0.00000  Uiso   1.00
C292   C     0.87976   0.35685   0.18492   0.00000  Uiso   1.00
C293   C     0.83318   0.62398   0.16648   0.00000  Uiso   1.00
C294   C     0.83349   0.37602   0.16685   0.00000  Uiso   1.00
C295   C     0.86521   0.52771   0.02848   0.00000  Uiso   1.00
C296   C     0.80145   0.47230   0.30485   0.00000  Uiso   1.00
C297   C     0.86706   0.52636   0.31409   0.00000  Uiso   1.00
C298   C     0.79961   0.47364   0.01924   0.00000  Uiso   1.00
C299   C     0.98919   0.46942   0.10811   0.00000  Uiso   1.00
C300   C     0.67748   0.53057   0.22522   0.00000  Uiso   1.00
C301   C     0.73797   0.37558   0.13630   0.00000  Uiso   1.00
C302   C     0.83333   0.57970   0.16672   0.00000  Uiso   1.00
C303   C     0.92870   0.62441   0.19702   0.00000  Uiso   1.00
C304   C     0.73886   0.61692   0.13079   0.00000  Uiso   1.00
C305   C     0.92782   0.38308   0.20254   0.00000  Uiso   1.00
C306   C     0.89409   0.56175   0.05689   0.00000  Uiso   1.00
C307   C     0.77255   0.43828   0.27643   0.00000  Uiso   1.00
C308   C     0.90875   0.55089   0.29570   0.00000  Uiso   1.00
C309   C     0.75794   0.44909   0.03763   0.00000  Uiso   1.00
C310   C     0.73400   0.50004   0.15487   0.00000  Uiso   1.00
C311   C     0.93267   0.49995   0.17846   0.00000  Uiso   1.00
C312   C     0.67928   0.49435   0.14932   0.00000  Uiso   1.00
C313   C     0.98738   0.50564   0.18402   0.00000  Uiso   1.00
C314   C     0.78698   0.35343   0.14952   0.00000  Uiso   1.00
C315   C     0.87969   0.64657   0.18381   0.00000  Uiso   1.00
C316   C     0.78691   0.64314   0.14841   0.00000  Uiso   1.00
H317   H     0.99834   0.47844   0.07522   0.00000  Uiso   1.00
H318   H     0.76353   0.43779   0.07160   0.00000  Uiso   1.00
H319   H     0.66836   0.52152   0.25812   0.00000  Uiso   1.00
H320   H     0.71603   0.37172   0.10256   0.00000  Uiso   1.00
H321   H     0.95066   0.62828   0.23076   0.00000  Uiso   1.00
H322   H     0.73323   0.58582   0.14377   0.00000  Uiso   1.00
H323   H     0.93342   0.41420   0.18958   0.00000  Uiso   1.00
H324   H     0.91709   0.55546   0.08898   0.00000  Uiso   1.00
H325   H     0.74936   0.44462   0.24444   0.00000  Uiso   1.00
H326   H     0.90313   0.56224   0.26176   0.00000  Uiso   1.00
N327   N     0.83332   0.49999   0.28573   0.00000  Uiso   1.00
N328   N     0.83335   0.50001   0.04760   0.00000  Uiso   1.00
O329   O     0.83333   0.43892   0.20487   0.00000  Uiso   1.00
O330   O     0.70492   0.56215   0.22235   0.00000  Uiso   1.00
O331   O     0.72174   0.39822   0.16358   0.00000  Uiso   1.00
O332   O     0.94491   0.60175   0.16974   0.00000  Uiso   1.00
O333   O     0.70594   0.62894   0.10068   0.00000  Uiso   1.00
O334   O     0.96077   0.37105   0.23261   0.00000  Uiso   1.00
O335   O     0.89199   0.59802   0.04435   0.00000  Uiso   1.00
O336   O     0.77481   0.40199   0.28885   0.00000  Uiso   1.00
O337   O     0.95145   0.55780   0.31848   0.00000  Uiso   1.00
O338   O     0.71526   0.44210   0.01483   0.00000  Uiso   1.00
O339   O     0.83334   0.56108   0.12846   0.00000  Uiso   1.00
O340   O     0.83333   0.43893   0.12843   0.00000  Uiso   1.00
O341   O     0.83334   0.56107   0.20490   0.00000  Uiso   1.00
O342   O     0.75725   0.50000   0.19595   0.00000  Uiso   1.00
O343   O     0.90942   0.50000   0.13739   0.00000  Uiso   1.00
O344   O     0.75725   0.50000   0.11950   0.00000  Uiso   1.00
O345   O     0.90942   0.50000   0.21383   0.00000  Uiso   1.00
O346   O     0.96172   0.43785   0.11098   0.00000  Uiso   1.00
Zn347  Zn    0.83333   0.49999   0.21771   0.00000  Uiso   1.00
Zn348  Zn    0.83333   0.50001   0.11563   0.00000  Uiso   1.00
C349   C     0.16667   0.75363   0.16661   0.00000  Uiso   1.00
C350   C     0.21310   0.69019   0.18492   0.00000  Uiso   1.00
C351   C     0.16652   0.95732   0.16648   0.00000  Uiso   1.00
C352   C     0.16683   0.70935   0.16685   0.00000  Uiso   1.00
C353   C     0.19854   0.86104   0.02848   0.00000  Uiso   1.00
C354   C     0.13478   0.80563   0.30485   0.00000  Uiso   1.00
C355   C     0.20040   0.85970   0.31409   0.00000  Uiso   1.00
C356   C     0.13294   0.80697   0.01924   0.00000  Uiso   1.00
C357   C     0.32252   0.80275   0.10811   0.00000  Uiso   1.00
C358   C     0.01081   0.86391   0.22522   0.00000  Uiso   1.00
C359   C     0.07131   0.70891   0.13630   0.00000  Uiso   1.00
C360   C     0.16666   0.91303   0.16672   0.00000  Uiso   1.00
C361   C     0.26203   0.95775   0.19702   0.00000  Uiso   1.00
C362   C     0.07219   0.95025   0.13079   0.00000  Uiso   1.00
C363   C     0.26116   0.71641   0.20254   0.00000  Uiso   1.00
C364   C     0.22743   0.89508   0.05689   0.00000  Uiso   1.00
C365   C     0.10588   0.77161   0.27643   0.00000  Uiso   1.00
C366   C     0.24208   0.88423   0.29570   0.00000  Uiso   1.00
C367   C     0.09127   0.78242   0.03763   0.00000  Uiso   1.00
C368   C     0.06733   0.83337   0.15487   0.00000  Uiso   1.00
C369   C     0.26600   0.83329   0.17846   0.00000  Uiso   1.00
C370   C     0.01262   0.82769   0.14932   0.00000  Uiso   1.00
C371   C     0.32072   0.83897   0.18402   0.00000  Uiso   1.00
C372   C     0.12031   0.68676   0.14952   0.00000  Uiso   1.00
C373   C     0.21303   0.97990   0.18381   0.00000  Uiso   1.00
C374   C     0.12025   0.97648   0.14841   0.00000  Uiso   1.00
H375   H     0.33167   0.81178   0.07522   0.00000  Uiso   1.00
H376   H     0.09686   0.77112   0.07160   0.00000  Uiso   1.00
H377   H     0.00170   0.85486   0.25812   0.00000  Uiso   1.00
H378   H     0.04937   0.70505   0.10256   0.00000  Uiso   1.00
H379   H     0.28399   0.96161   0.23076   0.00000  Uiso   1.00
H380   H     0.06656   0.91915   0.14377   0.00000  Uiso   1.00
H381   H     0.26676   0.74753   0.18958   0.00000  Uiso   1.00
H382   H     0.25043   0.88879   0.08898   0.00000  Uiso   1.00
H383   H     0.08270   0.77795   0.24444   0.00000  Uiso   1.00
H384   H     0.23647   0.89558   0.26176   0.00000  Uiso   1.00
N385   N     0.16665   0.83332   0.28573   0.00000  Uiso   1.00
N386   N     0.16668   0.83334   0.04760   0.00000  Uiso   1.00
O387   O     0.16666   0.77225   0.20487   0.00000  Uiso   1.00
O388   O     0.03826   0.89548   0.22235   0.00000  Uiso   1.00
O389   O     0.05507   0.73156   0.16358   0.00000  Uiso   1.00
O390   O     0.27824   0.93508   0.16974   0.00000  Uiso   1.00
O391   O     0.03928   0.96227   0.10068   0.00000  Uiso   1.00
O392   O     0.29410   0.70438   0.23261   0.00000  Uiso   1.00
O393   O     0.22533   0.93136   0.04435   0.00000  Uiso   1.00
O394   O     0.10815   0.73532   0.28885   0.00000  Uiso   1.00
O395   O     0.28478   0.89113   0.31848   0.00000  Uiso   1.00
O396   O     0.04859   0.77544   0.01483   0.00000  Uiso   1.00
O397   O     0.16667   0.89442   0.12846   0.00000  Uiso   1.00
O398   O     0.16666   0.77226   0.12843   0.00000  Uiso   1.00
O399   O     0.16667   0.89441   0.20490   0.00000  Uiso   1.00
O400   O     0.09058   0.83333   0.19595   0.00000  Uiso   1.00
O401   O     0.24275   0.83334   0.13739   0.00000  Uiso   1.00
O402   O     0.09058   0.83334   0.11950   0.00000  Uiso   1.00
O403   O     0.24275   0.83333   0.21383   0.00000  Uiso   1.00
O404   O     0.29505   0.77118   0.11098   0.00000  Uiso   1.00
Zn405  Zn    0.16667   0.83333   0.21771   0.00000  Uiso   1.00
Zn406  Zn    0.16667   0.83334   0.11563   0.00000  Uiso   1.00
C407   C     0.50000   0.75363   0.16661   0.00000  Uiso   1.00
C408   C     0.54643   0.69019   0.18492   0.00000  Uiso   1.00
C409   C     0.49985   0.95732   0.16648   0.00000  Uiso   1.00
C410   C     0.50016   0.70935   0.16685   0.00000  Uiso   1.00
C411   C     0.53187   0.86104   0.02848   0.00000  Uiso   1.00
C412   C     0.46812   0.80563   0.30485   0.00000  Uiso   1.00
C413   C     0.53373   0.85970   0.31409   0.00000  Uiso   1.00
C414   C     0.46627   0.80697   0.01924   0.00000  Uiso   1.00
C415   C     0.65585   0.80275   0.10811   0.00000  Uiso   1.00
C416   C     0.34415   0.86391   0.22522   0.00000  Uiso   1.00
C417   C     0.40464   0.70891   0.13630   0.00000  Uiso   1.00
C418   C     0.50000   0.91303   0.16672   0.00000  Uiso   1.00
C419   C     0.59537   0.95775   0.19702   0.00000  Uiso   1.00
C420   C     0.40552   0.95025   0.13079   0.00000  Uiso   1.00
C421   C     0.59449   0.71641   0.20254   0.00000  Uiso   1.00
C422   C     0.56076   0.89508   0.05689   0.00000  Uiso   1.00
C423   C     0.43921   0.77161   0.27643   0.00000  Uiso   1.00
C424   C     0.57541   0.88423   0.29570   0.00000  Uiso   1.00
C425   C     0.42460   0.78242   0.03763   0.00000  Uiso   1.00
C426   C     0.40067   0.83337   0.15487   0.00000  Uiso   1.00
C427   C     0.59933   0.83329   0.17846   0.00000  Uiso   1.00
C428   C     0.34595   0.82769   0.14932   0.00000  Uiso   1.00
C429   C     0.65405   0.83897   0.18402   0.00000  Uiso   1.00
C430   C     0.45365   0.68676   0.14952   0.00000  Uiso   1.00
C431   C     0.54636   0.97990   0.18381   0.00000  Uiso   1.00
C432   C     0.45358   0.97648   0.14841   0.00000  Uiso   1.00
H433   H     0.66500   0.81178   0.07522   0.00000  Uiso   1.00
H434   H     0.43019   0.77112   0.07160   0.00000  Uiso   1.00
H435   H     0.33503   0.85486   0.25812   0.00000  Uiso   1.00
H436   H     0.38270   0.70505   0.10256   0.00000  Uiso   1.00
H437   H     0.61732   0.96161   0.23076   0.00000  Uiso   1.00
H438   H     0.39989   0.91915   0.14377   0.00000  Uiso   1.00
H439   H     0.60009   0.74753   0.18958   0.00000  Uiso   1.00
H440   H     0.58376   0.88879   0.08898   0.00000  Uiso   1.00
H441   H     0.41603   0.77795   0.24444   0.00000  Uiso   1.00
H442   H     0.56980   0.89558   0.26176   0.00000  Uiso   1.00
N443   N     0.49999   0.83332   0.28573   0.00000  Uiso   1.00
N444   N     0.50001   0.83334   0.04760   0.00000  Uiso   1.00
O445   O     0.50000   0.77225   0.20487   0.00000  Uiso   1.00
O446   O     0.37159   0.89548   0.22235   0.00000  Uiso   1.00
O447   O     0.38840   0.73156   0.16358   0.00000  Uiso   1.00
O448   O     0.61157   0.93508   0.16974   0.00000  Uiso   1.00
O449   O     0.37261   0.96227   0.10068   0.00000  Uiso   1.00
O450   O     0.62744   0.70438   0.23261   0.00000  Uiso   1.00
O451   O     0.55866   0.93136   0.04435   0.00000  Uiso   1.00
O452   O     0.44148   0.73532   0.28885   0.00000  Uiso   1.00
O453   O     0.61811   0.89113   0.31848   0.00000  Uiso   1.00
O454   O     0.38193   0.77544   0.01483   0.00000  Uiso   1.00
O455   O     0.50000   0.89442   0.12846   0.00000  Uiso   1.00
O456   O     0.50000   0.77226   0.12843   0.00000  Uiso   1.00
O457   O     0.50000   0.89441   0.20490   0.00000  Uiso   1.00
O458   O     0.42392   0.83333   0.19595   0.00000  Uiso   1.00
O459   O     0.57608   0.83334   0.13739   0.00000  Uiso   1.00
O460   O     0.42392   0.83334   0.11950   0.00000  Uiso   1.00
O461   O     0.57608   0.83333   0.21383   0.00000  Uiso   1.00
O462   O     0.62839   0.77118   0.11098   0.00000  Uiso   1.00
Zn463  Zn    0.50000   0.83333   0.21771   0.00000  Uiso   1.00
Zn464  Zn    0.50000   0.83334   0.11563   0.00000  Uiso   1.00
C465   C     0.83334   0.75363   0.16661   0.00000  Uiso   1.00
C466   C     0.87976   0.69019   0.18492   0.00000  Uiso   1.00
C467   C     0.83318   0.95732   0.16648   0.00000  Uiso   1.00
C468   C     0.83349   0.70935   0.16685   0.00000  Uiso   1.00
C469   C     0.86521   0.86104   0.02848   0.00000  Uiso   1.00
C470   C     0.80145   0.80563   0.30485   0.00000  Uiso   1.00
C471   C     0.86706   0.85970   0.31409   0.00000  Uiso   1.00
C472   C     0.79961   0.80697   0.01924   0.00000  Uiso   1.00
C473   C     0.98919   0.80275   0.10811   0.00000  Uiso   1.00
C474   C     0.67748   0.86391   0.22522   0.00000  Uiso   1.00
C475   C     0.73797   0.70891   0.13630   0.00000  Uiso   1.00
C476   C     0.83333   0.91303   0.16672   0.00000  Uiso   1.00
C477   C     0.92870   0.95775   0.19702   0.00000  Uiso   1.00
C478   C     0.73886   0.95025   0.13079   0.00000  Uiso   1.00
C479   C     0.92782   0.71641   0.20254   0.00000  Uiso   1.00
C480   C     0.89409   0.89508   0.05689   0.00000  Uiso   1.00
C481   C     0.77255   0.77161   0.27643   0.00000  Uiso   1.00
C482   C     0.90875   0.88423   0.29570   0.00000  Uiso   1.00
C483   C     0.75794   0.78242   0.03763   0.00000  Uiso   1.00
C484   C     0.73400   0.83337   0.15487   0.00000  Uiso   1.00
C485   C     0.93267   0.83329   0.17846   0.00000  Uiso   1.00
C486   C     0.67928   0.82769   0.14932   0.00000  Uiso   1.00
C487   C     0.98738   0.83897   0.18402   0.00000  Uiso   1.00
C488   C     0.78698   0.68676   0.14952   0.00000  Uiso   1.00
C489   C     0.87969   0.97990   0.18381   0.00000  Uiso   1.00
C490   C     0.78691   0.97648   0.14841   0.00000  Uiso   1.00
H491   H     0.99834   0.81178   0.07522   0.00000  Uiso   1.00
H492   H     0.76353   0.77112   0.07160   0.00000  Uiso   1.00
H493   H     0.66836   0.85486   0.25812   0.00000  Uiso   1.00
H494   H     0.71603   0.70505   0.10256   0.00000  Uiso   1.00
H495   H     0.95066   0.96161   0.23076   0.00000  Uiso   1.00
H496   H     0.73323   0.91915   0.14377   0.00000  Uiso   1.00
H497   H     0.93342   0.74753   0.18958   0.00000  Uiso   1.00
H498   H     0.91709   0.88879   0.08898   0.00000  Uiso   1.00
H499   H     0.74936   0.77795   0.24444   0.00000  Uiso   1.00
H500   H     0.90313   0.89558   0.26176   0.00000  Uiso   1.00
N501   N     0.83332   0.83332   0.28573   0.00000  Uiso   1.00
N502   N     0.83335   0.83334   0.04760   0.00000  Uiso   1.00
O503   O     0.83333   0.77225   0.20487   0.00000  Uiso   1.00
O504   O     0.70492   0.89548   0.22235   0.00000  Uiso   1.00
O505   O     0.72174   0.73156   0.16358   0.00000  Uiso   1.00
O506   O     0.94491   0.93508   0.16974   0.00000  Uiso   1.00
O507   O     0.70594   0.96227   0.10068   0.00000  Uiso   1.00
O508   O     0.96077   0.70438   0.23261   0.00000  Uiso   1.00
O509   O     0.89199   0.93136   0.04435   0.00000  Uiso   1.00
O510   O     0.77481   0.73532   0.28885   0.00000  Uiso   1.00
O511   O     0.95145   0.89113   0.31848   0.00000  Uiso   1.00
O512   O     0.71526   0.77544   0.01483   0.00000  Uiso   1.00
O513   O     0.83334   0.89442   0.12846   0.00000  Uiso   1.00
O514   O     0.83333   0.77226   0.12843   0.00000  Uiso   1.00
O515   O     0.83334   0.89441   0.20490   0.00000  Uiso   1.00
O516   O     0.75725   0.83333   0.19595   0.00000  Uiso   1.00
O517   O     0.90942   0.83334   0.13739   0.00000  Uiso   1.00
O518   O     0.75725   0.83334   0.11950   0.00000  Uiso   1.00
O519   O     0.90942   0.83333   0.21383   0.00000  Uiso   1.00
O520   O     0.96172   0.77118   0.11098   0.00000  Uiso   1.00
Zn521  Zn    0.83333   0.83333   0.21771   0.00000  Uiso   1.00
Zn522  Zn    0.83333   0.83334   0.11563   0.00000  Uiso   1.00
C523   C     0.16667   0.08697   0.49995   0.00000  Uiso   1.00
C524   C     0.21310   0.02352   0.51826   0.00000  Uiso   1.00
C525   C     0.16652   0.29065   0.49982   0.00000  Uiso   1.00
C526   C     0.16683   0.04268   0.50018   0.00000  Uiso   1.00
C527   C     0.19854   0.19438   0.36181   0.00000  Uiso   1.00
C528   C     0.13478   0.13897   0.63819   0.00000  Uiso   1.00
C529   C     0.20040   0.19303   0.64742   0.00000  Uiso   1.00
C530   C     0.13294   0.14030   0.35257   0.00000  Uiso   1.00
C531   C     0.32252   0.13608   0.44144   0.00000  Uiso   1.00
C532   C     0.01081   0.19724   0.55856   0.00000  Uiso   1.00
C533   C     0.07131   0.04225   0.46964   0.00000  Uiso   1.00
C534   C     0.16666   0.24636   0.50005   0.00000  Uiso   1.00
C535   C     0.26203   0.29108   0.53036   0.00000  Uiso   1.00
C536   C     0.07219   0.28359   0.46412   0.00000  Uiso   1.00
C537   C     0.26116   0.04975   0.53587   0.00000  Uiso   1.00
C538   C     0.22743   0.22842   0.39022   0.00000  Uiso   1.00
C539   C     0.10588   0.10495   0.60976   0.00000  Uiso   1.00
C540   C     0.24208   0.21756   0.62904   0.00000  Uiso   1.00
C541   C     0.09127   0.11575   0.37096   0.00000  Uiso   1.00
C542   C     0.06733   0.16671   0.48820   0.00000  Uiso   1.00
C543   C     0.26600   0.16662   0.51180   0.00000  Uiso   1.00
C544   C     0.01262   0.16102   0.48265   0.00000  Uiso   1.00
C545   C     0.32072   0.17230   0.51735   0.00000  Uiso   1.00
C546   C     0.12031   0.02010   0.48285   0.00000  Uiso   1.00
C547   C     0.21303   0.31323   0.51715   0.00000  Uiso   1.00
C548   C     0.12025   0.30981   0.48174   0.00000  Uiso   1.00
H549   H     0.33167   0.14511   0.40855   0.00000  Uiso   1.00
H550   H     0.09686   0.10446   0.40493   0.00000  Uiso   1.00
H551   H     0.00170   0.18819   0.59145   0.00000  Uiso   1.00
H552   H     0.04937   0.03839   0.43590   0.00000  Uiso   1.00
H553   H     0.28399   0.29495   0.56410   0.00000  Uiso   1.00
H554   H     0.06656   0.25248   0.47710   0.00000  Uiso   1.00
H555   H     0.26676   0.08087   0.52291   0.00000  Uiso   1.00
H556   H     0.25043   0.22212   0.42231   0.00000  Uiso   1.00
H557   H     0.08270   0.11128   0.57778   0.00000  Uiso   1.00
H558   H     0.23647   0.22891   0.59509   0.00000  Uiso   1.00
N559   N     0.16665   0.16666   0.61907   0.00000  Uiso   1.00
N560   N     0.16668   0.16668   0.38093   0.00000  Uiso   1.00
O561   O     0.16666   0.10558   0.53821   0.00000  Uiso   1.00
O562   O     0.03826   0.22882   0.55568   0.00000  Uiso   1.00
O563   O     0.05507   0.06489   0.49692   0.00000  Uiso   1.00
O564   O     0.27824   0.26841   0.50308   0.00000  Uiso   1.00
O565   O     0.03928   0.29561   0.43401   0.00000  Uiso   1.00
O566   O     0.29410   0.03771   0.56594   0.00000  Uiso   1.00
O567   O     0.22533   0.26469   0.37769   0.00000  Uiso   1.00
O568   O     0.10815   0.06865   0.62218   0.00000  Uiso   1.00
O569   O     0.28478   0.22447   0.65182   0.00000  Uiso   1.00
O570   O     0.04859   0.10877   0.34816   0.00000  Uiso   1.00
O571   O     0.16667   0.22775   0.46179   0.00000  Uiso   1.00
O572   O     0.16666   0.10559   0.46176   0.00000  Uiso   1.00
O573   O     0.16667   0.22774   0.53824   0.00000  Uiso   1.00
O574   O     0.09058   0.16666   0.52928   0.00000  Uiso   1.00
O575   O     0.24275   0.16667   0.47072   0.00000  Uiso   1.00
O576   O     0.09058   0.16667   0.45284   0.00000  Uiso   1.00
O577   O     0.24275   0.16666   0.54716   0.00000  Uiso   1.00
O578   O     0.29505   0.10452   0.44431   0.00000  Uiso   1.00
Zn579  Zn    0.16667   0.16666   0.55104   0.00000  Uiso   1.00
Zn580  Zn    0.16667   0.16667   0.44896   0.00000  Uiso   1.00
C581   C     0.50000   0.08697   0.49995   0.00000  Uiso   1.00
C582   C     0.54643   0.02352   0.51826   0.00000  Uiso   1.00
C583   C     0.49985   0.29065   0.49982   0.00000  Uiso   1.00
C584   C     0.50016   0.04268   0.50018   0.00000  Uiso   1.00
C585   C     0.53187   0.19438   0.36181   0.00000  Uiso   1.00
C586   C     0.46812   0.13897   0.63819   0.00000  Uiso   1.00
C587   C     0.53373   0.19303   0.64742   0.00000  Uiso   1.00
C588   C     0.46627   0.14030   0.35257   0.00000  Uiso   1.00
C589   C     0.65585   0.13608   0.44144   0.00000  Uiso   1.00
C590   C     0.34415   0.19724   0.55856   0.00000  Uiso   1.00
C591   C     0.40464   0.04225   0.46964   0.00000  Uiso   1.00
C592   C     0.50000   0.24636   0.50005   0.00000  Uiso   1.00
C593   C     0.59537   0.29108   0.53036   0.00000  Uiso   1.00
C594   C     0.40552   0.28359   0.46412   0.00000  Uiso   1.00
C595   C     0.59449   0.04975   0.53587   0.00000  Uiso   1.00
C596   C     0.56076   0.22842   0.39022   0.00000  Uiso   1.00
C597   C     0.43921   0.10495   0.60976   0.00000  Uiso   1.00
C598   C     0.57541   0.21756   0.62904   0.00000  Uiso   1.00
C599   C     0.42460   0.11575   0.37096   0.00000  Uiso   1.00
C600   C     0.40067   0.16671   0.48820   0.00000  Uiso   1.00
C601   C     0.59933   0.16662   0.51180   0.00000  Uiso   1.00
C602   C     0.34595   0.16102   0.48265   0.00000  Uiso   1.00
C603   C     0.65405   0.17230   0.51735   0.00000  Uiso   1.00
C604   C     0.45365   0.02010   0.48285   0.00000  Uiso   1.00
C605   C     0.54636   0.31323   0.51715   0.00000  Uiso   1.00
C606   C     0.45358   0.30981   0.48174   0.00000  Uiso   1.00
H607   H     0.66500   0.14511   0.40855   0.00000  Uiso   1.00
H608   H     0.43019   0.10446   0.40493   0.00000  Uiso   1.00
H609   H     0.33503   0.18819   0.59145   0.00000  Uiso   1.00
H610   H     0.38270   0.03839   0.43590   0.00000  Uiso   1.00
H611   H     0.61732   0.29495   0.56410   0.00000  Uiso   1.00
H612   H     0.39989   0.25248   0.47710   0.00000  Uiso   1.00
H613   H     0.60009   0.08087   0.52291   0.00000  Uiso   1.00
H614   H     0.58376   0.22212   0.42231   0.00000  Uiso   1.00
H615   H     0.41603   0.11128   0.57778   0.00000  Uiso   1.00
H616   H     0.56980   0.22891   0.59509   0.00000  Uiso   1.00
N617   N     0.49999   0.16666   0.61907   0.00000  Uiso   1.00
N618   N     0.50001   0.16668   0.38093   0.00000  Uiso   1.00
O619   O     0.50000   0.10558   0.53821   0.00000  Uiso   1.00
O620   O     0.37159   0.22882   0.55568   0.00000  Uiso   1.00
O621   O     0.38840   0.06489   0.49692   0.00000  Uiso   1.00
O622   O     0.61157   0.26841   0.50308   0.00000  Uiso   1.00
O623   O     0.37261   0.29561   0.43401   0.00000  Uiso   1.00
O624   O     0.62744   0.03771   0.56594   0.00000  Uiso   1.00
O625   O     0.55866   0.26469   0.37769   0.00000  Uiso   1.00
O626   O     0.44148   0.06865   0.62218   0.00000  Uiso   1.00
O627   O     0.61811   0.22447   0.65182   0.00000  Uiso   1.00
O628   O     0.38193   0.10877   0.34816   0.00000  Uiso   1.00
O629   O     0.50000   0.22775   0.46179   0.00000  Uiso   1.00
O630   O     0.50000   0.10559   0.46176   0.00000  Uiso   1.00
O631   O     0.50000   0.22774   0.53824   0.00000  Uiso   1.00
O632   O     0.42392   0.16666   0.52928   0.00000  Uiso   1.00
O633   O     0.57608   0.16667   0.47072   0.00000  Uiso   1.00
O634   O     0.42392   0.16667   0.45284   0.00000  Uiso   1.00
O635   O     0.57608   0.16666   0.54716   0.00000  Uiso   1.00
O636   O     0.62839   0.10452   0.44431   0.00000  Uiso   1.00
Zn637  Zn    0.50000   0.16666   0.55104   0.00000  Uiso   1.00
Zn638  Zn    0.50000   0.16667   0.44896   0.00000  Uiso   1.00
C639   C     0.83334   0.08697   0.49995   0.00000  Uiso   1.00
C640   C     0.87976   0.02352   0.51826   0.00000  Uiso   1.00
C641   C     0.83318   0.29065   0.49982   0.00000  Uiso   1.00
C642   C     0.83349   0.04268   0.50018   0.00000  Uiso   1.00
C643   C     0.86521   0.19438   0.36181   0.00000  Uiso   1.00
C644   C     0.80145   0.13897   0.63819   0.00000  Uiso   1.00
C645   C     0.86706   0.19303   0.64742   0.00000  Uiso   1.00
C646   C     0.79961   0.14030   0.35257   0.00000  Uiso   1.00
C647   C     0.98919   0.13608   0.44144   0.00000  Uiso   1.00
C648   C     0.67748   0.19724   0.55856   0.00000  Uiso   1.00
C649   C     0.73797   0.04225   0.46964   0.00000  Uiso   1.00
C650   C     0.83333   0.24636   0.50005   0.00000  Uiso   1.00
C651   C     0.92870   0.29108   0.53036   0.00000  Uiso   1.00
C652   C     0.73886   0.28359   0.46412   0.00000  Uiso   1.00
C653   C     0.92782   0.04975   0.53587   0.00000  Uiso   1.00
C654   C     0.89409   0.22842   0.39022   0.00000  Uiso   1.00
C655   C     0.77255   0.10495   0.60976   0.00000  Uiso   1.00
C656   C     0.90875   0.21756   0.62904   0.00000  Uiso   1.00
C657   C     0.75794   0.11575   0.37096   0.00000  Uiso   1.00
C658   C     0.73400   0.16671   0.48820   0.00000  Uiso   1.00
C659   C     0.93267   0.16662   0.51180   0.00000  Uiso   1.00
C660   C     0.67928   0.16102   0.48265   0.00000  Uiso   1.00
C661   C     0.98738   0.17230   0.51735   0.00000  Uiso   1.00
C662   C     0.78698   0.02010   0.48285   0.00000  Uiso   1.00
C663   C     0.87969   0.31323   0.51715   0.00000  Uiso   1.00
C664   C     0.78691   0.30981   0.48174   0.00000  Uiso   1.00
H665   H     0.99834   0.14511   0.40855   0.00000  Uiso   1.00
H666   H     0.76353   0.10446   0.40493   0.00000  Uiso   1.00
H667   H     0.66836   0.18819   0.59145   0.00000  Uiso   1.00
H668   H     0.71603   0.03839   0.43590   0.00000  Uiso   1.00
H669   H     0.95066   0.29495   0.56410   0.00000  Uiso   1.00
H670   H     0.73323   0.25248   0.47710   0.00000  Uiso   1.00
H671   H     0.93342   0.08087   0.52291   0.00000  Uiso   1.00
H672   H     0.91709   0.22212   0.42231   0.00000  Uiso   1.00
H673   H     0.74936   0.11128   0.57778   0.00000  Uiso   1.00
H674   H     0.90313   0.22891   0.59509   0.00000  Uiso   1.00
N675   N     0.83332   0.16666   0.61907   0.00000  Uiso   1.00
N676   N     0.83335   0.16668   0.38093   0.00000  Uiso   1.00
O677   O     0.83333   0.10558   0.53821   0.00000  Uiso   1.00
O678   O     0.70492   0.22882   0.55568   0.00000  Uiso   1.00
O679   O     0.72174   0.06489   0.49692   0.00000  Uiso   1.00
O680   O     0.94491   0.26841   0.50308   0.00000  Uiso   1.00
O681   O     0.70594   0.29561   0.43401   0.00000  Uiso   1.00
O682   O     0.96077   0.03771   0.56594   0.00000  Uiso   1.00
O683   O     0.89199   0.26469   0.37769   0.00000  Uiso   1.00
O684   O     0.77481   0.06865   0.62218   0.00000  Uiso   1.00
O685   O     0.95145   0.22447   0.65182   0.00000  Uiso   1.00
O686   O     0.71526   0.10877   0.34816   0.00000  Uiso   1.00
O687   O     0.83334   0.22775   0.46179   0.00000  Uiso   1.00
O688   O     0.83333   0.10559   0.46176   0.00000  Uiso   1.00
O689   O     0.83334   0.22774   0.53824   0.00000  Uiso   1.00
O690   O     0.75725   0.16666   0.52928   0.00000  Uiso   1.00
O691   O     0.90942   0.16667   0.47072   0.00000  Uiso   1.00
O692   O     0.75725   0.16667   0.45284   0.00000  Uiso   1.00
O693   O     0.90942   0.16666   0.54716   0.00000  Uiso   1.00
O694   O     0.96172   0.10452   0.44431   0.00000  Uiso   1.00
Zn695  Zn    0.83333   0.16666   0.55104   0.00000  Uiso   1.00
Zn696  Zn    0.83333   0.16667   0.44896   0.00000  Uiso   1.00
C697   C     0.16667   0.42030   0.49995   0.00000  Uiso   1.00
C698   C     0.21310   0.35685   0.51826   0.00000  Uiso   1.00
C699   C     0.16652   0.62398   0.49982   0.00000  Uiso   1.00
C700   C     0.16683   0.37602   0.50018   0.00000  Uiso   1.00
C701   C     0.19854   0.52771   0.36181   0.00000  Uiso   1.00
C702   C     0.13478   0.47230   0.63819   0.00000  Uiso   1.00
C703   C     0.20040   0.52636   0.64742   0.00000  Uiso   1.00
C704   C     0.13294   0.47364   0.35257   0.00000  Uiso   1.00
C705   C     0.32252   0.46942   0.44144   0.00000  Uiso   1.00
C706   C     0.01081   0.53057   0.55856   0.00000  Uiso   1.00
C707   C     0.07131   0.37558   0.46964   0.00000  Uiso   1.00
C708   C     0.16666   0.57970   0.50005   0.00000  Uiso   1.00
C709   C     0.26203   0.62441   0.53036   0.00000  Uiso   1.00
C710   C     0.07219   0.61692   0.46412   0.00000  Uiso   1.00
C711   C     0.26116   0.38308   0.53587   0.00000  Uiso   1.00
C712   C     0.22743   0.56175   0.39022   0.00000  Uiso   1.00
C713   C     0.10588   0.43828   0.60976   0.00000  Uiso   1.00
C714   C     0.24208   0.55089   0.62904   0.00000  Uiso   1.00
C715   C     0.09127   0.44909   0.37096   0.00000  Uiso   1.00
C716   C     0.06733   0.50004   0.48820   0.00000  Uiso   1.00
C717   C     0.26600   0.49995   0.51180   0.00000  Uiso   1.00
C718   C     0.01262   0.49435   0.48265   0.00000  Uiso   1.00
C719   C     0.32072   0.50564   0.51735   0.00000  Uiso   1.00
C720   C     0.12031   0.35343   0.48285   0.00000  Uiso   1.00
C721   C     0.21303   0.64657   0.51715   0.00000  Uiso   1.00
C722   C     0.12025   0.64314   0.48174   0.00000  Uiso   1.00
H723   H     0.33167   0.47844   0.40855   0.00000  Uiso   1.00
H724   H     0.09686   0.43779   0.40493   0.00000  Uiso   1.00
H725   H     0.00170   0.52152   0.59145   0.00000  Uiso   1.00
H726   H     0.04937   0.37172   0.43590   0.00000  Uiso   1.00
H727   H     0.28399   0.62828   0.56410   0.00000  Uiso   1.00
H728   H     0.06656   0.58582   0.47710   0.00000  Uiso   1.00
H729   H     0.26676   0.41420   0.52291   0.00000  Uiso   1.00
H730   H     0.25043   0.55546   0.42231   0.00000  Uiso   1.00
H731   H     0.08270   0.44462   0.57778   0.00000  Uiso   1.00
H732   H     0.23647   0.56224   0.59509   0.00000  Uiso   1.00
N733   N     0.16665   0.49999   0.61907   0.00000  Uiso   1.00
N734   N     0.16668   0.50001   0.38093   0.00000  Uiso   1.00
O735   O     0.16666   0.43892   0.53821   0.00000  Uiso   1.00
O736   O     0.03826   0.56215   0.55568   0.00000  Uiso   1.00
O737   O     0.05507   0.39822   0.49692   0.00000  Uiso   1.00
O738   O     0.27824   0.60175   0.50308   0.00000  Uiso   1.00
O739   O     0.03928   0.62894   0.43401   0.00000  Uiso   1.00
O740   O     0.29410   0.37105   0.56594   0.00000  Uiso   1.00
O741   O     0.22533   0.59802   0.37769   0.00000  Uiso   1.00
O742   O     0.10815   0.40199   0.62218   0.00000  Uiso   1.00
O743   O     0.28478   0.55780   0.65182   0.00000  Uiso   1.00
O744   O     0.04859   0.44210   0.34816   0.00000  Uiso   1.00
O745   O     0.16667   0.56108   0.46179   0.00000  Uiso   1.00
O746   O     0.16666   0.43893   0.46176   0.00000  Uiso   1.00
O747   O     0.16667   0.56107   0.53824   0.00000  Uiso   1.00
O748   O     0.09058   0.50000   0.52928   0.00000  Uiso   1.00
O749   O     0.24275   0.50000   0.47072   0.00000  Uiso   1.00
O750   O     0.09058   0.50000   0.45284   0.00000  Uiso   1.00
O751   O     0.24275   0.50000   0.54716   0.00000  Uiso   1.00
O752   O     0.29505   0.43785   0.44431   0.00000  Uiso   1.00
Zn753  Zn    0.16667   0.49999   0.55104   0.00000  Uiso   1.00
Zn754  Zn    0.16667   0.50001   0.44896   0.00000  Uiso   1.00
C755   C     0.50000   0.42030   0.49995   0.00000  Uiso   1.00
C756   C     0.54643   0.35685   0.51826   0.00000  Uiso   1.00
C757   C     0.49985   0.62398   0.49982   0.00000  Uiso   1.00
C758   C     0.50016   0.37602   0.50018   0.00000  Uiso   1.00
C759   C     0.53187   0.52771   0.36181   0.00000  Uiso   1.00
C760   C     0.46812   0.47230   0.63819   0.00000  Uiso   1.00
C761   C     0.53373   0.52636   0.64742   0.00000  Uiso   1.00
C762   C     0.46627   0.47364   0.35257   0.00000  Uiso   1.00
C763   C     0.65585   0.46942   0.44144   0.00000  Uiso   1.00
C764   C     0.34415   0.53057   0.55856   0.00000  Uiso   1.00
C765   C     0.40464   0.37558   0.46964   0.00000  Uiso   1.00
C766   C     0.50000   0.57970   0.50005   0.00000  Uiso   1.00
C767   C     0.59537   0.62441   0.53036   0.00000  Uiso   1.00
C768   C     0.40552   0.61692   0.46412   0.00000  Uiso   1.00
C769   C     0.59449   0.38308   0.53587   0.00000  Uiso   1.00
C770   C     0.56076   0.56175   0.39022   0.00000  Uiso   1.00
C771   C     0.43921   0.43828   0.60976   0.00000  Uiso   1.00
C772   C     0.57541   0.55089   0.62904   0.00000  Uiso   1.00
C773   C     0.42460   0.44909   0.37096   0.00000  Uiso   1.00
C774   C     0.40067   0.50004   0.48820   0.00000  Uiso   1.00
C775   C     0.59933   0.49995   0.51180   0.00000  Uiso   1.00
C776   C     0.34595   0.49435   0.48265   0.00000  Uiso   1.00
C777   C     0.65405   0.50564   0.51735   0.00000  Uiso   1.00
C778   C     0.45365   0.35343   0.48285   0.00000  Uiso   1.00
C779   C     0.54636   0.64657   0.51715   0.00000  Uiso   1.00
C780   C     0.45358   0.64314   0.48174   0.00000  Uiso   1.00
H781   H     0.66500   0.47844   0.40855   0.00000  Uiso   1.00
H782   H     0.43019   0.43779   0.40493   0.00000  Uiso   1.00
H783   H     0.33503   0.52152   0.59145   0.00000  Uiso   1.00
H784   H     0.38270   0.37172   0.43590   0.00000  Uiso   1.00
H785   H     0.61732   0.62828   0.56410   0.00000  Uiso   1.00
H786   H     0.39989   0.58582   0.47710   0.00000  Uiso   1.00
H787   H     0.60009   0.41420   0.52291   0.00000  Uiso   1.00
H788   H     0.58376   0.55546   0.42231   0.00000  Uiso   1.00
H789   H     0.41603   0.44462   0.57778   0.00000  Uiso   1.00
H790   H     0.56980   0.56224   0.59509   0.00000  Uiso   1.00
N791   N     0.49999   0.49999   0.61907   0.00000  Uiso   1.00
N792   N     0.50001   0.50001   0.38093   0.00000  Uiso   1.00
O793   O     0.50000   0.43892   0.53821   0.00000  Uiso   1.00
O794   O     0.37159   0.56215   0.55568   0.00000  Uiso   1.00
O795   O     0.38840   0.39822   0.49692   0.00000  Uiso   1.00
O796   O     0.61157   0.60175   0.50308   0.00000  Uiso   1.00
O797   O     0.37261   0.62894   0.43401   0.00000  Uiso   1.00
O798   O     0.62744   0.37105   0.56594   0.00000  Uiso   1.00
O799   O     0.55866   0.59802   0.37769   0.00000  Uiso   1.00
O800   O     0.44148   0.40199   0.62218   0.00000  Uiso   1.00
O801   O     0.61811   0.55780   0.65182   0.00000  Uiso   1.00
O802   O     0.38193   0.44210   0.34816   0.00000  Uiso   1.00
O803   O     0.50000   0.56108   0.46179   0.00000  Uiso   1.00
O804   O     0.50000   0.43893   0.46176   0.00000  Uiso   1.00
O805   O     0.50000   0.56107   0.53824   0.00000  Uiso   1.00
O806   O     0.42392   0.50000   0.52928   0.00000  Uiso   1.00
O807   O     0.57608   0.50000   0.47072   0.00000  Uiso   1.00
O808   O     0.42392   0.50000   0.45284   0.00000  Uiso   1.00
O809   O     0.57608   0.50000   0.54716   0.00000  Uiso   1.00
O810   O     0.62839   0.43785   0.44431   0.00000  Uiso   1.00
Zn811  Zn    0.50000   0.49999   0.55104   0.00000  Uiso   1.00
Zn812  Zn    0.50000   0.50001   0.44896   0.00000  Uiso   1.00
C813   C     0.83334   0.42030   0.49995   0.00000  Uiso   1.00
C814   C     0.87976   0.35685   0.51826   0.00000  Uiso   1.00
C815   C     0.83318   0.62398   0.49982   0.00000  Uiso   1.00
C816   C     0.83349   0.37602   0.50018   0.00000  Uiso   1.00
C817   C     0.86521   0.52771   0.36181   0.00000  Uiso   1.00
C818   C     0.80145   0.47230   0.63819   0.00000  Uiso   1.00
C819   C     0.86706   0.52636   0.64742   0.00000  Uiso   1.00
C820   C     0.79961   0.47364   0.35257   0.00000  Uiso   1.00
C821   C     0.98919   0.46942   0.44144   0.00000  Uiso   1.00
C822   C     0.67748   0.53057   0.55856   0.00000  Uiso   1.00
C823   C     0.73797   0.37558   0.46964   0.00000  Uiso   1.00
C824   C     0.83333   0.57970   0.50005   0.00000  Uiso   1.00
C825   C     0.92870   0.62441   0.53036   0.00000  Uiso   1.00
C826   C     0.73886   0.61692   0.46412   0.00000  Uiso   1.00
C827   C     0.92782   0.38308   0.53587   0.00000  Uiso   1.00
C828   C     0.89409   0.56175   0.39022   0.00000  Uiso   1.00
C829   C     0.77255   0.43828   0.60976   0.00000  Uiso   1.00
C830   C     0.90875   0.55089   0.62904   0.00000  Uiso   1.00
C831   C     0.75794   0.44909   0.37096   0.00000  Uiso   1.00
C832   C     0.73400   0.50004   0.48820   0.00000  Uiso   1.00
C833   C     0.93267   0.49995   0.51180   0.00000  Uiso   1.00
C834   C     0.67928   0.49435   0.48265   0.00000  Uiso   1.00
C835   C     0.98738   0.50564   0.51735   0.00000  Uiso   1.00
C836   C     0.78698   0.35343   0.48285   0.00000  Uiso   1.00
C837   C     0.87969   0.64657   0.51715   0.00000  Uiso   1.00
C838   C     0.78691   0.64314   0.48174   0.00000  Uiso   1.00
H839   H     0.99834   0.47844   0.40855   0.00000  Uiso   1.00
H840   H     0.76353   0.43779   0.40493   0.00000  Uiso   1.00
H841   H     0.66836   0.52152   0.59145   0.00000  Uiso   1.00
H842   H     0.71603   0.37172   0.43590   0.00000  Uiso   1.00
H843   H     0.95066   0.62828   0.56410   0.00000  Uiso   1.00
H844   H     0.73323   0.58582   0.47710   0.00000  Uiso   1.00
H845   H     0.93342   0.41420   0.52291   0.00000  Uiso   1.00
H846   H     0.91709   0.55546   0.42231   0.00000  Uiso   1.00
H847   H     0.74936   0.44462   0.57778   0.00000  Uiso   1.00
H848   H     0.90313   0.56224   0.59509   0.00000  Uiso   1.00
N849   N     0.83332   0.49999   0.61907   0.00000  Uiso   1.00
N850   N     0.83335   0.50001   0.38093   0.00000  Uiso   1.00
O851   O     0.83333   0.43892   0.53821   0.00000  Uiso   1.00
O852   O     0.70492   0.56215   0.55568   0.00000  Uiso   1.00
O853   O     0.72174   0.39822   0.49692   0.00000  Uiso   1.00
O854   O     0.94491   0.60175   0.50308   0.00000  Uiso   1.00
O855   O     0.70594   0.62894   0.43401   0.00000  Uiso   1.00
O856   O     0.96077   0.37105   0.56594   0.00000  Uiso   1.00
O857   O     0.89199   0.59802   0.37769   0.00000  Uiso   1.00
O858   O     0.77481   0.40199   0.62218   0.00000  Uiso   1.00
O859   O     0.95145   0.55780   0.65182   0.00000  Uiso   1.00
O860   O     0.71526   0.44210   0.34816   0.00000  Uiso   1.00
O861   O     0.83334   0.56108   0.46179   0.00000  Uiso   1.00
O862   O     0.83333   0.43893   0.46176   0.00000  Uiso   1.00
O863   O     0.83334   0.56107   0.53824   0.00000  Uiso   1.00
O864   O     0.75725   0.50000   0.52928   0.00000  Uiso   1.00
O865   O     0.90942   0.50000   0.47072   0.00000  Uiso   1.00
O866   O     0.75725   0.50000   0.45284   0.00000  Uiso   1.00
O867   O     0.90942   0.50000   0.54716   0.00000  Uiso   1.00
O868   O     0.96172   0.43785   0.44431   0.00000  Uiso   1.00
Zn869  Zn    0.83333   0.49999   0.55104   0.00000  Uiso   1.00
Zn870  Zn    0.83333   0.50001   0.44896   0.00000  Uiso   1.00
C871   C     0.16667   0.75363   0.49995   0.00000  Uiso   1.00
C872   C     0.21310   0.69019   0.51826   0.00000  Uiso   1.00
C873   C     0.16652   0.95732   0.49982   0.00000  Uiso   1.00
C874   C     0.16683   0.70935   0.50018   0.00000  Uiso   1.00
C875   C     0.19854   0.86104   0.36181   0.00000  Uiso   1.00
C876   C     0.13478   0.80563   0.63819   0.00000  Uiso   1.00
C877   C     0.20040   0.85970   0.64742   0.00000  Uiso   1.00
C878   C     0.13294   0.80697   0.35257   0.00000  Uiso   1.00
C879   C     0.32252   0.80275   0.44144   0.00000  Uiso   1.00
C880   C     0.01081   0.86391   0.55856   0.00000  Uiso   1.00
C881   C     0.07131   0.70891   0.46964   0.00000  Uiso   1.00
C882   C     0.16666   0.91303   0.50005   0.00000  Uiso   1.00
C883   C     0.26203   0.95775   0.53036   0.00000  Uiso   1.00
C884   C     0.07219   0.95025   0.46412   0.00000  Uiso   1.00
C885   C     0.26116   0.71641   0.53587   0.00000  Uiso   1.00
C886   C     0.22743   0.89508   0.39022   0.00000  Uiso   1.00
C887   C     0.10588   0.77161   0.60976   0.00000  Uiso   1.00
C888   C     0.24208   0.88423   0.62904   0.00000  Uiso   1.00
C889   C     0.09127   0.78242   0.37096   0.00000  Uiso   1.00
C890   C     0.06733   0.83337   0.48820   0.00000  Uiso   1.00
C891   C     0.26600   0.83329   0.51180   0.00000  Uiso   1.00
C892   C     0.01262   0.82769   0.48265   0.00000  Uiso   1.00
C893   C     0.32072   0.83897   0.51735   0.00000  Uiso   1.00
C894   C     0.12031   0.68676   0.48285   0.00000  Uiso   1.00
C895   C     0.21303   0.97990   0.51715   0.00000  Uiso   1.00
C896   C     0.12025   0.97648   0.48174   0.00000  Uiso   1.00
H897   H     0.33167   0.81178   0.40855   0.00000  Uiso   1.00
H898   H     0.09686   0.77112   0.40493   0.00000  Uiso   1.00
H899   H     0.00170   0.85486   0.59145   0.00000  Uiso   1.00
H900   H     0.04937   0.70505   0.43590   0.00000  Uiso   1.00
H901   H     0.28399   0.96161   0.56410   0.00000  Uiso   1.00
H902   H     0.06656   0.91915   0.47710   0.00000  Uiso   1.00
H903   H     0.26676   0.74753   0.52291   0.00000  Uiso   1.00
H904   H     0.25043   0.88879   0.42231   0.00000  Uiso   1.00
H905   H     0.08270   0.77795   0.57778   0.00000  Uiso   1.00
H906   H     0.23647   0.89558   0.59509   0.00000  Uiso   1.00
N907   N     0.16665   0.83332   0.61907   0.00000  Uiso   1.00
N908   N     0.16668   0.83334   0.38093   0.00000  Uiso   1.00
O909   O     0.16666   0.77225   0.53821   0.00000  Uiso   1.00
O910   O     0.03826   0.89548   0.55568   0.00000  Uiso   1.00
O911   O     0.05507   0.73156   0.49692   0.00000  Uiso   1.00
O912   O     0.27824   0.93508   0.50308   0.00000  Uiso   1.00
O913   O     0.03928   0.96227   0.43401   0.00000  Uiso   1.00
O914   O     0.29410   0.70438   0.56594   0.00000  Uiso   1.00
O915   O     0.22533   0.93136   0.37769   0.00000  Uiso   1.00
O916   O     0.10815   0.73532   0.62218   0.00000  Uiso   1.00
O917   O     0.28478   0.89113   0.65182   0.00000  Uiso   1.00
O918   O     0.04859   0.77544   0.34816   0.00000  Uiso   1.00
O919   O     0.16667   0.89442   0.46179   0.00000  Uiso   1.00
O920   O     0.16666   0.77226   0.46176   0.00000  Uiso   1.00
O921   O     0.16667   0.89441   0.53824   0.00000  Uiso   1.00
O922   O     0.09058   0.83333   0.52928   0.00000  Uiso   1.00
O923   O     0.24275   0.83334   0.47072   0.00000  Uiso   1.00
O924   O     0.09058   0.83334   0.45284   0.00000  Uiso   1.00
O925   O     0.24275   0.83333   0.54716   0.00000  Uiso   1.00
O926   O     0.29505   0.77118   0.44431   0.00000  Uiso   1.00
Zn927  Zn    0.16667   0.83333   0.55104   0.00000  Uiso   1.00
Zn928  Zn    0.16667   0.83334   0.44896   0.00000  Uiso   1.00
C929   C     0.50000   0.75363   0.49995   0.00000  Uiso   1.00
C930   C     0.54643   0.69019   0.51826   0.00000  Uiso   1.00
C931   C     0.49985   0.95732   0.49982   0.00000  Uiso   1.00
C932   C     0.50016   0.70935   0.50018   0.00000  Uiso   1.00
C933   C     0.53187   0.86104   0.36181   0.00000  Uiso   1.00
C934   C     0.46812   0.80563   0.63819   0.00000  Uiso   1.00
C935   C     0.53373   0.85970   0.64742   0.00000  Uiso   1.00
C936   C     0.46627   0.80697   0.35257   0.00000  Uiso   1.00
C937   C     0.65585   0.80275   0.44144   0.00000  Uiso   1.00
C938   C     0.34415   0.86391   0.55856   0.00000  Uiso   1.00
C939   C     0.40464   0.70891   0.46964   0.00000  Uiso   1.00
C940   C     0.50000   0.91303   0.50005   0.00000  Uiso   1.00
C941   C     0.59537   0.95775   0.53036   0.00000  Uiso   1.00
C942   C     0.40552   0.95025   0.46412   0.00000  Uiso   1.00
C943   C     0.59449   0.71641   0.53587   0.00000  Uiso   1.00
C944   C     0.56076   0.89508   0.39022   0.00000  Uiso   1.00
C945   C     0.43921   0.77161   0.60976   0.00000  Uiso   1.00
C946   C     0.57541   0.88423   0.62904   0.00000  Uiso   1.00
C947   C     0.42460   0.78242   0.37096   0.00000  Uiso   1.00
C948   C     0.40067   0.83337   0.48820   0.00000  Uiso   1.00
C949   C     0.59933   0.83329   0.51180   0.00000  Uiso   1.00
C950   C     0.34595   0.82769   0.48265   0.00000  Uiso   1.00
C951   C     0.65405   0.83897   0.51735   0.00000  Uiso   1.00
C952   C     0.45365   0.68676   0.48285   0.00000  Uiso   1.00
C953   C     0.54636   0.97990   0.51715   0.00000  Uiso   1.00
C954   C     0.45358   0.97648   0.48174   0.00000  Uiso   1.00
H955   H     0.66500   0.81178   0.40855   0.00000  Uiso   1.00
H956   H     0.43019   0.77112   0.40493   0.00000  Uiso   1.00
H957   H     0.33503   0.85486   0.59145   0.00000  Uiso   1.00
H958   H     0.38270   0.70505   0.43590   0.00000  Uiso   1.00
H959   H     0.61732   0.96161   0.56410   0.00000  Uiso   1.00
H960   H     0.39989   0.91915   0.47710   0.00000  Uiso   1.00
H961   H     0.60009   0.74753   0.52291   0.00000  Uiso   1.00
H962   H     0.58376   0.88879   0.42231   0.00000  Uiso   1.00
H963   H     0.41603   0.77795   0.57778   0.00000  Uiso   1.00
H964   H     0.56980   0.89558   0.59509   0.00000  Uiso   1.00
N965   N     0.49999   0.83332   0.61907   0.00000  Uiso   1.00
N966   N     0.50001   0.83334   0.38093   0.00000  Uiso   1.00
O967   O     0.50000   0.77225   0.53821   0.00000  Uiso   1.00
O968   O     0.37159   0.89548   0.55568   0.00000  Uiso   1.00
O969   O     0.38840   0.73156   0.49692   0.00000  Uiso   1.00
O970   O     0.61157   0.93508   0.50308   0.00000  Uiso   1.00
O971   O     0.37261   0.96227   0.43401   0.00000  Uiso   1.00
O972   O     0.62744   0.70438   0.56594   0.00000  Uiso   1.00
O973   O     0.55866   0.93136   0.37769   0.00000  Uiso   1.00
O974   O     0.44148   0.73532   0.62218   0.00000  Uiso   1.00
O975   O     0.61811   0.89113   0.65182   0.00000  Uiso   1.00
O976   O     0.38193   0.77544   0.34816   0.00000  Uiso   1.00
O977   O     0.50000   0.89442   0.46179   0.00000  Uiso   1.00
O978   O     0.50000   0.77226   0.46176   0.00000  Uiso   1.00
O979   O     0.50000   0.89441   0.53824   0.00000  Uiso   1.00
O980   O     0.42392   0.83333   0.52928   0.00000  Uiso   1.00
O981   O     0.57608   0.83334   0.47072   0.00000  Uiso   1.00
O982   O     0.42392   0.83334   0.45284   0.00000  Uiso   1.00
O983   O     0.57608   0.83333   0.54716   0.00000  Uiso   1.00
O984   O     0.62839   0.77118   0.44431   0.00000  Uiso   1.00
Zn985  Zn    0.50000   0.83333   0.55104   0.00000  Uiso   1.00
Zn986  Zn    0.50000   0.83334   0.44896   0.00000  Uiso   1.00
C987   C     0.83334   0.75363   0.49995   0.00000  Uiso   1.00
C988   C     0.87976   0.69019   0.51826   0.00000  Uiso   1.00
C989   C     0.83318   0.95732   0.49982   0.00000  Uiso   1.00
C990   C     0.83349   0.70935   0.50018   0.00000  Uiso   1.00
C991   C     0.86521   0.86104   0.36181   0.00000  Uiso   1.00
C992   C     0.80145   0.80563   0.63819   0.00000  Uiso   1.00
C993   C     0.86706   0.85970   0.64742   0.00000  Uiso   1.00
C994   C     0.79961   0.80697   0.35257   0.00000  Uiso   1.00
C995   C     0.98919   0.80275   0.44144   0.00000  Uiso   1.00
C996   C     0.67748   0.86391   0.55856   0.00000  Uiso   1.00
C997   C     0.73797   0.70891   0.46964   0.00000  Uiso   1.00
C998   C     0.83333   0.91303   0.50005   0.00000  Uiso   1.00
C999   C     0.92870   0.95775   0.53036   0.00000  Uiso   1.00
C1000  C     0.73886   0.95025   0.46412   0.00000  Uiso   1.00
C1001  C     0.92782   0.71641   0.53587   0.00000  Uiso   1.00
C1002  C     0.89409   0.89508   0.39022   0.00000  Uiso   1.00
C1003  C     0.77255   0.77161   0.60976   0.00000  Uiso   1.00
C1004  C     0.90875   0.88423   0.62904   0.00000  Uiso   1.00
C1005  C     0.75794   0.78242   0.37096   0.00000  Uiso   1.00
C1006  C     0.73400   0.83337   0.48820   0.00000  Uiso   1.00
C1007  C     0.93267   0.83329   0.51180   0.00000  Uiso   1.00
C1008  C     0.67928   0.82769   0.48265   0.00000  Uiso   1.00
C1009  C     0.98738   0.83897   0.51735   0.00000  Uiso   1.00
C1010  C     0.78698   0.68676   0.48285   0.00000  Uiso   1.00
C1011  C     0.87969   0.97990   0.51715   0.00000  Uiso   1.00
C1012  C     0.78691   0.97648   0.48174   0.00000  Uiso   1.00
H1013  H     0.99834   0.81178   0.40855   0.00000  Uiso   1.00
H1014  H     0.76353   0.77112   0.40493   0.00000  Uiso   1.00
H1015  H     0.66836   0.85486   0.59145   0.00000  Uiso   1.00
H1016  H     0.71603   0.70505   0.43590   0.00000  Uiso   1.00
H1017  H     0.95066   0.96161   0.56410   0.00000  Uiso   1.00
H1018  H     0.73323   0.91915   0.47710   0.00000  Uiso   1.00
H1019  H     0.93342   0.74753   0.52291   0.00000  Uiso   1.00
H1020  H     0.91709   0.88879   0.42231   0.00000  Uiso   1.00
H1021  H     0.74936   0.77795   0.57778   0.00000  Uiso   1.00
H1022  H     0.90313   0.89558   0.59509   0.00000  Uiso   1.00
N1023  N     0.83332   0.83332   0.61907   0.00000  Uiso   1.00
N1024  N     0.83335   0.83334   0.38093   0.00000  Uiso   1.00
O1025  O     0.83333   0.77225   0.53821   0.00000  Uiso   1.00
O1026  O     0.70492   0.89548   0.55568   0.00000  Uiso   1.00
O1027  O     0.72174   0.73156   0.49692   0.00000  Uiso   1.00
O1028  O     0.94491   0.93508   0.50308   0.00000  Uiso   1.00
O1029  O     0.70594   0.96227   0.43401   0.00000  Uiso   1.00
O1030  O     0.96077   0.70438   0.56594   0.00000  Uiso   1.00
O1031  O     0.89199   0.93136   0.37769   0.00000  Uiso   1.00
O1032  O     0.77481   0.73532   0.62218   0.00000  Uiso   1.00
O1033  O     0.95145   0.89113   0.65182   0.00000  Uiso   1.00
O1034  O     0.71526   0.77544   0.34816   0.00000  Uiso   1.00
O1035  O     0.83334   0.89442   0.46179   0.00000  Uiso   1.00
O1036  O     0.83333   0.77226   0.46176   0.00000  Uiso   1.00
O1037  O     0.83334   0.89441   0.53824   0.00000  Uiso   1.00
O1038  O     0.75725   0.83333   0.52928   0.00000  Uiso   1.00
O1039  O     0.90942   0.83334   0.47072   0.00000  Uiso   1.00
O1040  O     0.75725   0.83334   0.45284   0.00000  Uiso   1.00
O1041  O     0.90942   0.83333   0.54716   0.00000  Uiso   1.00
O1042  O     0.96172   0.77118   0.44431   0.00000  Uiso   1.00
Zn1043 Zn    0.83333   0.83333   0.55104   0.00000  Uiso   1.00
Zn1044 Zn    0.83333   0.83334   0.44896   0.00000  Uiso   1.00
C1045  C     0.16667   0.08697   0.83328   0.00000  Uiso   1.00
C1046  C     0.21310   0.02352   0.85159   0.00000  Uiso   1.00
C1047  C     0.16652   0.29065   0.83315   0.00000  Uiso   1.00
C1048  C     0.16683   0.04268   0.83352   0.00000  Uiso   1.00
C1049  C     0.19854   0.19438   0.69514   0.00000  Uiso   1.00
C1050  C     0.13478   0.13897   0.97152   0.00000  Uiso   1.00
C1051  C     0.20040   0.19303   0.98076   0.00000  Uiso   1.00
C1052  C     0.13294   0.14030   0.68591   0.00000  Uiso   1.00
C1053  C     0.32252   0.13608   0.77478   0.00000  Uiso   1.00
C1054  C     0.01081   0.19724   0.89189   0.00000  Uiso   1.00
C1055  C     0.07131   0.04225   0.80297   0.00000  Uiso   1.00
C1056  C     0.16666   0.24636   0.83339   0.00000  Uiso   1.00
C1057  C     0.26203   0.29108   0.86369   0.00000  Uiso   1.00
C1058  C     0.07219   0.28359   0.79745   0.00000  Uiso   1.00
C1059  C     0.26116   0.04975   0.86920   0.00000  Uiso   1.00
C1060  C     0.22743   0.22842   0.72355   0.00000  Uiso   1.00
C1061  C     0.10588   0.10495   0.94310   0.00000  Uiso   1.00
C1062  C     0.24208   0.21756   0.96237   0.00000  Uiso   1.00
C1063  C     0.09127   0.11575   0.70430   0.00000  Uiso   1.00
C1064  C     0.06733   0.16671   0.82154   0.00000  Uiso   1.00
C1065  C     0.26600   0.16662   0.84513   0.00000  Uiso   1.00
C1066  C     0.01262   0.16102   0.81598   0.00000  Uiso   1.00
C1067  C     0.32072   0.17230   0.85068   0.00000  Uiso   1.00
C1068  C     0.12031   0.02010   0.81619   0.00000  Uiso   1.00
C1069  C     0.21303   0.31323   0.85048   0.00000  Uiso   1.00
C1070  C     0.12025   0.30981   0.81507   0.00000  Uiso   1.00
H1071  H     0.33167   0.14511   0.74188   0.00000  Uiso   1.00
H1072  H     0.09686   0.10446   0.73826   0.00000  Uiso   1.00
H1073  H     0.00170   0.18819   0.92479   0.00000  Uiso   1.00
H1074  H     0.04937   0.03839   0.76923   0.00000  Uiso   1.00
H1075  H     0.28399   0.29495   0.89743   0.00000  Uiso   1.00
H1076  H     0.06656   0.25248   0.81043   0.00000  Uiso   1.00
H1077  H     0.26676   0.08087   0.85625   0.00000  Uiso   1.00
H1078  H     0.25043   0.22212   0.75565   0.00000  Uiso   1.00
H1079  H     0.08270   0.11128   0.91111   0.00000  Uiso   1.00
H1080  H     0.23647   0.22891   0.92843   0.00000  Uiso   1.00
N1081  N     0.16665   0.16666   0.95240   0.00000  Uiso   1.00
N1082  N     0.16668   0.16668   0.71427   0.00000  Uiso   1.00
O1083  O     0.16666   0.10558   0.87154   0.00000  Uiso   1.00
O1084  O     0.03826   0.22882   0.88902   0.00000  Uiso   1.00
O1085  O     0.05507   0.06489   0.83025   0.00000  Uiso   1.00
O1086  O     0.27824   0.26841   0.83641   0.00000  Uiso   1.00
O1087  O     0.03928   0.29561   0.76734   0.00000  Uiso   1.00
O1088  O     0.29410   0.03771   0.89928   0.00000  Uiso   1.00
O1089  O     0.22533   0.26469   0.71102   0.00000  Uiso   1.00
O1090  O     0.10815   0.06865   0.95551   0.00000  Uiso   1.00
O1091  O     0.28478   0.22447   0.98515   0.00000  Uiso   1.00
O1092  O     0.04859   0.10877   0.68150   0.00000  Uiso   1.00
O1093  O     0.16667   0.22775   0.79513   0.00000  Uiso   1.00
O1094  O     0.16666   0.10559   0.79510   0.00000  Uiso   1.00
O1095  O     0.16667   0.22774   0.87157   0.00000  Uiso   1.00
O1096  O     0.09058   0.16666   0.86261   0.00000  Uiso   1.00
O1097  O     0.24275   0.16667   0.80405   0.00000  Uiso   1.00
O1098  O     0.09058   0.16667   0.78617   0.00000  Uiso   1.00
O1099  O     0.24275   0.16666   0.88050   0.00000  Uiso   1.00
O1100  O     0.29505   0.10452   0.77764   0.00000  Uiso   1.00
Zn1101 Zn    0.16667   0.16666   0.88437   0.00000  Uiso   1.00
Zn1102 Zn    0.16667   0.16667   0.78229   0.00000  Uiso   1.00
C1103  C     0.50000   0.08697   0.83328   0.00000  Uiso   1.00
C1104  C     0.54643   0.02352   0.85159   0.00000  Uiso   1.00
C1105  C     0.49985   0.29065   0.83315   0.00000  Uiso   1.00
C1106  C     0.50016   0.04268   0.83352   0.00000  Uiso   1.00
C1107  C     0.53187   0.19438   0.69514   0.00000  Uiso   1.00
C1108  C     0.46812   0.13897   0.97152   0.00000  Uiso   1.00
C1109  C     0.53373   0.19303   0.98076   0.00000  Uiso   1.00
C1110  C     0.46627   0.14030   0.68591   0.00000  Uiso   1.00
C1111  C     0.65585   0.13608   0.77478   0.00000  Uiso   1.00
C1112  C     0.34415   0.19724   0.89189   0.00000  Uiso   1.00
C1113  C     0.40464   0.04225   0.80297   0.00000  Uiso   1.00
C1114  C     0.50000   0.24636   0.83339   0.00000  Uiso   1.00
C1115  C     0.59537   0.29108   0.86369   0.00000  Uiso   1.00
C1116  C     0.40552   0.28359   0.79745   0.00000  Uiso   1.00
C1117  C     0.59449   0.04975   0.86920   0.00000  Uiso   1.00
C1118  C     0.56076   0.22842   0.72355   0.00000  Uiso   1.00
C1119  C     0.43921   0.10495   0.94310   0.00000  Uiso   1.00
C1120  C     0.57541   0.21756   0.96237   0.00000  Uiso   1.00
C1121  C     0.42460   0.11575   0.70430   0.00000  Uiso   1.00
C1122  C     0.40067   0.16671   0.82154   0.00000  Uiso   1.00
C1123  C     0.59933   0.16662   0.84513   0.00000  Uiso   1.00
C1124  C     0.34595   0.16102   0.81598   0.00000  Uiso   1.00
C1125  C     0.65405   0.17230   0.85068   0.00000  Uiso   1.00
C1126  C     0.45365   0.02010   0.81619   0.00000  Uiso   1.00
C1127  C     0.54636   0.31323   0.85048   0.00000  Uiso   1.00
C1128  C     0.45358   0.30981   0.81507   0.00000  Uiso   1.00
H1129  H     0.66500   0.14511   0.74188   0.00000  Uiso   1.00
H1130  H     0.43019   0.10446   0.73826   0.00000  Uiso   1.00
H1131  H     0.33503   0.18819   0.92479   0.00000  Uiso   1.00
H1132  H     0.38270   0.03839   0.76923   0.00000  Uiso   1.00
H1133  H     0.61732   0.29495   0.89743   0.00000  Uiso   1.00
H1134  H     0.39989   0.25248   0.81043   0.00000  Uiso   1.00
H1135  H     0.60009   0.08087   0.85625   0.00000  Uiso   1.00
H1136  H     0.58376   0.22212   0.75565   0.00000  Uiso   1.00
H1137  H     0.41603   0.11128   0.91111   0.00000  Uiso   1.00
H1138  H     0.56980   0.22891   0.92843   0.00000  Uiso   1.00
N1139  N     0.49999   0.16666   0.95240   0.00000  Uiso   1.00
N1140  N     0.50001   0.16668   0.71427   0.00000  Uiso   1.00
O1141  O     0.50000   0.10558   0.87154   0.00000  Uiso   1.00
O1142  O     0.37159   0.22882   0.88902   0.00000  Uiso   1.00
O1143  O     0.38840   0.06489   0.83025   0.00000  Uiso   1.00
O1144  O     0.61157   0.26841   0.83641   0.00000  Uiso   1.00
O1145  O     0.37261   0.29561   0.76734   0.00000  Uiso   1.00
O1146  O     0.62744   0.03771   0.89928   0.00000  Uiso   1.00
O1147  O     0.55866   0.26469   0.71102   0.00000  Uiso   1.00
O1148  O     0.44148   0.06865   0.95551   0.00000  Uiso   1.00
O1149  O     0.61811   0.22447   0.98515   0.00000  Uiso   1.00
O1150  O     0.38193   0.10877   0.68150   0.00000  Uiso   1.00
O1151  O     0.50000   0.22775   0.79513   0.00000  Uiso   1.00
O1152  O     0.50000   0.10559   0.79510   0.00000  Uiso   1.00
O1153  O     0.50000   0.22774   0.87157   0.00000  Uiso   1.00
O1154  O     0.42392   0.16666   0.86261   0.00000  Uiso   1.00
O1155  O     0.57608   0.16667   0.80405   0.00000  Uiso   1.00
O1156  O     0.42392   0.16667   0.78617   0.00000  Uiso   1.00
O1157  O     0.57608   0.16666   0.88050   0.00000  Uiso   1.00
O1158  O     0.62839   0.10452   0.77764   0.00000  Uiso   1.00
Zn1159 Zn    0.50000   0.16666   0.88437   0.00000  Uiso   1.00
Zn1160 Zn    0.50000   0.16667   0.78229   0.00000  Uiso   1.00
C1161  C     0.83334   0.08697   0.83328   0.00000  Uiso   1.00
C1162  C     0.87976   0.02352   0.85159   0.00000  Uiso   1.00
C1163  C     0.83318   0.29065   0.83315   0.00000  Uiso   1.00
C1164  C     0.83349   0.04268   0.83352   0.00000  Uiso   1.00
C1165  C     0.86521   0.19438   0.69514   0.00000  Uiso   1.00
C1166  C     0.80145   0.13897   0.97152   0.00000  Uiso   1.00
C1167  C     0.86706   0.19303   0.98076   0.00000  Uiso   1.00
C1168  C     0.79961   0.14030   0.68591   0.00000  Uiso   1.00
C1169  C     0.98919   0.13608   0.77478   0.00000  Uiso   1.00
C1170  C     0.67748   0.19724   0.89189   0.00000  Uiso   1.00
C1171  C     0.73797   0.04225   0.80297   0.00000  Uiso   1.00
C1172  C     0.83333   0.24636   0.83339   0.00000  Uiso   1.00
C1173  C     0.92870   0.29108   0.86369   0.00000  Uiso   1.00
C1174  C     0.73886   0.28359   0.79745   0.00000  Uiso   1.00
C1175  C     0.92782   0.04975   0.86920   0.00000  Uiso   1.00
C1176  C     0.89409   0.22842   0.72355   0.00000  Uiso   1.00
C1177  C     0.77255   0.10495   0.94310   0.00000  Uiso   1.00
C1178  C     0.90875   0.21756   0.96237   0.00000  Uiso   1.00
C1179  C     0.75794   0.11575   0.70430   0.00000  Uiso   1.00
C1180  C     0.73400   0.16671   0.82154   0.00000  Uiso   1.00
C1181  C     0.93267   0.16662   0.84513   0.00000  Uiso   1.00
C1182  C     0.67928   0.16102   0.81598   0.00000  Uiso   1.00
C1183  C     0.98738   0.17230   0.85068   0.00000  Uiso   1.00
C1184  C     0.78698   0.02010   0.81619   0.00000  Uiso   1.00
C1185  C     0.87969   0.31323   0.85048   0.00000  Uiso   1.00
C1186  C     0.78691   0.30981   0.81507   0.00000  Uiso   1.00
H1187  H     0.99834   0.14511   0.74188   0.00000  Uiso   1.00
H1188  H     0.76353   0.10446   0.73826   0.00000  Uiso   1.00
H1189  H     0.66836   0.18819   0.92479   0.00000  Uiso   1.00
H1190  H     0.71603   0.03839   0.76923   0.00000  Uiso   1.00
H1191  H     0.95066   0.29495   0.89743   0.00000  Uiso   1.00
H1192  H     0.73323   0.25248   0.81043   0.00000  Uiso   1.00
H1193  H     0.93342   0.08087   0.85625   0.00000  Uiso   1.00
H1194  H     0.91709   0.22212   0.75565   0.00000  Uiso   1.00
H1195  H     0.74936   0.11128   0.91111   0.00000  Uiso   1.00
H1196  H     0.90313   0.22891   0.92843   0.00000  Uiso   1.00
N1197  N     0.83332   0.16666   0.95240   0.00000  Uiso   1.00
N1198  N     0.83335   0.16668   0.71427   0.00000  Uiso   1.00
O1199  O     0.83333   0.10558   0.87154   0.00000  Uiso   1.00
O1200  O     0.70492   0.22882   0.88902   0.00000  Uiso   1.00
O1201  O     0.72174   0.06489   0.83025   0.00000  Uiso   1.00
O1202  O     0.94491   0.26841   0.83641   0.00000  Uiso   1.00
O1203  O     0.70594   0.29561   0.76734   0.00000  Uiso   1.00
O1204  O     0.96077   0.03771   0.89928   0.00000  Uiso   1.00
O1205  O     0.89199   0.26469   0.71102   0.00000  Uiso   1.00
O1206  O     0.77481   0.06865   0.95551   0.00000  Uiso   1.00
O1207  O     0.95145   0.22447   0.98515   0.00000  Uiso   1.00
O1208  O     0.71526   0.10877   0.68150   0.00000  Uiso   1.00
O1209  O     0.83334   0.22775   0.79513   0.00000  Uiso   1.00
O1210  O     0.83333   0.10559   0.79510   0.00000  Uiso   1.00
O1211  O     0.83334   0.22774   0.87157   0.00000  Uiso   1.00
O1212  O     0.75725   0.16666   0.86261   0.00000  Uiso   1.00
O1213  O     0.90942   0.16667   0.80405   0.00000  Uiso   1.00
O1214  O     0.75725   0.16667   0.78617   0.00000  Uiso   1.00
O1215  O     0.90942   0.16666   0.88050   0.00000  Uiso   1.00
O1216  O     0.96172   0.10452   0.77764   0.00000  Uiso   1.00
Zn1217 Zn    0.83333   0.16666   0.88437   0.00000  Uiso   1.00
Zn1218 Zn    0.83333   0.16667   0.78229   0.00000  Uiso   1.00
C1219  C     0.16667   0.42030   0.83328   0.00000  Uiso   1.00
C1220  C     0.21310   0.35685   0.85159   0.00000  Uiso   1.00
C1221  C     0.16652   0.62398   0.83315   0.00000  Uiso   1.00
C1222  C     0.16683   0.37602   0.83352   0.00000  Uiso   1.00
C1223  C     0.19854   0.52771   0.69514   0.00000  Uiso   1.00
C1224  C     0.13478   0.47230   0.97152   0.00000  Uiso   1.00
C1225  C     0.20040   0.52636   0.98076   0.00000  Uiso   1.00
C1226  C     0.13294   0.47364   0.68591   0.00000  Uiso   1.00
C1227  C     0.32252   0.46942   0.77478   0.00000  Uiso   1.00
C1228  C     0.01081   0.53057   0.89189   0.00000  Uiso   1.00
C1229  C     0.07131   0.37558   0.80297   0.00000  Uiso   1.00
C1230  C     0.16666   0.57970   0.83339   0.00000  Uiso   1.00
C1231  C     0.26203   0.62441   0.86369   0.00000  Uiso   1.00
C1232  C     0.07219   0.61692   0.79745   0.00000  Uiso   1.00
C1233  C     0.26116   0.38308   0.86920   0.00000  Uiso   1.00
C1234  C     0.22743   0.56175   0.72355   0.00000  Uiso   1.00
C1235  C     0.10588   0.43828   0.94310   0.00000  Uiso   1.00
C1236  C     0.24208   0.55089   0.96237   0.00000  Uiso   1.00
C1237  C     0.09127   0.44909   0.70430   0.00000  Uiso   1.00
C1238  C     0.06733   0.50004   0.82154   0.00000  Uiso   1.00
C1239  C     0.26600   0.49995   0.84513   0.00000  Uiso   1.00
C1240  C     0.01262   0.49435   0.81598   0.00000  Uiso   1.00
C1241  C     0.32072   0.50564   0.85068   0.00000  Uiso   1.00
C1242  C     0.12031   0.35343   0.81619   0.00000  Uiso   1.00
C1243  C     0.21303   0.64657   0.85048   0.00000  Uiso   1.00
C1244  C     0.12025   0.64314   0.81507   0.00000  Uiso   1.00
H1245  H     0.33167   0.47844   0.74188   0.00000  Uiso   1.00
H1246  H     0.09686   0.43779   0.73826   0.00000  Uiso   1.00
H1247  H     0.00170   0.52152   0.92479   0.00000  Uiso   1.00
H1248  H     0.04937   0.37172   0.76923   0.00000  Uiso   1.00
H1249  H     0.28399   0.62828   0.89743   0.00000  Uiso   1.00
H1250  H     0.06656   0.58582   0.81043   0.00000  Uiso   1.00
H1251  H     0.26676   0.41420   0.85625   0.00000  Uiso   1.00
H1252  H     0.25043   0.55546   0.75565   0.00000  Uiso   1.00
H1253  H     0.08270   0.44462   0.91111   0.00000  Uiso   1.00
H1254  H     0.23647   0.56224   0.92843   0.00000  Uiso   1.00
N1255  N     0.16665   0.49999   0.95240   0.00000  Uiso   1.00
N1256  N     0.16668   0.50001   0.71427   0.00000  Uiso   1.00
O1257  O     0.16666   0.43892   0.87154   0.00000  Uiso   1.00
O1258  O     0.03826   0.56215   0.88902   0.00000  Uiso   1.00
O1259  O     0.05507   0.39822   0.83025   0.00000  Uiso   1.00
O1260  O     0.27824   0.60175   0.83641   0.00000  Uiso   1.00
O1261  O     0.03928   0.62894   0.76734   0.00000  Uiso   1.00
O1262  O     0.29410   0.37105   0.89928   0.00000  Uiso   1.00
O1263  O     0.22533   0.59802   0.71102   0.00000  Uiso   1.00
O1264  O     0.10815   0.40199   0.95551   0.00000  Uiso   1.00
O1265  O     0.28478   0.55780   0.98515   0.00000  Uiso   1.00
O1266  O     0.04859   0.44210   0.68150   0.00000  Uiso   1.00
O1267  O     0.16667   0.56108   0.79513   0.00000  Uiso   1.00
O1268  O     0.16666   0.43893   0.79510   0.00000  Uiso   1.00
O1269  O     0.16667   0.56107   0.87157   0.00000  Uiso   1.00
O1270  O     0.09058   0.50000   0.86261   0.00000  Uiso   1.00
O1271  O     0.24275   0.50000   0.80405   0.00000  Uiso   1.00
O1272  O     0.09058   0.50000   0.78617   0.00000  Uiso   1.00
O1273  O     0.24275   0.50000   0.88050   0.00000  Uiso   1.00
O1274  O     0.29505   0.43785   0.77764   0.00000  Uiso   1.00
Zn1275 Zn    0.16667   0.49999   0.88437   0.00000  Uiso   1.00
Zn1276 Zn    0.16667   0.50001   0.78229   0.00000  Uiso   1.00
C1277  C     0.50000   0.42030   0.83328   0.00000  Uiso   1.00
C1278  C     0.54643   0.35685   0.85159   0.00000  Uiso   1.00
C1279  C     0.49985   0.62398   0.83315   0.00000  Uiso   1.00
C1280  C     0.50016   0.37602   0.83352   0.00000  Uiso   1.00
C1281  C     0.53187   0.52771   0.69514   0.00000  Uiso   1.00
C1282  C     0.46812   0.47230   0.97152   0.00000  Uiso   1.00
C1283  C     0.53373   0.52636   0.98076   0.00000  Uiso   1.00
C1284  C     0.46627   0.47364   0.68591   0.00000  Uiso   1.00
C1285  C     0.65585   0.46942   0.77478   0.00000  Uiso   1.00
C1286  C     0.34415   0.53057   0.89189   0.00000  Uiso   1.00
C1287  C     0.40464   0.37558   0.80297   0.00000  Uiso   1.00
C1288  C     0.50000   0.57970   0.83339   0.00000  Uiso   1.00
C1289  C     0.59537   0.62441   0.86369   0.00000  Uiso   1.00
C1290  C     0.40552   0.61692   0.79745   0.00000  Uiso   1.00
C1291  C     0.59449   0.38308   0.86920   0.00000  Uiso   1.00
C1292  C     0.56076   0.56175   0.72355   0.00000  Uiso   1.00
C1293  C     0.43921   0.43828   0.94310   0.00000  Uiso   1.00
C1294  C     0.57541   0.55089   0.96237   0.00000  Uiso   1.00
C1295  C     0.42460   0.44909   0.70430   0.00000  Uiso   1.00
C1296  C     0.40067   0.50004   0.82154   0.00000  Uiso   1.00
C1297  C     0.59933   0.49995   0.84513   0.00000  Uiso   1.00
C1298  C     0.34595   0.49435   0.81598   0.00000  Uiso   1.00
C1299  C     0.65405   0.50564   0.85068   0.00000  Uiso   1.00
C1300  C     0.45365   0.35343   0.81619   0.00000  Uiso   1.00
C1301  C     0.54636   0.64657   0.85048   0.00000  Uiso   1.00
C1302  C     0.45358   0.64314   0.81507   0.00000  Uiso   1.00
H1303  H     0.66500   0.47844   0.74188   0.00000  Uiso   1.00
H1304  H     0.43019   0.43779   0.73826   0.00000  Uiso   1.00
H1305  H     0.33503   0.52152   0.92479   0.00000  Uiso   1.00
H1306  H     0.38270   0.37172   0.76923   0.00000  Uiso   1.00
H1307  H     0.61732   0.62828   0.89743   0.00000  Uiso   1.00
H1308  H     0.39989   0.58582   0.81043   0.00000  Uiso   1.00
H1309  H     0.60009   0.41420   0.85625   0.00000  Uiso   1.00
H1310  H     0.58376   0.55546   0.75565   0.00000  Uiso   1.00
H1311  H     0.41603   0.44462   0.91111   0.00000  Uiso   1.00
H1312  H     0.56980   0.56224   0.92843   0.00000  Uiso   1.00
N1313  N     0.49999   0.49999   0.95240   0.00000  Uiso   1.00
N1314  N     0.50001   0.50001   0.71427   0.00000  Uiso   1.00
O1315  O     0.50000   0.43892   0.87154   0.00000  Uiso   1.00
O1316  O     0.37159   0.56215   0.88902   0.00000  Uiso   1.00
O1317  O     0.38840   0.39822   0.83025   0.00000  Uiso   1.00
O1318  O     0.61157   0.60175   0.83641   0.00000  Uiso   1.00
O1319  O     0.37261   0.62894   0.76734   0.00000  Uiso   1.00
O1320  O     0.62744   0.37105   0.89928   0.00000  Uiso   1.00
O1321  O     0.55866   0.59802   0.71102   0.00000  Uiso   1.00
O1322  O     0.44148   0.40199   0.95551   0.00000  Uiso   1.00
O1323  O     0.61811   0.55780   0.98515   0.00000  Uiso   1.00
O1324  O     0.38193   0.44210   0.68150   0.00000  Uiso   1.00
O1325  O     0.50000   0.56108   0.79513   0.00000  Uiso   1.00
O1326  O     0.50000   0.43893   0.79510   0.00000  Uiso   1.00
O1327  O     0.50000   0.56107   0.87157   0.00000  Uiso   1.00
O1328  O     0.42392   0.50000   0.86261   0.00000  Uiso   1.00
O1329  O     0.57608   0.50000   0.80405   0.00000  Uiso   1.00
O1330  O     0.42392   0.50000   0.78617   0.00000  Uiso   1.00
O1331  O     0.57608   0.50000   0.88050   0.00000  Uiso   1.00
O1332  O     0.62839   0.43785   0.77764   0.00000  Uiso   1.00
Zn1333 Zn    0.50000   0.49999   0.88437   0.00000  Uiso   1.00
Zn1334 Zn    0.50000   0.50001   0.78229   0.00000  Uiso   1.00
C1335  C     0.83334   0.42030   0.83328   0.00000  Uiso   1.00
C1336  C     0.87976   0.35685   0.85159   0.00000  Uiso   1.00
C1337  C     0.83318   0.62398   0.83315   0.00000  Uiso   1.00
C1338  C     0.83349   0.37602   0.83352   0.00000  Uiso   1.00
C1339  C     0.86521   0.52771   0.69514   0.00000  Uiso   1.00
C1340  C     0.80145   0.47230   0.97152   0.00000  Uiso   1.00
C1341  C     0.86706   0.52636   0.98076   0.00000  Uiso   1.00
C1342  C     0.79961   0.47364   0.68591   0.00000  Uiso   1.00
C1343  C     0.98919   0.46942   0.77478   0.00000  Uiso   1.00
C1344  C     0.67748   0.53057   0.89189   0.00000  Uiso   1.00
C1345  C     0.73797   0.37558   0.80297   0.00000  Uiso   1.00
C1346  C     0.83333   0.57970   0.83339   0.00000  Uiso   1.00
C1347  C     0.92870   0.62441   0.86369   0.00000  Uiso   1.00
C1348  C     0.73886   0.61692   0.79745   0.00000  Uiso   1.00
C1349  C     0.92782   0.38308   0.86920   0.00000  Uiso   1.00
C1350  C     0.89409   0.56175   0.72355   0.00000  Uiso   1.00
C1351  C     0.77255   0.43828   0.94310   0.00000  Uiso   1.00
C1352  C     0.90875   0.55089   0.96237   0.00000  Uiso   1.00
C1353  C     0.75794   0.44909   0.70430   0.00000  Uiso   1.00
C1354  C     0.73400   0.50004   0.82154   0.00000  Uiso   1.00
C1355  C     0.93267   0.49995   0.84513   0.00000  Uiso   1.00
C1356  C     0.67928   0.49435   0.81598   0.00000  Uiso   1.00
C1357  C     0.98738   0.50564   0.85068   0.00000  Uiso   1.00
C1358  C     0.78698   0.35343   0.81619   0.00000  Uiso   1.00
C1359  C     0.87969   0.64657   0.85048   0.00000  Uiso   1.00
C1360  C     0.78691   0.64314   0.81507   0.00000  Uiso   1.00
H1361  H     0.99834   0.47844   0.74188   0.00000  Uiso   1.00
H1362  H     0.76353   0.43779   0.73826   0.00000  Uiso   1.00
H1363  H     0.66836   0.52152   0.92479   0.00000  Uiso   1.00
H1364  H     0.71603   0.37172   0.76923   0.00000  Uiso   1.00
H1365  H     0.95066   0.62828   0.89743   0.00000  Uiso   1.00
H1366  H     0.73323   0.58582   0.81043   0.00000  Uiso   1.00
H1367  H     0.93342   0.41420   0.85625   0.00000  Uiso   1.00
H1368  H     0.91709   0.55546   0.75565   0.00000  Uiso   1.00
H1369  H     0.74936   0.44462   0.91111   0.00000  Uiso   1.00
H1370  H     0.90313   0.56224   0.92843   0.00000  Uiso   1.00
N1371  N     0.83332   0.49999   0.95240   0.00000  Uiso   1.00
N1372  N     0.83335   0.50001   0.71427   0.00000  Uiso   1.00
O1373  O     0.83333   0.43892   0.87154   0.00000  Uiso   1.00
O1374  O     0.70492   0.56215   0.88902   0.00000  Uiso   1.00
O1375  O     0.72174   0.39822   0.83025   0.00000  Uiso   1.00
O1376  O     0.94491   0.60175   0.83641   0.00000  Uiso   1.00
O1377  O     0.70594   0.62894   0.76734   0.00000  Uiso   1.00
O1378  O     0.96077   0.37105   0.89928   0.00000  Uiso   1.00
O1379  O     0.89199   0.59802   0.71102   0.00000  Uiso   1.00
O1380  O     0.77481   0.40199   0.95551   0.00000  Uiso   1.00
O1381  O     0.95145   0.55780   0.98515   0.00000  Uiso   1.00
O1382  O     0.71526   0.44210   0.68150   0.00000  Uiso   1.00
O1383  O     0.83334   0.56108   0.79513   0.00000  Uiso   1.00
O1384  O     0.83333   0.43893   0.79510   0.00000  Uiso   1.00
O1385  O     0.83334   0.56107   0.87157   0.00000  Uiso   1.00
O1386  O     0.75725   0.50000   0.86261   0.00000  Uiso   1.00
O1387  O     0.90942   0.50000   0.80405   0.00000  Uiso   1.00
O1388  O     0.75725   0.50000   0.78617   0.00000  Uiso   1.00
O1389  O     0.90942   0.50000   0.88050   0.00000  Uiso   1.00
O1390  O     0.96172   0.43785   0.77764   0.00000  Uiso   1.00
Zn1391 Zn    0.83333   0.49999   0.88437   0.00000  Uiso   1.00
Zn1392 Zn    0.83333   0.50001   0.78229   0.00000  Uiso   1.00
C1393  C     0.16667   0.75363   0.83328   0.00000  Uiso   1.00
C1394  C     0.21310   0.69019   0.85159   0.00000  Uiso   1.00
C1395  C     0.16652   0.95732   0.83315   0.00000  Uiso   1.00
C1396  C     0.16683   0.70935   0.83352   0.00000  Uiso   1.00
C1397  C     0.19854   0.86104   0.69514   0.00000  Uiso   1.00
C1398  C     0.13478   0.80563   0.97152   0.00000  Uiso   1.00
C1399  C     0.20040   0.85970   0.98076   0.00000  Uiso   1.00
C1400  C     0.13294   0.80697   0.68591   0.00000  Uiso   1.00
C1401  C     0.32252   0.80275   0.77478   0.00000  Uiso   1.00
C1402  C     0.01081   0.86391   0.89189   0.00000  Uiso   1.00
C1403  C     0.07131   0.70891   0.80297   0.00000  Uiso   1.00
C1404  C     0.16666   0.91303   0.83339   0.00000  Uiso   1.00
C1405  C     0.26203   0.95775   0.86369   0.00000  Uiso   1.00
C1406  C     0.07219   0.95025   0.79745   0.00000  Uiso   1.00
C1407  C     0.26116   0.71641   0.86920   0.00000  Uiso   1.00
C1408  C     0.22743   0.89508   0.72355   0.00000  Uiso   1.00
C1409  C     0.10588   0.77161   0.94310   0.00000  Uiso   1.00
C1410  C     0.24208   0.88423   0.96237   0.00000  Uiso   1.00
C1411  C     0.09127   0.78242   0.70430   0.00000  Uiso   1.00
C1412  C     0.06733   0.83337   0.82154   0.00000  Uiso   1.00
C1413  C     0.26600   0.83329   0.84513   0.00000  Uiso   1.00
C1414  C     0.01262   0.82769   0.81598   0.00000  Uiso   1.00
C1415  C     0.32072   0.83897   0.85068   0.00000  Uiso   1.00
C1416  C     0.12031   0.68676   0.81619   0.00000  Uiso   1.00
C1417  C     0.21303   0.97990   0.85048   0.00000  Uiso   1.00
C1418  C     0.12025   0.97648   0.81507   0.00000  Uiso   1.00
H1419  H     0.33167   0.81178   0.74188   0.00000  Uiso   1.00
H1420  H     0.09686   0.77112   0.73826   0.00000  Uiso   1.00
H1421  H     0.00170   0.85486   0.92479   0.00000  Uiso   1.00
H1422  H     0.04937   0.70505   0.76923   0.00000  Uiso   1.00
H1423  H     0.28399   0.96161   0.89743   0.00000  Uiso   1.00
H1424  H     0.06656   0.91915   0.81043   0.00000  Uiso   1.00
H1425  H     0.26676   0.74753   0.85625   0.00000  Uiso   1.00
H1426  H     0.25043   0.88879   0.75565   0.00000  Uiso   1.00
H1427  H     0.08270   0.77795   0.91111   0.00000  Uiso   1.00
H1428  H     0.23647   0.89558   0.92843   0.00000  Uiso   1.00
N1429  N     0.16665   0.83332   0.95240   0.00000  Uiso   1.00
N1430  N     0.16668   0.83334   0.71427   0.00000  Uiso   1.00
O1431  O     0.16666   0.77225   0.87154   0.00000  Uiso   1.00
O1432  O     0.03826   0.89548   0.88902   0.00000  Uiso   1.00
O1433  O     0.05507   0.73156   0.83025   0.00000  Uiso   1.00
O1434  O     0.27824   0.93508   0.83641   0.00000  Uiso   1.00
O1435  O     0.03928   0.96227   0.76734   0.00000  Uiso   1.00
O1436  O     0.29410   0.70438   0.89928   0.00000  Uiso   1.00
O1437  O     0.22533   0.93136   0.71102   0.00000  Uiso   1.00
O1438  O     0.10815   0.73532   0.95551   0.00000  Uiso   1.00
O1439  O     0.28478   0.89113   0.98515   0.00000  Uiso   1.00
O1440  O     0.04859   0.77544   0.68150   0.00000  Uiso   1.00
O1441  O     0.16667   0.89442   0.79513   0.00000  Uiso   1.00
O1442  O     0.16666   0.77226   0.79510   0.00000  Uiso   1.00
O1443  O     0.16667   0.89441   0.87157   0.00000  Uiso   1.00
O1444  O     0.09058   0.83333   0.86261   0.00000  Uiso   1.00
O1445  O     0.24275   0.83334   0.80405   0.00000  Uiso   1.00
O1446  O     0.09058   0.83334   0.78617   0.00000  Uiso   1.00
O1447  O     0.24275   0.83333   0.88050   0.00000  Uiso   1.00
O1448  O     0.29505   0.77118   0.77764   0.00000  Uiso   1.00
Zn1449 Zn    0.16667   0.83333   0.88437   0.00000  Uiso   1.00
Zn1450 Zn    0.16667   0.83334   0.78229   0.00000  Uiso   1.00
C1451  C     0.50000   0.75363   0.83328   0.00000  Uiso   1.00
C1452  C     0.54643   0.69019   0.85159   0.00000  Uiso   1.00
C1453  C     0.49985   0.95732   0.83315   0.00000  Uiso   1.00
C1454  C     0.50016   0.70935   0.83352   0.00000  Uiso   1.00
C1455  C     0.53187   0.86104   0.69514   0.00000  Uiso   1.00
C1456  C     0.46812   0.80563   0.97152   0.00000  Uiso   1.00
C1457  C     0.53373   0.85970   0.98076   0.00000  Uiso   1.00
C1458  C     0.46627   0.80697   0.68591   0.00000  Uiso   1.00
C1459  C     0.65585   0.80275   0.77478   0.00000  Uiso   1.00
C1460  C     0.34415   0.86391   0.89189   0.00000  Uiso   1.00
C1461  C     0.40464   0.70891   0.80297   0.00000  Uiso   1.00
C1462  C     0.50000   0.91303   0.83339   0.00000  Uiso   1.00
C1463  C     0.59537   0.95775   0.86369   0.00000  Uiso   1.00
C1464  C     0.40552   0.95025   0.79745   0.00000  Uiso   1.00
C1465  C     0.59449   0.71641   0.86920   0.00000  Uiso   1.00
C1466  C     0.56076   0.89508   0.72355   0.00000  Uiso   1.00
C1467  C     0.43921   0.77161   0.94310   0.00000  Uiso   1.00
C1468  C     0.57541   0.88423   0.96237   0.00000  Uiso   1.00
C1469  C     0.42460   0.78242   0.70430   0.00000  Uiso   1.00
C1470  C     0.40067   0.83337   0.82154   0.00000  Uiso   1.00
C1471  C     0.59933   0.83329   0.84513   0.00000  Uiso   1.00
C1472  C     0.34595   0.82769   0.81598   0.00000  Uiso   1.00
C1473  C     0.65405   0.83897   0.85068   0.00000  Uiso   1.00
C1474  C     0.45365   0.68676   0.81619   0.00000  Uiso   1.00
C1475  C     0.54636   0.97990   0.85048   0.00000  Uiso   1.00
C1476  C     0.45358   0.97648   0.81507   0.00000  Uiso   1.00
H1477  H     0.66500   0.81178   0.74188   0.00000  Uiso   1.00
H1478  H     0.43019   0.77112   0.73826   0.00000  Uiso   1.00
H1479  H     0.33503   0.85486   0.92479   0.00000  Uiso   1.00
H1480  H     0.38270   0.70505   0.76923   0.00000  Uiso   1.00
H1481  H     0.61732   0.96161   0.89743   0.00000  Uiso   1.00
H1482  H     0.39989   0.91915   0.81043   0.00000  Uiso   1.00
H1483  H     0.60009   0.74753   0.85625   0.00000  Uiso   1.00
H1484  H     0.58376   0.88879   0.75565   0.00000  Uiso   1.00
H1485  H     0.41603   0.77795   0.91111   0.00000  Uiso   1.00
H1486  H     0.56980   0.89558   0.92843   0.00000  Uiso   1.00
N1487  N     0.49999   0.83332   0.95240   0.00000  Uiso   1.00
N1488  N     0.50001   0.83334   0.71427   0.00000  Uiso   1.00
O1489  O     0.50000   0.77225   0.87154   0.00000  Uiso   1.00
O1490  O     0.37159   0.89548   0.88902   0.00000  Uiso   1.00
O1491  O     0.38840   0.73156   0.83025   0.00000  Uiso   1.00
O1492  O     0.61157   0.93508   0.83641   0.00000  Uiso   1.00
O1493  O     0.37261   0.96227   0.76734   0.00000  Uiso   1.00
O1494  O     0.62744   0.70438   0.89928   0.00000  Uiso   1.00
O1495  O     0.55866   0.93136   0.71102   0.00000  Uiso   1.00
O1496  O     0.44148   0.73532   0.95551   0.00000  Uiso   1.00
O1497  O     0.61811   0.89113   0.98515   0.00000  Uiso   1.00
O1498  O     0.38193   0.77544   0.68150   0.00000  Uiso   1.00
O1499  O     0.50000   0.89442   0.79513   0.00000  Uiso   1.00
O1500  O     0.50000   0.77226   0.79510   0.00000  Uiso   1.00
O1501  O     0.50000   0.89441   0.87157   0.00000  Uiso   1.00
O1502  O     0.42392   0.83333   0.86261   0.00000  Uiso   1.00
O1503  O     0.57608   0.83334   0.80405   0.00000  Uiso   1.00
O1504  O     0.42392   0.83334   0.78617   0.00000  Uiso   1.00
O1505  O     0.57608   0.83333   0.88050   0.00000  Uiso   1.00
O1506  O     0.62839   0.77118   0.77764   0.00000  Uiso   1.00
Zn1507 Zn    0.50000   0.83333   0.88437   0.00000  Uiso   1.00
Zn1508 Zn    0.50000   0.83334   0.78229   0.00000  Uiso   1.00
C1509  C     0.83334   0.75363   0.83328   0.00000  Uiso   1.00
C1510  C     0.87976   0.69019   0.85159   0.00000  Uiso   1.00
C1511  C     0.83318   0.95732   0.83315   0.00000  Uiso   1.00
C1512  C     0.83349   0.70935   0.83352   0.00000  Uiso   1.00
C1513  C     0.86521   0.86104   0.69514   0.00000  Uiso   1.00
C1514  C     0.80145   0.80563   0.97152   0.00000  Uiso   1.00
C1515  C     0.86706   0.85970   0.98076   0.00000  Uiso   1.00
C1516  C     0.79961   0.80697   0.68591   0.00000  Uiso   1.00
C1517  C     0.98919   0.80275   0.77478   0.00000  Uiso   1.00
C1518  C     0.67748   0.86391   0.89189   0.00000  Uiso   1.00
C1519  C     0.73797   0.70891   0.80297   0.00000  Uiso   1.00
C1520  C     0.83333   0.91303   0.83339   0.00000  Uiso   1.00
C1521  C     0.92870   0.95775   0.86369   0.00000  Uiso   1.00
C1522  C     0.73886   0.95025   0.79745   0.00000  Uiso   1.00
C1523  C     0.92782   0.71641   0.86920   0.00000  Uiso   1.00
C1524  C     0.89409   0.89508   0.72355   0.00000  Uiso   1.00
C1525  C     0.77255   0.77161   0.94310   0.00000  Uiso   1.00
C1526  C     0.90875   0.88423   0.96237   0.00000  Uiso   1.00
C1527  C     0.75794   0.78242   0.70430   0.00000  Uiso   1.00
C1528  C     0.73400   0.83337   0.82154   0.00000  Uiso   1.00
C1529  C     0.93267   0.83329   0.84513   0.00000  Uiso   1.00
C1530  C     0.67928   0.82769   0.81598   0.00000  Uiso   1.00
C1531  C     0.98738   0.83897   0.85068   0.00000  Uiso   1.00
C1532  C     0.78698   0.68676   0.81619   0.00000  Uiso   1.00
C1533  C     0.87969   0.97990   0.85048   0.00000  Uiso   1.00
C1534  C     0.78691   0.97648   0.81507   0.00000  Uiso   1.00
H1535  H     0.99834   0.81178   0.74188   0.00000  Uiso   1.00
H1536  H     0.76353   0.77112   0.73826   0.00000  Uiso   1.00
H1537  H     0.66836   0.85486   0.92479   0.00000  Uiso   1.00
H1538  H     0.71603   0.70505   0.76923   0.00000  Uiso   1.00
H1539  H     0.95066   0.96161   0.89743   0.00000  Uiso   1.00
H1540  H     0.73323   0.91915   0.81043   0.00000  Uiso   1.00
H1541  H     0.93342   0.74753   0.85625   0.00000  Uiso   1.00
H1542  H     0.91709   0.88879   0.75565   0.00000  Uiso   1.00
H1543  H     0.74936   0.77795   0.91111   0.00000  Uiso   1.00
H1544  H     0.90313   0.89558   0.92843   0.00000  Uiso   1.00
N1545  N     0.83332   0.83332   0.95240   0.00000  Uiso   1.00
N1546  N     0.83335   0.83334   0.71427   0.00000  Uiso   1.00
O1547  O     0.83333   0.77225   0.87154   0.00000  Uiso   1.00
O1548  O     0.70492   0.89548   0.88902   0.00000  Uiso   1.00
O1549  O     0.72174   0.73156   0.83025   0.00000  Uiso   1.00
O1550  O     0.94491   0.93508   0.83641   0.00000  Uiso   1.00
O1551  O     0.70594   0.96227   0.76734   0.00000  Uiso   1.00
O1552  O     0.96077   0.70438   0.89928   0.00000  Uiso   1.00
O1553  O     0.89199   0.93136   0.71102   0.00000  Uiso   1.00
O1554  O     0.77481   0.73532   0.95551   0.00000  Uiso   1.00
O1555  O     0.95145   0.89113   0.98515   0.00000  Uiso   1.00
O1556  O     0.71526   0.77544   0.68150   0.00000  Uiso   1.00
O1557  O     0.83334   0.89442   0.79513   0.00000  Uiso   1.00
O1558  O     0.83333   0.77226   0.79510   0.00000  Uiso   1.00
O1559  O     0.83334   0.89441   0.87157   0.00000  Uiso   1.00
O1560  O     0.75725   0.83333   0.86261   0.00000  Uiso   1.00
O1561  O     0.90942   0.83334   0.80405   0.00000  Uiso   1.00
O1562  O     0.75725   0.83334   0.78617   0.00000  Uiso   1.00
O1563  O     0.90942   0.83333   0.88050   0.00000  Uiso   1.00
O1564  O     0.96172   0.77118   0.77764   0.00000  Uiso   1.00
Zn1565 Zn    0.83333   0.83333   0.88437   0.00000  Uiso   1.00
Zn1566 Zn    0.83333   0.83334   0.78229   0.00000  Uiso   1.00
loop_
_geom_bond_atom_site_label_1
_geom_bond_atom_site_label_2
_geom_bond_distance
_geom_bond_site_symmetry_2
_ccdc_geom_bond_type
C1     O50     1.290   .     A
C1     C4      1.415   .     S
C1     O39     1.285   .     A
C2     C4      1.409   .     A
C2     C15     1.498   .     S
C2     C373    1.394   1_545 S
C3     C26     1.409   .     A
C3     C25     1.407   .     A
C3     C12     1.415   .     S
C4     C24     1.407   .     A
C5     N38     1.372   .     A
C5     C16     1.480   .     S
C5     C1051   1.434   1_554 S
C6     N37     1.372   .     A
C6     C17     1.480   .     S
C6     C530    1.434   .     S
C7     C18     1.484   .     S
C7     N37     1.377   .     A
C7     C527    1.434   .     S
C8     N38     1.378   .     A
C8     C19     1.484   .     S
C8     C1050   1.434   1_554 S
C9     O56     1.221   .     D
C9     H27     1.084   .     S
C9     C80     1.496   .     S
C10    H29     1.084   .     S
C10    O40     1.221   .     D
C10    C139    1.496   1_455 S
C11    O41     1.220   .     D
C11    C24     1.486   .     S
C11    H30     1.084   .     S
C12    O49     1.285   .     A
C12    O51     1.290   .     A
C13    C25     1.486   .     S
C13    O42     1.220   .     D
C13    H31     1.084   .     S
C14    C26     1.498   .     S
C14    H32     1.081   .     S
C14    O43     1.220   .     D
C15    O44     1.220   .     D
C15    H33     1.081   .     S
C16    O45     1.221   .     D
C16    H34     1.075   .     S
C17    O46     1.221   .     D
C17    H35     1.075   .     S
C18    O47     1.221   .     D
C18    H36     1.071   .     S
C19    H28     1.071   .     S
C19    O48     1.221   .     D
C20    O52     1.283   .     A
C20    O54     1.295   .     A
C20    C22     1.410   .     S
C21    C23     1.410   .     S
C21    O53     1.283   .     A
C21    O55     1.295   .     A
C22    C125    1.496   1_455 S
C22    C139    1.363   1_455 S
C23    C80     1.363   .     S
C23    C68     1.496   .     S
C24    C374    1.394   1_545 S
C25    C176    1.394   .     S
C26    C198    1.394   .     S
N37    Zn57    2.033   .     S
N38    Zn58    2.033   .     S
O39    Zn57    1.986   .     S
O49    Zn58    1.986   .     S
O50    Zn58    1.991   .     S
O51    Zn57    1.991   .     S
O52    Zn57    1.986   .     S
O53    Zn58    1.986   .     S
O54    Zn58    1.999   .     S
O55    Zn57    1.999   .     S
C59    O108    1.290   .     A
C59    C62     1.415   .     S
C59    O97     1.285   .     A
C60    C62     1.409   .     A
C60    C73     1.498   .     S
C60    C431    1.394   1_545 S
C61    C84     1.409   .     A
C61    C83     1.407   .     A
C61    C70     1.415   .     S
C62    C82     1.407   .     A
C63    N96     1.372   .     A
C63    C74     1.480   .     S
C63    C1109   1.434   1_554 S
C64    N95     1.372   .     A
C64    C75     1.480   .     S
C64    C588    1.434   .     S
C65    C76     1.484   .     S
C65    N95     1.377   .     A
C65    C585    1.434   .     S
C66    N96     1.378   .     A
C66    C77     1.484   .     S
C66    C1108   1.434   1_554 S
C67    O114    1.221   .     D
C67    H85     1.084   .     S
C67    C138    1.496   .     S
C68    H87     1.084   .     S
C68    O98     1.221   .     D
C69    O99     1.220   .     D
C69    C82     1.486   .     S
C69    H88     1.084   .     S
C70    O107    1.285   .     A
C70    O109    1.290   .     A
C71    C83     1.486   .     S
C71    O100    1.220   .     D
C71    H89     1.084   .     S
C72    C84     1.498   .     S
C72    H90     1.081   .     S
C72    O101    1.220   .     D
C73    O102    1.220   .     D
C73    H91     1.081   .     S
C74    O103    1.221   .     D
C74    H92     1.075   .     S
C75    O104    1.221   .     D
C75    H93     1.075   .     S
C76    O105    1.221   .     D
C76    H94     1.071   .     S
C77    H86     1.071   .     S
C77    O106    1.221   .     D
C78    O110    1.283   .     A
C78    O112    1.295   .     A
C78    C80     1.410   .     S
C79    C81     1.410   .     S
C79    O111    1.283   .     A
C79    O113    1.295   .     A
C81    C138    1.363   .     S
C81    C126    1.496   .     S
C82    C432    1.394   1_545 S
C83    C234    1.394   .     S
C84    C256    1.394   .     S
N95    Zn115   2.033   .     S
N96    Zn116   2.033   .     S
O97    Zn115   1.986   .     S
O107   Zn116   1.986   .     S
O108   Zn116   1.991   .     S
O109   Zn115   1.991   .     S
O110   Zn115   1.986   .     S
O111   Zn116   1.986   .     S
O112   Zn116   1.999   .     S
O113   Zn115   1.999   .     S
C117   O166    1.290   .     A
C117   C120    1.415   .     S
C117   O155    1.285   .     A
C118   C120    1.409   .     A
C118   C131    1.498   .     S
C118   C489    1.394   1_545 S
C119   C142    1.409   .     A
C119   C141    1.407   .     A
C119   C128    1.415   .     S
C120   C140    1.407   .     A
C121   N154    1.372   .     A
C121   C132    1.480   .     S
C121   C1167   1.434   1_554 S
C122   N153    1.372   .     A
C122   C133    1.480   .     S
C122   C646    1.434   .     S
C123   C134    1.484   .     S
C123   N153    1.377   .     A
C123   C643    1.434   .     S
C124   N154    1.378   .     A
C124   C135    1.484   .     S
C124   C1166   1.434   1_554 S
C125   O172    1.221   .     D
C125   H143    1.084   .     S
C125   C22     1.496   1_655 S
C126   H145    1.084   .     S
C126   O156    1.221   .     D
C127   O157    1.220   .     D
C127   C140    1.486   .     S
C127   H146    1.084   .     S
C128   O165    1.285   .     A
C128   O167    1.290   .     A
C129   C141    1.486   .     S
C129   O158    1.220   .     D
C129   H147    1.084   .     S
C130   C142    1.498   .     S
C130   H148    1.081   .     S
C130   O159    1.220   .     D
C131   O160    1.220   .     D
C131   H149    1.081   .     S
C132   O161    1.221   .     D
C132   H150    1.075   .     S
C133   O162    1.221   .     D
C133   H151    1.075   .     S
C134   O163    1.221   .     D
C134   H152    1.071   .     S
C135   H144    1.071   .     S
C135   O164    1.221   .     D
C136   O168    1.283   .     A
C136   O170    1.295   .     A
C136   C138    1.410   .     S
C137   C139    1.410   .     S
C137   O169    1.283   .     A
C137   O171    1.295   .     A
C139   C22     1.363   1_655 S
C139   C10     1.496   1_655 S
C140   C490    1.394   1_545 S
C141   C292    1.394   .     S
C142   C314    1.394   .     S
N153   Zn173   2.033   .     S
N154   Zn174   2.033   .     S
O155   Zn173   1.986   .     S
O165   Zn174   1.986   .     S
O166   Zn174   1.991   .     S
O167   Zn173   1.991   .     S
O168   Zn173   1.986   .     S
O169   Zn174   1.986   .     S
O170   Zn174   1.999   .     S
O171   Zn173   1.999   .     S
C175   O224    1.290   .     A
C175   C178    1.415   .     S
C175   O213    1.285   .     A
C176   C178    1.409   .     A
C176   C189    1.498   .     S
C177   C200    1.409   .     A
C177   C199    1.407   .     A
C177   C186    1.415   .     S
C178   C198    1.407   .     A
C179   N212    1.372   .     A
C179   C190    1.480   .     S
C179   C1225   1.434   1_554 S
C180   N211    1.372   .     A
C180   C191    1.480   .     S
C180   C704    1.434   .     S
C181   C192    1.484   .     S
C181   N211    1.377   .     A
C181   C701    1.434   .     S
C182   N212    1.378   .     A
C182   C193    1.484   .     S
C182   C1224   1.434   1_554 S
C183   O230    1.221   .     D
C183   H201    1.084   .     S
C183   C254    1.496   .     S
C184   H203    1.084   .     S
C184   O214    1.221   .     D
C184   C313    1.496   1_455 S
C185   O215    1.220   .     D
C185   C198    1.486   .     S
C185   H204    1.084   .     S
C186   O223    1.285   .     A
C186   O225    1.290   .     A
C187   C199    1.486   .     S
C187   O216    1.220   .     D
C187   H205    1.084   .     S
C188   C200    1.498   .     S
C188   H206    1.081   .     S
C188   O217    1.220   .     D
C189   O218    1.220   .     D
C189   H207    1.081   .     S
C190   O219    1.221   .     D
C190   H208    1.075   .     S
C191   O220    1.221   .     D
C191   H209    1.075   .     S
C192   O221    1.221   .     D
C192   H210    1.071   .     S
C193   H202    1.071   .     S
C193   O222    1.221   .     D
C194   O226    1.283   .     A
C194   O228    1.295   .     A
C194   C196    1.410   .     S
C195   C197    1.410   .     S
C195   O227    1.283   .     A
C195   O229    1.295   .     A
C196   C299    1.496   1_455 S
C196   C313    1.363   1_455 S
C197   C254    1.363   .     S
C197   C242    1.496   .     S
C199   C350    1.394   .     S
C200   C372    1.394   .     S
N211   Zn231   2.033   .     S
N212   Zn232   2.033   .     S
O213   Zn231   1.986   .     S
O223   Zn232   1.986   .     S
O224   Zn232   1.991   .     S
O225   Zn231   1.991   .     S
O226   Zn231   1.986   .     S
O227   Zn232   1.986   .     S
O228   Zn232   1.999   .     S
O229   Zn231   1.999   .     S
C233   O282    1.290   .     A
C233   C236    1.415   .     S
C233   O271    1.285   .     A
C234   C236    1.409   .     A
C234   C247    1.498   .     S
C235   C258    1.409   .     A
C235   C257    1.407   .     A
C235   C244    1.415   .     S
C236   C256    1.407   .     A
C237   N270    1.372   .     A
C237   C248    1.480   .     S
C237   C1283   1.434   1_554 S
C238   N269    1.372   .     A
C238   C249    1.480   .     S
C238   C762    1.434   .     S
C239   C250    1.484   .     S
C239   N269    1.377   .     A
C239   C759    1.434   .     S
C240   N270    1.378   .     A
C240   C251    1.484   .     S
C240   C1282   1.434   1_554 S
C241   O288    1.221   .     D
C241   H259    1.084   .     S
C241   C312    1.496   .     S
C242   H261    1.084   .     S
C242   O272    1.221   .     D
C243   O273    1.220   .     D
C243   C256    1.486   .     S
C243   H262    1.084   .     S
C244   O281    1.285   .     A
C244   O283    1.290   .     A
C245   C257    1.486   .     S
C245   O274    1.220   .     D
C245   H263    1.084   .     S
C246   C258    1.498   .     S
C246   H264    1.081   .     S
C246   O275    1.220   .     D
C247   O276    1.220   .     D
C247   H265    1.081   .     S
C248   O277    1.221   .     D
C248   H266    1.075   .     S
C249   O278    1.221   .     D
C249   H267    1.075   .     S
C250   O279    1.221   .     D
C250   H268    1.071   .     S
C251   H260    1.071   .     S
C251   O280    1.221   .     D
C252   O284    1.283   .     A
C252   O286    1.295   .     A
C252   C254    1.410   .     S
C253   C255    1.410   .     S
C253   O285    1.283   .     A
C253   O287    1.295   .     A
C255   C312    1.363   .     S
C255   C300    1.496   .     S
C257   C408    1.394   .     S
C258   C430    1.394   .     S
N269   Zn289   2.033   .     S
N270   Zn290   2.033   .     S
O271   Zn289   1.986   .     S
O281   Zn290   1.986   .     S
O282   Zn290   1.991   .     S
O283   Zn289   1.991   .     S
O284   Zn289   1.986   .     S
O285   Zn290   1.986   .     S
O286   Zn290   1.999   .     S
O287   Zn289   1.999   .     S
C291   O340    1.290   .     A
C291   C294    1.415   .     S
C291   O329    1.285   .     A
C292   C294    1.409   .     A
C292   C305    1.498   .     S
C293   C316    1.409   .     A
C293   C315    1.407   .     A
C293   C302    1.415   .     S
C294   C314    1.407   .     A
C295   N328    1.372   .     A
C295   C306    1.480   .     S
C295   C1341   1.434   1_554 S
C296   N327    1.372   .     A
C296   C307    1.480   .     S
C296   C820    1.434   .     S
C297   C308    1.484   .     S
C297   N327    1.377   .     A
C297   C817    1.434   .     S
C298   N328    1.378   .     A
C298   C309    1.484   .     S
C298   C1340   1.434   1_554 S
C299   O346    1.221   .     D
C299   H317    1.084   .     S
C299   C196    1.496   1_655 S
C300   H319    1.084   .     S
C300   O330    1.221   .     D
C301   O331    1.220   .     D
C301   C314    1.486   .     S
C301   H320    1.084   .     S
C302   O339    1.285   .     A
C302   O341    1.290   .     A
C303   C315    1.486   .     S
C303   O332    1.220   .     D
C303   H321    1.084   .     S
C304   C316    1.498   .     S
C304   H322    1.081   .     S
C304   O333    1.220   .     D
C305   O334    1.220   .     D
C305   H323    1.081   .     S
C306   O335    1.221   .     D
C306   H324    1.075   .     S
C307   O336    1.221   .     D
C307   H325    1.075   .     S
C308   O337    1.221   .     D
C308   H326    1.071   .     S
C309   H318    1.071   .     S
C309   O338    1.221   .     D
C310   O342    1.283   .     A
C310   O344    1.295   .     A
C310   C312    1.410   .     S
C311   C313    1.410   .     S
C311   O343    1.283   .     A
C311   O345    1.295   .     A
C313   C196    1.363   1_655 S
C313   C184    1.496   1_655 S
C315   C466    1.394   .     S
C316   C488    1.394   .     S
N327   Zn347   2.033   .     S
N328   Zn348   2.033   .     S
O329   Zn347   1.986   .     S
O339   Zn348   1.986   .     S
O340   Zn348   1.991   .     S
O341   Zn347   1.991   .     S
O342   Zn347   1.986   .     S
O343   Zn348   1.986   .     S
O344   Zn348   1.999   .     S
O345   Zn347   1.999   .     S
C349   O398    1.290   .     A
C349   C352    1.415   .     S
C349   O387    1.285   .     A
C350   C352    1.409   .     A
C350   C363    1.498   .     S
C351   C374    1.409   .     A
C351   C373    1.407   .     A
C351   C360    1.415   .     S
C352   C372    1.407   .     A
C353   N386    1.372   .     A
C353   C364    1.480   .     S
C353   C1399   1.434   1_554 S
C354   N385    1.372   .     A
C354   C365    1.480   .     S
C354   C878    1.434   .     S
C355   C366    1.484   .     S
C355   N385    1.377   .     A
C355   C875    1.434   .     S
C356   N386    1.378   .     A
C356   C367    1.484   .     S
C356   C1398   1.434   1_554 S
C357   O404    1.221   .     D
C357   H375    1.084   .     S
C357   C428    1.496   .     S
C358   H377    1.084   .     S
C358   O388    1.221   .     D
C358   C487    1.496   1_455 S
C359   O389    1.220   .     D
C359   C372    1.486   .     S
C359   H378    1.084   .     S
C360   O397    1.285   .     A
C360   O399    1.290   .     A
C361   C373    1.486   .     S
C361   O390    1.220   .     D
C361   H379    1.084   .     S
C362   C374    1.498   .     S
C362   H380    1.081   .     S
C362   O391    1.220   .     D
C363   O392    1.220   .     D
C363   H381    1.081   .     S
C364   O393    1.221   .     D
C364   H382    1.075   .     S
C365   O394    1.221   .     D
C365   H383    1.075   .     S
C366   O395    1.221   .     D
C366   H384    1.071   .     S
C367   H376    1.071   .     S
C367   O396    1.221   .     D
C368   O400    1.283   .     A
C368   O402    1.295   .     A
C368   C370    1.410   .     S
C369   C371    1.410   .     S
C369   O401    1.283   .     A
C369   O403    1.295   .     A
C370   C473    1.496   1_455 S
C370   C487    1.363   1_455 S
C371   C428    1.363   .     S
C371   C416    1.496   .     S
C373   C2      1.394   1_565 S
C374   C24     1.394   1_565 S
N385   Zn405   2.033   .     S
N386   Zn406   2.033   .     S
O387   Zn405   1.986   .     S
O397   Zn406   1.986   .     S
O398   Zn406   1.991   .     S
O399   Zn405   1.991   .     S
O400   Zn405   1.986   .     S
O401   Zn406   1.986   .     S
O402   Zn406   1.999   .     S
O403   Zn405   1.999   .     S
C407   O456    1.290   .     A
C407   C410    1.415   .     S
C407   O445    1.285   .     A
C408   C410    1.409   .     A
C408   C421    1.498   .     S
C409   C432    1.409   .     A
C409   C431    1.407   .     A
C409   C418    1.415   .     S
C410   C430    1.407   .     A
C411   N444    1.372   .     A
C411   C422    1.480   .     S
C411   C1457   1.434   1_554 S
C412   N443    1.372   .     A
C412   C423    1.480   .     S
C412   C936    1.434   .     S
C413   C424    1.484   .     S
C413   N443    1.377   .     A
C413   C933    1.434   .     S
C414   N444    1.378   .     A
C414   C425    1.484   .     S
C414   C1456   1.434   1_554 S
C415   O462    1.221   .     D
C415   H433    1.084   .     S
C415   C486    1.496   .     S
C416   H435    1.084   .     S
C416   O446    1.221   .     D
C417   O447    1.220   .     D
C417   C430    1.486   .     S
C417   H436    1.084   .     S
C418   O455    1.285   .     A
C418   O457    1.290   .     A
C419   C431    1.486   .     S
C419   O448    1.220   .     D
C419   H437    1.084   .     S
C420   C432    1.498   .     S
C420   H438    1.081   .     S
C420   O449    1.220   .     D
C421   O450    1.220   .     D
C421   H439    1.081   .     S
C422   O451    1.221   .     D
C422   H440    1.075   .     S
C423   O452    1.221   .     D
C423   H441    1.075   .     S
C424   O453    1.221   .     D
C424   H442    1.071   .     S
C425   H434    1.071   .     S
C425   O454    1.221   .     D
C426   O458    1.283   .     A
C426   O460    1.295   .     A
C426   C428    1.410   .     S
C427   C429    1.410   .     S
C427   O459    1.283   .     A
C427   O461    1.295   .     A
C429   C486    1.363   .     S
C429   C474    1.496   .     S
C431   C60     1.394   1_565 S
C432   C82     1.394   1_565 S
N443   Zn463   2.033   .     S
N444   Zn464   2.033   .     S
O445   Zn463   1.986   .     S
O455   Zn464   1.986   .     S
O456   Zn464   1.991   .     S
O457   Zn463   1.991   .     S
O458   Zn463   1.986   .     S
O459   Zn464   1.986   .     S
O460   Zn464   1.999   .     S
O461   Zn463   1.999   .     S
C465   O514    1.290   .     A
C465   C468    1.415   .     S
C465   O503    1.285   .     A
C466   C468    1.409   .     A
C466   C479    1.498   .     S
C467   C490    1.409   .     A
C467   C489    1.407   .     A
C467   C476    1.415   .     S
C468   C488    1.407   .     A
C469   N502    1.372   .     A
C469   C480    1.480   .     S
C469   C1515   1.434   1_554 S
C470   N501    1.372   .     A
C470   C481    1.480   .     S
C470   C994    1.434   .     S
C471   C482    1.484   .     S
C471   N501    1.377   .     A
C471   C991    1.434   .     S
C472   N502    1.378   .     A
C472   C483    1.484   .     S
C472   C1514   1.434   1_554 S
C473   O520    1.221   .     D
C473   H491    1.084   .     S
C473   C370    1.496   1_655 S
C474   H493    1.084   .     S
C474   O504    1.221   .     D
C475   O505    1.220   .     D
C475   C488    1.486   .     S
C475   H494    1.084   .     S
C476   O513    1.285   .     A
C476   O515    1.290   .     A
C477   C489    1.486   .     S
C477   O506    1.220   .     D
C477   H495    1.084   .     S
C478   C490    1.498   .     S
C478   H496    1.081   .     S
C478   O507    1.220   .     D
C479   O508    1.220   .     D
C479   H497    1.081   .     S
C480   O509    1.221   .     D
C480   H498    1.075   .     S
C481   O510    1.221   .     D
C481   H499    1.075   .     S
C482   O511    1.221   .     D
C482   H500    1.071   .     S
C483   H492    1.071   .     S
C483   O512    1.221   .     D
C484   O516    1.283   .     A
C484   O518    1.295   .     A
C484   C486    1.410   .     S
C485   C487    1.410   .     S
C485   O517    1.283   .     A
C485   O519    1.295   .     A
C487   C370    1.363   1_655 S
C487   C358    1.496   1_655 S
C489   C118    1.394   1_565 S
C490   C140    1.394   1_565 S
N501   Zn521   2.033   .     S
N502   Zn522   2.033   .     S
O503   Zn521   1.986   .     S
O513   Zn522   1.986   .     S
O514   Zn522   1.991   .     S
O515   Zn521   1.991   .     S
O516   Zn521   1.986   .     S
O517   Zn522   1.986   .     S
O518   Zn522   1.999   .     S
O519   Zn521   1.999   .     S
C523   O572    1.290   .     A
C523   C526    1.415   .     S
C523   O561    1.285   .     A
C524   C526    1.409   .     A
C524   C537    1.498   .     S
C524   C895    1.394   1_545 S
C525   C548    1.409   .     A
C525   C547    1.407   .     A
C525   C534    1.415   .     S
C526   C546    1.407   .     A
C527   N560    1.372   .     A
C527   C538    1.480   .     S
C528   N559    1.372   .     A
C528   C539    1.480   .     S
C528   C1052   1.434   .     S
C529   C540    1.484   .     S
C529   N559    1.377   .     A
C529   C1049   1.434   .     S
C530   N560    1.378   .     A
C530   C541    1.484   .     S
C531   O578    1.221   .     D
C531   H549    1.084   .     S
C531   C602    1.496   .     S
C532   H551    1.084   .     S
C532   O562    1.221   .     D
C532   C661    1.496   1_455 S
C533   O563    1.220   .     D
C533   C546    1.486   .     S
C533   H552    1.084   .     S
C534   O571    1.285   .     A
C534   O573    1.290   .     A
C535   C547    1.486   .     S
C535   O564    1.220   .     D
C535   H553    1.084   .     S
C536   C548    1.498   .     S
C536   H554    1.081   .     S
C536   O565    1.220   .     D
C537   O566    1.220   .     D
C537   H555    1.081   .     S
C538   O567    1.221   .     D
C538   H556    1.075   .     S
C539   O568    1.221   .     D
C539   H557    1.075   .     S
C540   O569    1.221   .     D
C540   H558    1.071   .     S
C541   H550    1.071   .     S
C541   O570    1.221   .     D
C542   O574    1.283   .     A
C542   O576    1.295   .     A
C542   C544    1.410   .     S
C543   C545    1.410   .     S
C543   O575    1.283   .     A
C543   O577    1.295   .     A
C544   C647    1.496   1_455 S
C544   C661    1.363   1_455 S
C545   C602    1.363   .     S
C545   C590    1.496   .     S
C546   C896    1.394   1_545 S
C547   C698    1.394   .     S
C548   C720    1.394   .     S
N559   Zn579   2.033   .     S
N560   Zn580   2.033   .     S
O561   Zn579   1.986   .     S
O571   Zn580   1.986   .     S
O572   Zn580   1.991   .     S
O573   Zn579   1.991   .     S
O574   Zn579   1.986   .     S
O575   Zn580   1.986   .     S
O576   Zn580   1.999   .     S
O577   Zn579   1.999   .     S
C581   O630    1.290   .     A
C581   C584    1.415   .     S
C581   O619    1.285   .     A
C582   C584    1.409   .     A
C582   C595    1.498   .     S
C582   C953    1.394   1_545 S
C583   C606    1.409   .     A
C583   C605    1.407   .     A
C583   C592    1.415   .     S
C584   C604    1.407   .     A
C585   N618    1.372   .     A
C585   C596    1.480   .     S
C586   N617    1.372   .     A
C586   C597    1.480   .     S
C586   C1110   1.434   .     S
C587   C598    1.484   .     S
C587   N617    1.377   .     A
C587   C1107   1.434   .     S
C588   N618    1.378   .     A
C588   C599    1.484   .     S
C589   O636    1.221   .     D
C589   H607    1.084   .     S
C589   C660    1.496   .     S
C590   H609    1.084   .     S
C590   O620    1.221   .     D
C591   O621    1.220   .     D
C591   C604    1.486   .     S
C591   H610    1.084   .     S
C592   O629    1.285   .     A
C592   O631    1.290   .     A
C593   C605    1.486   .     S
C593   O622    1.220   .     D
C593   H611    1.084   .     S
C594   C606    1.498   .     S
C594   H612    1.081   .     S
C594   O623    1.220   .     D
C595   O624    1.220   .     D
C595   H613    1.081   .     S
C596   O625    1.221   .     D
C596   H614    1.075   .     S
C597   O626    1.221   .     D
C597   H615    1.075   .     S
C598   O627    1.221   .     D
C598   H616    1.071   .     S
C599   H608    1.071   .     S
C599   O628    1.221   .     D
C600   O632    1.283   .     A
C600   O634    1.295   .     A
C600   C602    1.410   .     S
C601   C603    1.410   .     S
C601   O633    1.283   .     A
C601   O635    1.295   .     A
C603   C660    1.363   .     S
C603   C648    1.496   .     S
C604   C954    1.394   1_545 S
C605   C756    1.394   .     S
C606   C778    1.394   .     S
N617   Zn637   2.033   .     S
N618   Zn638   2.033   .     S
O619   Zn637   1.986   .     S
O629   Zn638   1.986   .     S
O630   Zn638   1.991   .     S
O631   Zn637   1.991   .     S
O632   Zn637   1.986   .     S
O633   Zn638   1.986   .     S
O634   Zn638   1.999   .     S
O635   Zn637   1.999   .     S
C639   O688    1.290   .     A
C639   C642    1.415   .     S
C639   O677    1.285   .     A
C640   C642    1.409   .     A
C640   C653    1.498   .     S
C640   C1011   1.394   1_545 S
C641   C664    1.409   .     A
C641   C663    1.407   .     A
C641   C650    1.415   .     S
C642   C662    1.407   .     A
C643   N676    1.372   .     A
C643   C654    1.480   .     S
C644   N675    1.372   .     A
C644   C655    1.480   .     S
C644   C1168   1.434   .     S
C645   C656    1.484   .     S
C645   N675    1.377   .     A
C645   C1165   1.434   .     S
C646   N676    1.378   .     A
C646   C657    1.484   .     S
C647   O694    1.221   .     D
C647   H665    1.084   .     S
C647   C544    1.496   1_655 S
C648   H667    1.084   .     S
C648   O678    1.221   .     D
C649   O679    1.220   .     D
C649   C662    1.486   .     S
C649   H668    1.084   .     S
C650   O687    1.285   .     A
C650   O689    1.290   .     A
C651   C663    1.486   .     S
C651   O680    1.220   .     D
C651   H669    1.084   .     S
C652   C664    1.498   .     S
C652   H670    1.081   .     S
C652   O681    1.220   .     D
C653   O682    1.220   .     D
C653   H671    1.081   .     S
C654   O683    1.221   .     D
C654   H672    1.075   .     S
C655   O684    1.221   .     D
C655   H673    1.075   .     S
C656   O685    1.221   .     D
C656   H674    1.071   .     S
C657   H666    1.071   .     S
C657   O686    1.221   .     D
C658   O690    1.283   .     A
C658   O692    1.295   .     A
C658   C660    1.410   .     S
C659   C661    1.410   .     S
C659   O691    1.283   .     A
C659   O693    1.295   .     A
C661   C544    1.363   1_655 S
C661   C532    1.496   1_655 S
C662   C1012   1.394   1_545 S
C663   C814    1.394   .     S
C664   C836    1.394   .     S
N675   Zn695   2.033   .     S
N676   Zn696   2.033   .     S
O677   Zn695   1.986   .     S
O687   Zn696   1.986   .     S
O688   Zn696   1.991   .     S
O689   Zn695   1.991   .     S
O690   Zn695   1.986   .     S
O691   Zn696   1.986   .     S
O692   Zn696   1.999   .     S
O693   Zn695   1.999   .     S
C697   O746    1.290   .     A
C697   C700    1.415   .     S
C697   O735    1.285   .     A
C698   C700    1.409   .     A
C698   C711    1.498   .     S
C699   C722    1.409   .     A
C699   C721    1.407   .     A
C699   C708    1.415   .     S
C700   C720    1.407   .     A
C701   N734    1.372   .     A
C701   C712    1.480   .     S
C702   N733    1.372   .     A
C702   C713    1.480   .     S
C702   C1226   1.434   .     S
C703   C714    1.484   .     S
C703   N733    1.377   .     A
C703   C1223   1.434   .     S
C704   N734    1.378   .     A
C704   C715    1.484   .     S
C705   O752    1.221   .     D
C705   H723    1.084   .     S
C705   C776    1.496   .     S
C706   H725    1.084   .     S
C706   O736    1.221   .     D
C706   C835    1.496   1_455 S
C707   O737    1.220   .     D
C707   C720    1.486   .     S
C707   H726    1.084   .     S
C708   O745    1.285   .     A
C708   O747    1.290   .     A
C709   C721    1.486   .     S
C709   O738    1.220   .     D
C709   H727    1.084   .     S
C710   C722    1.498   .     S
C710   H728    1.081   .     S
C710   O739    1.220   .     D
C711   O740    1.220   .     D
C711   H729    1.081   .     S
C712   O741    1.221   .     D
C712   H730    1.075   .     S
C713   O742    1.221   .     D
C713   H731    1.075   .     S
C714   O743    1.221   .     D
C714   H732    1.071   .     S
C715   H724    1.071   .     S
C715   O744    1.221   .     D
C716   O748    1.283   .     A
C716   O750    1.295   .     A
C716   C718    1.410   .     S
C717   C719    1.410   .     S
C717   O749    1.283   .     A
C717   O751    1.295   .     A
C718   C821    1.496   1_455 S
C718   C835    1.363   1_455 S
C719   C776    1.363   .     S
C719   C764    1.496   .     S
C721   C872    1.394   .     S
C722   C894    1.394   .     S
N733   Zn753   2.033   .     S
N734   Zn754   2.033   .     S
O735   Zn753   1.986   .     S
O745   Zn754   1.986   .     S
O746   Zn754   1.991   .     S
O747   Zn753   1.991   .     S
O748   Zn753   1.986   .     S
O749   Zn754   1.986   .     S
O750   Zn754   1.999   .     S
O751   Zn753   1.999   .     S
C755   O804    1.290   .     A
C755   C758    1.415   .     S
C755   O793    1.285   .     A
C756   C758    1.409   .     A
C756   C769    1.498   .     S
C757   C780    1.409   .     A
C757   C779    1.407   .     A
C757   C766    1.415   .     S
C758   C778    1.407   .     A
C759   N792    1.372   .     A
C759   C770    1.480   .     S
C760   N791    1.372   .     A
C760   C771    1.480   .     S
C760   C1284   1.434   .     S
C761   C772    1.484   .     S
C761   N791    1.377   .     A
C761   C1281   1.434   .     S
C762   N792    1.378   .     A
C762   C773    1.484   .     S
C763   O810    1.221   .     D
C763   H781    1.084   .     S
C763   C834    1.496   .     S
C764   H783    1.084   .     S
C764   O794    1.221   .     D
C765   O795    1.220   .     D
C765   C778    1.486   .     S
C765   H784    1.084   .     S
C766   O803    1.285   .     A
C766   O805    1.290   .     A
C767   C779    1.486   .     S
C767   O796    1.220   .     D
C767   H785    1.084   .     S
C768   C780    1.498   .     S
C768   H786    1.081   .     S
C768   O797    1.220   .     D
C769   O798    1.220   .     D
C769   H787    1.081   .     S
C770   O799    1.221   .     D
C770   H788    1.075   .     S
C771   O800    1.221   .     D
C771   H789    1.075   .     S
C772   O801    1.221   .     D
C772   H790    1.071   .     S
C773   H782    1.071   .     S
C773   O802    1.221   .     D
C774   O806    1.283   .     A
C774   O808    1.295   .     A
C774   C776    1.410   .     S
C775   C777    1.410   .     S
C775   O807    1.283   .     A
C775   O809    1.295   .     A
C777   C834    1.363   .     S
C777   C822    1.496   .     S
C779   C930    1.394   .     S
C780   C952    1.394   .     S
N791   Zn811   2.033   .     S
N792   Zn812   2.033   .     S
O793   Zn811   1.986   .     S
O803   Zn812   1.986   .     S
O804   Zn812   1.991   .     S
O805   Zn811   1.991   .     S
O806   Zn811   1.986   .     S
O807   Zn812   1.986   .     S
O808   Zn812   1.999   .     S
O809   Zn811   1.999   .     S
C813   O862    1.290   .     A
C813   C816    1.415   .     S
C813   O851    1.285   .     A
C814   C816    1.409   .     A
C814   C827    1.498   .     S
C815   C838    1.409   .     A
C815   C837    1.407   .     A
C815   C824    1.415   .     S
C816   C836    1.407   .     A
C817   N850    1.372   .     A
C817   C828    1.480   .     S
C818   N849    1.372   .     A
C818   C829    1.480   .     S
C818   C1342   1.434   .     S
C819   C830    1.484   .     S
C819   N849    1.377   .     A
C819   C1339   1.434   .     S
C820   N850    1.378   .     A
C820   C831    1.484   .     S
C821   O868    1.221   .     D
C821   H839    1.084   .     S
C821   C718    1.496   1_655 S
C822   H841    1.084   .     S
C822   O852    1.221   .     D
C823   O853    1.220   .     D
C823   C836    1.486   .     S
C823   H842    1.084   .     S
C824   O861    1.285   .     A
C824   O863    1.290   .     A
C825   C837    1.486   .     S
C825   O854    1.220   .     D
C825   H843    1.084   .     S
C826   C838    1.498   .     S
C826   H844    1.081   .     S
C826   O855    1.220   .     D
C827   O856    1.220   .     D
C827   H845    1.081   .     S
C828   O857    1.221   .     D
C828   H846    1.075   .     S
C829   O858    1.221   .     D
C829   H847    1.075   .     S
C830   O859    1.221   .     D
C830   H848    1.071   .     S
C831   H840    1.071   .     S
C831   O860    1.221   .     D
C832   O864    1.283   .     A
C832   O866    1.295   .     A
C832   C834    1.410   .     S
C833   C835    1.410   .     S
C833   O865    1.283   .     A
C833   O867    1.295   .     A
C835   C718    1.363   1_655 S
C835   C706    1.496   1_655 S
C837   C988    1.394   .     S
C838   C1010   1.394   .     S
N849   Zn869   2.033   .     S
N850   Zn870   2.033   .     S
O851   Zn869   1.986   .     S
O861   Zn870   1.986   .     S
O862   Zn870   1.991   .     S
O863   Zn869   1.991   .     S
O864   Zn869   1.986   .     S
O865   Zn870   1.986   .     S
O866   Zn870   1.999   .     S
O867   Zn869   1.999   .     S
C871   O920    1.290   .     A
C871   C874    1.415   .     S
C871   O909    1.285   .     A
C872   C874    1.409   .     A
C872   C885    1.498   .     S
C873   C896    1.409   .     A
C873   C895    1.407   .     A
C873   C882    1.415   .     S
C874   C894    1.407   .     A
C875   N908    1.372   .     A
C875   C886    1.480   .     S
C876   N907    1.372   .     A
C876   C887    1.480   .     S
C876   C1400   1.434   .     S
C877   C888    1.484   .     S
C877   N907    1.377   .     A
C877   C1397   1.434   .     S
C878   N908    1.378   .     A
C878   C889    1.484   .     S
C879   O926    1.221   .     D
C879   H897    1.084   .     S
C879   C950    1.496   .     S
C880   H899    1.084   .     S
C880   O910    1.221   .     D
C880   C1009   1.496   1_455 S
C881   O911    1.220   .     D
C881   C894    1.486   .     S
C881   H900    1.084   .     S
C882   O919    1.285   .     A
C882   O921    1.290   .     A
C883   C895    1.486   .     S
C883   O912    1.220   .     D
C883   H901    1.084   .     S
C884   C896    1.498   .     S
C884   H902    1.081   .     S
C884   O913    1.220   .     D
C885   O914    1.220   .     D
C885   H903    1.081   .     S
C886   O915    1.221   .     D
C886   H904    1.075   .     S
C887   O916    1.221   .     D
C887   H905    1.075   .     S
C888   O917    1.221   .     D
C888   H906    1.071   .     S
C889   H898    1.071   .     S
C889   O918    1.221   .     D
C890   O922    1.283   .     A
C890   O924    1.295   .     A
C890   C892    1.410   .     S
C891   C893    1.410   .     S
C891   O923    1.283   .     A
C891   O925    1.295   .     A
C892   C995    1.496   1_455 S
C892   C1009   1.363   1_455 S
C893   C950    1.363   .     S
C893   C938    1.496   .     S
C895   C524    1.394   1_565 S
C896   C546    1.394   1_565 S
N907   Zn927   2.033   .     S
N908   Zn928   2.033   .     S
O909   Zn927   1.986   .     S
O919   Zn928   1.986   .     S
O920   Zn928   1.991   .     S
O921   Zn927   1.991   .     S
O922   Zn927   1.986   .     S
O923   Zn928   1.986   .     S
O924   Zn928   1.999   .     S
O925   Zn927   1.999   .     S
C929   O978    1.290   .     A
C929   C932    1.415   .     S
C929   O967    1.285   .     A
C930   C932    1.409   .     A
C930   C943    1.498   .     S
C931   C954    1.409   .     A
C931   C953    1.407   .     A
C931   C940    1.415   .     S
C932   C952    1.407   .     A
C933   N966    1.372   .     A
C933   C944    1.480   .     S
C934   N965    1.372   .     A
C934   C945    1.480   .     S
C934   C1458   1.434   .     S
C935   C946    1.484   .     S
C935   N965    1.377   .     A
C935   C1455   1.434   .     S
C936   N966    1.378   .     A
C936   C947    1.484   .     S
C937   O984    1.221   .     D
C937   H955    1.084   .     S
C937   C1008   1.496   .     S
C938   H957    1.084   .     S
C938   O968    1.221   .     D
C939   O969    1.220   .     D
C939   C952    1.486   .     S
C939   H958    1.084   .     S
C940   O977    1.285   .     A
C940   O979    1.290   .     A
C941   C953    1.486   .     S
C941   O970    1.220   .     D
C941   H959    1.084   .     S
C942   C954    1.498   .     S
C942   H960    1.081   .     S
C942   O971    1.220   .     D
C943   O972    1.220   .     D
C943   H961    1.081   .     S
C944   O973    1.221   .     D
C944   H962    1.075   .     S
C945   O974    1.221   .     D
C945   H963    1.075   .     S
C946   O975    1.221   .     D
C946   H964    1.071   .     S
C947   H956    1.071   .     S
C947   O976    1.221   .     D
C948   O980    1.283   .     A
C948   O982    1.295   .     A
C948   C950    1.410   .     S
C949   C951    1.410   .     S
C949   O981    1.283   .     A
C949   O983    1.295   .     A
C951   C1008   1.363   .     S
C951   C996    1.496   .     S
C953   C582    1.394   1_565 S
C954   C604    1.394   1_565 S
N965   Zn985   2.033   .     S
N966   Zn986   2.033   .     S
O967   Zn985   1.986   .     S
O977   Zn986   1.986   .     S
O978   Zn986   1.991   .     S
O979   Zn985   1.991   .     S
O980   Zn985   1.986   .     S
O981   Zn986   1.986   .     S
O982   Zn986   1.999   .     S
O983   Zn985   1.999   .     S
C987   O1036   1.290   .     A
C987   C990    1.415   .     S
C987   O1025   1.285   .     A
C988   C990    1.409   .     A
C988   C1001   1.498   .     S
C989   C1012   1.409   .     A
C989   C1011   1.407   .     A
C989   C998    1.415   .     S
C990   C1010   1.407   .     A
C991   N1024   1.372   .     A
C991   C1002   1.480   .     S
C992   N1023   1.372   .     A
C992   C1003   1.480   .     S
C992   C1516   1.434   .     S
C993   C1004   1.484   .     S
C993   N1023   1.377   .     A
C993   C1513   1.434   .     S
C994   N1024   1.378   .     A
C994   C1005   1.484   .     S
C995   O1042   1.221   .     D
C995   H1013   1.084   .     S
C995   C892    1.496   1_655 S
C996   H1015   1.084   .     S
C996   O1026   1.221   .     D
C997   O1027   1.220   .     D
C997   C1010   1.486   .     S
C997   H1016   1.084   .     S
C998   O1035   1.285   .     A
C998   O1037   1.290   .     A
C999   C1011   1.486   .     S
C999   O1028   1.220   .     D
C999   H1017   1.084   .     S
C1000  C1012   1.498   .     S
C1000  H1018   1.081   .     S
C1000  O1029   1.220   .     D
C1001  O1030   1.220   .     D
C1001  H1019   1.081   .     S
C1002  O1031   1.221   .     D
C1002  H1020   1.075   .     S
C1003  O1032   1.221   .     D
C1003  H1021   1.075   .     S
C1004  O1033   1.221   .     D
C1004  H1022   1.071   .     S
C1005  H1014   1.071   .     S
C1005  O1034   1.221   .     D
C1006  O1038   1.283   .     A
C1006  O1040   1.295   .     A
C1006  C1008   1.410   .     S
C1007  C1009   1.410   .     S
C1007  O1039   1.283   .     A
C1007  O1041   1.295   .     A
C1009  C892    1.363   1_655 S
C1009  C880    1.496   1_655 S
C1011  C640    1.394   1_565 S
C1012  C662    1.394   1_565 S
N1023  Zn1043  2.033   .     S
N1024  Zn1044  2.033   .     S
O1025  Zn1043  1.986   .     S
O1035  Zn1044  1.986   .     S
O1036  Zn1044  1.991   .     S
O1037  Zn1043  1.991   .     S
O1038  Zn1043  1.986   .     S
O1039  Zn1044  1.986   .     S
O1040  Zn1044  1.999   .     S
O1041  Zn1043  1.999   .     S
C1045  O1094   1.290   .     A
C1045  C1048   1.415   .     S
C1045  O1083   1.285   .     A
C1046  C1048   1.409   .     A
C1046  C1059   1.498   .     S
C1046  C1417   1.394   1_545 S
C1047  C1070   1.409   .     A
C1047  C1069   1.407   .     A
C1047  C1056   1.415   .     S
C1048  C1068   1.407   .     A
C1049  N1082   1.372   .     A
C1049  C1060   1.480   .     S
C1050  N1081   1.372   .     A
C1050  C1061   1.480   .     S
C1050  C8      1.434   1_556 S
C1051  C1062   1.484   .     S
C1051  N1081   1.377   .     A
C1051  C5      1.434   1_556 S
C1052  N1082   1.378   .     A
C1052  C1063   1.484   .     S
C1053  O1100   1.221   .     D
C1053  H1071   1.084   .     S
C1053  C1124   1.496   .     S
C1054  H1073   1.084   .     S
C1054  O1084   1.221   .     D
C1054  C1183   1.496   1_455 S
C1055  O1085   1.220   .     D
C1055  C1068   1.486   .     S
C1055  H1074   1.084   .     S
C1056  O1093   1.285   .     A
C1056  O1095   1.290   .     A
C1057  C1069   1.486   .     S
C1057  O1086   1.220   .     D
C1057  H1075   1.084   .     S
C1058  C1070   1.498   .     S
C1058  H1076   1.081   .     S
C1058  O1087   1.220   .     D
C1059  O1088   1.220   .     D
C1059  H1077   1.081   .     S
C1060  O1089   1.221   .     D
C1060  H1078   1.075   .     S
C1061  O1090   1.221   .     D
C1061  H1079   1.075   .     S
C1062  O1091   1.221   .     D
C1062  H1080   1.071   .     S
C1063  H1072   1.071   .     S
C1063  O1092   1.221   .     D
C1064  O1096   1.283   .     A
C1064  O1098   1.295   .     A
C1064  C1066   1.410   .     S
C1065  C1067   1.410   .     S
C1065  O1097   1.283   .     A
C1065  O1099   1.295   .     A
C1066  C1169   1.496   1_455 S
C1066  C1183   1.363   1_455 S
C1067  C1124   1.363   .     S
C1067  C1112   1.496   .     S
C1068  C1418   1.394   1_545 S
C1069  C1220   1.394   .     S
C1070  C1242   1.394   .     S
N1081  Zn1101  2.033   .     S
N1082  Zn1102  2.033   .     S
O1083  Zn1101  1.986   .     S
O1093  Zn1102  1.986   .     S
O1094  Zn1102  1.991   .     S
O1095  Zn1101  1.991   .     S
O1096  Zn1101  1.986   .     S
O1097  Zn1102  1.986   .     S
O1098  Zn1102  1.999   .     S
O1099  Zn1101  1.999   .     S
C1103  O1152   1.290   .     A
C1103  C1106   1.415   .     S
C1103  O1141   1.285   .     A
C1104  C1106   1.409   .     A
C1104  C1117   1.498   .     S
C1104  C1475   1.394   1_545 S
C1105  C1128   1.409   .     A
C1105  C1127   1.407   .     A
C1105  C1114   1.415   .     S
C1106  C1126   1.407   .     A
C1107  N1140   1.372   .     A
C1107  C1118   1.480   .     S
C1108  N1139   1.372   .     A
C1108  C1119   1.480   .     S
C1108  C66     1.434   1_556 S
C1109  C1120   1.484   .     S
C1109  N1139   1.377   .     A
C1109  C63     1.434   1_556 S
C1110  N1140   1.378   .     A
C1110  C1121   1.484   .     S
C1111  O1158   1.221   .     D
C1111  H1129   1.084   .     S
C1111  C1182   1.496   .     S
C1112  H1131   1.084   .     S
C1112  O1142   1.221   .     D
C1113  O1143   1.220   .     D
C1113  C1126   1.486   .     S
C1113  H1132   1.084   .     S
C1114  O1151   1.285   .     A
C1114  O1153   1.290   .     A
C1115  C1127   1.486   .     S
C1115  O1144   1.220   .     D
C1115  H1133   1.084   .     S
C1116  C1128   1.498   .     S
C1116  H1134   1.081   .     S
C1116  O1145   1.220   .     D
C1117  O1146   1.220   .     D
C1117  H1135   1.081   .     S
C1118  O1147   1.221   .     D
C1118  H1136   1.075   .     S
C1119  O1148   1.221   .     D
C1119  H1137   1.075   .     S
C1120  O1149   1.221   .     D
C1120  H1138   1.071   .     S
C1121  H1130   1.071   .     S
C1121  O1150   1.221   .     D
C1122  O1154   1.283   .     A
C1122  O1156   1.295   .     A
C1122  C1124   1.410   .     S
C1123  C1125   1.410   .     S
C1123  O1155   1.283   .     A
C1123  O1157   1.295   .     A
C1125  C1182   1.363   .     S
C1125  C1170   1.496   .     S
C1126  C1476   1.394   1_545 S
C1127  C1278   1.394   .     S
C1128  C1300   1.394   .     S
N1139  Zn1159  2.033   .     S
N1140  Zn1160  2.033   .     S
O1141  Zn1159  1.986   .     S
O1151  Zn1160  1.986   .     S
O1152  Zn1160  1.991   .     S
O1153  Zn1159  1.991   .     S
O1154  Zn1159  1.986   .     S
O1155  Zn1160  1.986   .     S
O1156  Zn1160  1.999   .     S
O1157  Zn1159  1.999   .     S
C1161  O1210   1.290   .     A
C1161  C1164   1.415   .     S
C1161  O1199   1.285   .     A
C1162  C1164   1.409   .     A
C1162  C1175   1.498   .     S
C1162  C1533   1.394   1_545 S
C1163  C1186   1.409   .     A
C1163  C1185   1.407   .     A
C1163  C1172   1.415   .     S
C1164  C1184   1.407   .     A
C1165  N1198   1.372   .     A
C1165  C1176   1.480   .     S
C1166  N1197   1.372   .     A
C1166  C1177   1.480   .     S
C1166  C124    1.434   1_556 S
C1167  C1178   1.484   .     S
C1167  N1197   1.377   .     A
C1167  C121    1.434   1_556 S
C1168  N1198   1.378   .     A
C1168  C1179   1.484   .     S
C1169  O1216   1.221   .     D
C1169  H1187   1.084   .     S
C1169  C1066   1.496   1_655 S
C1170  H1189   1.084   .     S
C1170  O1200   1.221   .     D
C1171  O1201   1.220   .     D
C1171  C1184   1.486   .     S
C1171  H1190   1.084   .     S
C1172  O1209   1.285   .     A
C1172  O1211   1.290   .     A
C1173  C1185   1.486   .     S
C1173  O1202   1.220   .     D
C1173  H1191   1.084   .     S
C1174  C1186   1.498   .     S
C1174  H1192   1.081   .     S
C1174  O1203   1.220   .     D
C1175  O1204   1.220   .     D
C1175  H1193   1.081   .     S
C1176  O1205   1.221   .     D
C1176  H1194   1.075   .     S
C1177  O1206   1.221   .     D
C1177  H1195   1.075   .     S
C1178  O1207   1.221   .     D
C1178  H1196   1.071   .     S
C1179  H1188   1.071   .     S
C1179  O1208   1.221   .     D
C1180  O1212   1.283   .     A
C1180  O1214   1.295   .     A
C1180  C1182   1.410   .     S
C1181  C1183   1.410   .     S
C1181  O1213   1.283   .     A
C1181  O1215   1.295   .     A
C1183  C1066   1.363   1_655 S
C1183  C1054   1.496   1_655 S
C1184  C1534   1.394   1_545 S
C1185  C1336   1.394   .     S
C1186  C1358   1.394   .     S
N1197  Zn1217  2.033   .     S
N1198  Zn1218  2.033   .     S
O1199  Zn1217  1.986   .     S
O1209  Zn1218  1.986   .     S
O1210  Zn1218  1.991   .     S
O1211  Zn1217  1.991   .     S
O1212  Zn1217  1.986   .     S
O1213  Zn1218  1.986   .     S
O1214  Zn1218  1.999   .     S
O1215  Zn1217  1.999   .     S
C1219  O1268   1.290   .     A
C1219  C1222   1.415   .     S
C1219  O1257   1.285   .     A
C1220  C1222   1.409   .     A
C1220  C1233   1.498   .     S
C1221  C1244   1.409   .     A
C1221  C1243   1.407   .     A
C1221  C1230   1.415   .     S
C1222  C1242   1.407   .     A
C1223  N1256   1.372   .     A
C1223  C1234   1.480   .     S
C1224  N1255   1.372   .     A
C1224  C1235   1.480   .     S
C1224  C182    1.434   1_556 S
C1225  C1236   1.484   .     S
C1225  N1255   1.377   .     A
C1225  C179    1.434   1_556 S
C1226  N1256   1.378   .     A
C1226  C1237   1.484   .     S
C1227  O1274   1.221   .     D
C1227  H1245   1.084   .     S
C1227  C1298   1.496   .     S
C1228  H1247   1.084   .     S
C1228  O1258   1.221   .     D
C1228  C1357   1.496   1_455 S
C1229  O1259   1.220   .     D
C1229  C1242   1.486   .     S
C1229  H1248   1.084   .     S
C1230  O1267   1.285   .     A
C1230  O1269   1.290   .     A
C1231  C1243   1.486   .     S
C1231  O1260   1.220   .     D
C1231  H1249   1.084   .     S
C1232  C1244   1.498   .     S
C1232  H1250   1.081   .     S
C1232  O1261   1.220   .     D
C1233  O1262   1.220   .     D
C1233  H1251   1.081   .     S
C1234  O1263   1.221   .     D
C1234  H1252   1.075   .     S
C1235  O1264   1.221   .     D
C1235  H1253   1.075   .     S
C1236  O1265   1.221   .     D
C1236  H1254   1.071   .     S
C1237  H1246   1.071   .     S
C1237  O1266   1.221   .     D
C1238  O1270   1.283   .     A
C1238  O1272   1.295   .     A
C1238  C1240   1.410   .     S
C1239  C1241   1.410   .     S
C1239  O1271   1.283   .     A
C1239  O1273   1.295   .     A
C1240  C1343   1.496   1_455 S
C1240  C1357   1.363   1_455 S
C1241  C1298   1.363   .     S
C1241  C1286   1.496   .     S
C1243  C1394   1.394   .     S
C1244  C1416   1.394   .     S
N1255  Zn1275  2.033   .     S
N1256  Zn1276  2.033   .     S
O1257  Zn1275  1.986   .     S
O1267  Zn1276  1.986   .     S
O1268  Zn1276  1.991   .     S
O1269  Zn1275  1.991   .     S
O1270  Zn1275  1.986   .     S
O1271  Zn1276  1.986   .     S
O1272  Zn1276  1.999   .     S
O1273  Zn1275  1.999   .     S
C1277  O1326   1.290   .     A
C1277  C1280   1.415   .     S
C1277  O1315   1.285   .     A
C1278  C1280   1.409   .     A
C1278  C1291   1.498   .     S
C1279  C1302   1.409   .     A
C1279  C1301   1.407   .     A
C1279  C1288   1.415   .     S
C1280  C1300   1.407   .     A
C1281  N1314   1.372   .     A
C1281  C1292   1.480   .     S
C1282  N1313   1.372   .     A
C1282  C1293   1.480   .     S
C1282  C240    1.434   1_556 S
C1283  C1294   1.484   .     S
C1283  N1313   1.377   .     A
C1283  C237    1.434   1_556 S
C1284  N1314   1.378   .     A
C1284  C1295   1.484   .     S
C1285  O1332   1.221   .     D
C1285  H1303   1.084   .     S
C1285  C1356   1.496   .     S
C1286  H1305   1.084   .     S
C1286  O1316   1.221   .     D
C1287  O1317   1.220   .     D
C1287  C1300   1.486   .     S
C1287  H1306   1.084   .     S
C1288  O1325   1.285   .     A
C1288  O1327   1.290   .     A
C1289  C1301   1.486   .     S
C1289  O1318   1.220   .     D
C1289  H1307   1.084   .     S
C1290  C1302   1.498   .     S
C1290  H1308   1.081   .     S
C1290  O1319   1.220   .     D
C1291  O1320   1.220   .     D
C1291  H1309   1.081   .     S
C1292  O1321   1.221   .     D
C1292  H1310   1.075   .     S
C1293  O1322   1.221   .     D
C1293  H1311   1.075   .     S
C1294  O1323   1.221   .     D
C1294  H1312   1.071   .     S
C1295  H1304   1.071   .     S
C1295  O1324   1.221   .     D
C1296  O1328   1.283   .     A
C1296  O1330   1.295   .     A
C1296  C1298   1.410   .     S
C1297  C1299   1.410   .     S
C1297  O1329   1.283   .     A
C1297  O1331   1.295   .     A
C1299  C1356   1.363   .     S
C1299  C1344   1.496   .     S
C1301  C1452   1.394   .     S
C1302  C1474   1.394   .     S
N1313  Zn1333  2.033   .     S
N1314  Zn1334  2.033   .     S
O1315  Zn1333  1.986   .     S
O1325  Zn1334  1.986   .     S
O1326  Zn1334  1.991   .     S
O1327  Zn1333  1.991   .     S
O1328  Zn1333  1.986   .     S
O1329  Zn1334  1.986   .     S
O1330  Zn1334  1.999   .     S
O1331  Zn1333  1.999   .     S
C1335  O1384   1.290   .     A
C1335  C1338   1.415   .     S
C1335  O1373   1.285   .     A
C1336  C1338   1.409   .     A
C1336  C1349   1.498   .     S
C1337  C1360   1.409   .     A
C1337  C1359   1.407   .     A
C1337  C1346   1.415   .     S
C1338  C1358   1.407   .     A
C1339  N1372   1.372   .     A
C1339  C1350   1.480   .     S
C1340  N1371   1.372   .     A
C1340  C1351   1.480   .     S
C1340  C298    1.434   1_556 S
C1341  C1352   1.484   .     S
C1341  N1371   1.377   .     A
C1341  C295    1.434   1_556 S
C1342  N1372   1.378   .     A
C1342  C1353   1.484   .     S
C1343  O1390   1.221   .     D
C1343  H1361   1.084   .     S
C1343  C1240   1.496   1_655 S
C1344  H1363   1.084   .     S
C1344  O1374   1.221   .     D
C1345  O1375   1.220   .     D
C1345  C1358   1.486   .     S
C1345  H1364   1.084   .     S
C1346  O1383   1.285   .     A
C1346  O1385   1.290   .     A
C1347  C1359   1.486   .     S
C1347  O1376   1.220   .     D
C1347  H1365   1.084   .     S
C1348  C1360   1.498   .     S
C1348  H1366   1.081   .     S
C1348  O1377   1.220   .     D
C1349  O1378   1.220   .     D
C1349  H1367   1.081   .     S
C1350  O1379   1.221   .     D
C1350  H1368   1.075   .     S
C1351  O1380   1.221   .     D
C1351  H1369   1.075   .     S
C1352  O1381   1.221   .     D
C1352  H1370   1.071   .     S
C1353  H1362   1.071   .     S
C1353  O1382   1.221   .     D
C1354  O1386   1.283   .     A
C1354  O1388   1.295   .     A
C1354  C1356   1.410   .     S
C1355  C1357   1.410   .     S
C1355  O1387   1.283   .     A
C1355  O1389   1.295   .     A
C1357  C1240   1.363   1_655 S
C1357  C1228   1.496   1_655 S
C1359  C1510   1.394   .     S
C1360  C1532   1.394   .     S
N1371  Zn1391  2.033   .     S
N1372  Zn1392  2.033   .     S
O1373  Zn1391  1.986   .     S
O1383  Zn1392  1.986   .     S
O1384  Zn1392  1.991   .     S
O1385  Zn1391  1.991   .     S
O1386  Zn1391  1.986   .     S
O1387  Zn1392  1.986   .     S
O1388  Zn1392  1.999   .     S
O1389  Zn1391  1.999   .     S
C1393  O1442   1.290   .     A
C1393  C1396   1.415   .     S
C1393  O1431   1.285   .     A
C1394  C1396   1.409   .     A
C1394  C1407   1.498   .     S
C1395  C1418   1.409   .     A
C1395  C1417   1.407   .     A
C1395  C1404   1.415   .     S
C1396  C1416   1.407   .     A
C1397  N1430   1.372   .     A
C1397  C1408   1.480   .     S
C1398  N1429   1.372   .     A
C1398  C1409   1.480   .     S
C1398  C356    1.434   1_556 S
C1399  C1410   1.484   .     S
C1399  N1429   1.377   .     A
C1399  C353    1.434   1_556 S
C1400  N1430   1.378   .     A
C1400  C1411   1.484   .     S
C1401  O1448   1.221   .     D
C1401  H1419   1.084   .     S
C1401  C1472   1.496   .     S
C1402  H1421   1.084   .     S
C1402  O1432   1.221   .     D
C1402  C1531   1.496   1_455 S
C1403  O1433   1.220   .     D
C1403  C1416   1.486   .     S
C1403  H1422   1.084   .     S
C1404  O1441   1.285   .     A
C1404  O1443   1.290   .     A
C1405  C1417   1.486   .     S
C1405  O1434   1.220   .     D
C1405  H1423   1.084   .     S
C1406  C1418   1.498   .     S
C1406  H1424   1.081   .     S
C1406  O1435   1.220   .     D
C1407  O1436   1.220   .     D
C1407  H1425   1.081   .     S
C1408  O1437   1.221   .     D
C1408  H1426   1.075   .     S
C1409  O1438   1.221   .     D
C1409  H1427   1.075   .     S
C1410  O1439   1.221   .     D
C1410  H1428   1.071   .     S
C1411  H1420   1.071   .     S
C1411  O1440   1.221   .     D
C1412  O1444   1.283   .     A
C1412  O1446   1.295   .     A
C1412  C1414   1.410   .     S
C1413  C1415   1.410   .     S
C1413  O1445   1.283   .     A
C1413  O1447   1.295   .     A
C1414  C1517   1.496   1_455 S
C1414  C1531   1.363   1_455 S
C1415  C1472   1.363   .     S
C1415  C1460   1.496   .     S
C1417  C1046   1.394   1_565 S
C1418  C1068   1.394   1_565 S
N1429  Zn1449  2.033   .     S
N1430  Zn1450  2.033   .     S
O1431  Zn1449  1.986   .     S
O1441  Zn1450  1.986   .     S
O1442  Zn1450  1.991   .     S
O1443  Zn1449  1.991   .     S
O1444  Zn1449  1.986   .     S
O1445  Zn1450  1.986   .     S
O1446  Zn1450  1.999   .     S
O1447  Zn1449  1.999   .     S
C1451  O1500   1.290   .     A
C1451  C1454   1.415   .     S
C1451  O1489   1.285   .     A
C1452  C1454   1.409   .     A
C1452  C1465   1.498   .     S
C1453  C1476   1.409   .     A
C1453  C1475   1.407   .     A
C1453  C1462   1.415   .     S
C1454  C1474   1.407   .     A
C1455  N1488   1.372   .     A
C1455  C1466   1.480   .     S
C1456  N1487   1.372   .     A
C1456  C1467   1.480   .     S
C1456  C414    1.434   1_556 S
C1457  C1468   1.484   .     S
C1457  N1487   1.377   .     A
C1457  C411    1.434   1_556 S
C1458  N1488   1.378   .     A
C1458  C1469   1.484   .     S
C1459  O1506   1.221   .     D
C1459  H1477   1.084   .     S
C1459  C1530   1.496   .     S
C1460  H1479   1.084   .     S
C1460  O1490   1.221   .     D
C1461  O1491   1.220   .     D
C1461  C1474   1.486   .     S
C1461  H1480   1.084   .     S
C1462  O1499   1.285   .     A
C1462  O1501   1.290   .     A
C1463  C1475   1.486   .     S
C1463  O1492   1.220   .     D
C1463  H1481   1.084   .     S
C1464  C1476   1.498   .     S
C1464  H1482   1.081   .     S
C1464  O1493   1.220   .     D
C1465  O1494   1.220   .     D
C1465  H1483   1.081   .     S
C1466  O1495   1.221   .     D
C1466  H1484   1.075   .     S
C1467  O1496   1.221   .     D
C1467  H1485   1.075   .     S
C1468  O1497   1.221   .     D
C1468  H1486   1.071   .     S
C1469  H1478   1.071   .     S
C1469  O1498   1.221   .     D
C1470  O1502   1.283   .     A
C1470  O1504   1.295   .     A
C1470  C1472   1.410   .     S
C1471  C1473   1.410   .     S
C1471  O1503   1.283   .     A
C1471  O1505   1.295   .     A
C1473  C1530   1.363   .     S
C1473  C1518   1.496   .     S
C1475  C1104   1.394   1_565 S
C1476  C1126   1.394   1_565 S
N1487  Zn1507  2.033   .     S
N1488  Zn1508  2.033   .     S
O1489  Zn1507  1.986   .     S
O1499  Zn1508  1.986   .     S
O1500  Zn1508  1.991   .     S
O1501  Zn1507  1.991   .     S
O1502  Zn1507  1.986   .     S
O1503  Zn1508  1.986   .     S
O1504  Zn1508  1.999   .     S
O1505  Zn1507  1.999   .     S
C1509  O1558   1.290   .     A
C1509  C1512   1.415   .     S
C1509  O1547   1.285   .     A
C1510  C1512   1.409   .     A
C1510  C1523   1.498   .     S
C1511  C1534   1.409   .     A
C1511  C1533   1.407   .     A
C1511  C1520   1.415   .     S
C1512  C1532   1.407   .     A
C1513  N1546   1.372   .     A
C1513  C1524   1.480   .     S
C1514  N1545   1.372   .     A
C1514  C1525   1.480   .     S
C1514  C472    1.434   1_556 S
C1515  C1526   1.484   .     S
C1515  N1545   1.377   .     A
C1515  C469    1.434   1_556 S
C1516  N1546   1.378   .     A
C1516  C1527   1.484   .     S
C1517  O1564   1.221   .     D
C1517  H1535   1.084   .     S
C1517  C1414   1.496   1_655 S
C1518  H1537   1.084   .     S
C1518  O1548   1.221   .     D
C1519  O1549   1.220   .     D
C1519  C1532   1.486   .     S
C1519  H1538   1.084   .     S
C1520  O1557   1.285   .     A
C1520  O1559   1.290   .     A
C1521  C1533   1.486   .     S
C1521  O1550   1.220   .     D
C1521  H1539   1.084   .     S
C1522  C1534   1.498   .     S
C1522  H1540   1.081   .     S
C1522  O1551   1.220   .     D
C1523  O1552   1.220   .     D
C1523  H1541   1.081   .     S
C1524  O1553   1.221   .     D
C1524  H1542   1.075   .     S
C1525  O1554   1.221   .     D
C1525  H1543   1.075   .     S
C1526  O1555   1.221   .     D
C1526  H1544   1.071   .     S
C1527  H1536   1.071   .     S
C1527  O1556   1.221   .     D
C1528  O1560   1.283   .     A
C1528  O1562   1.295   .     A
C1528  C1530   1.410   .     S
C1529  C1531   1.410   .     S
C1529  O1561   1.283   .     A
C1529  O1563   1.295   .     A
C1531  C1414   1.363   1_655 S
C1531  C1402   1.496   1_655 S
C1533  C1162   1.394   1_565 S
C1534  C1184   1.394   1_565 S
N1545  Zn1565  2.033   .     S
N1546  Zn1566  2.033   .     S
O1547  Zn1565  1.986   .     S
O1557  Zn1566  1.986   .     S
O1558  Zn1566  1.991   .     S
O1559  Zn1565  1.991   .     S
O1560  Zn1565  1.986   .     S
O1561  Zn1566  1.986   .     S
O1562  Zn1566  1.999   .     S
O1563  Zn1565  1.999   .     S
