data_str_m3_o1_o10_pcu_sym.52
_audit_creation_date              2020-01-03
_audit_creation_method            'Materials Studio'
_symmetry_space_group_name_H-M    'P1'
_symmetry_Int_Tables_number       1
_symmetry_cell_setting            triclinic
loop_
_symmetry_equiv_pos_as_xyz
  x,y,z
_cell_length_a                    25.9003
_cell_length_b                    32.1219
_cell_length_c                    29.5256
_cell_angle_alpha                 89.9724
_cell_angle_beta                  97.9021
_cell_angle_gamma                 90.1544
loop_
_atom_site_label
_atom_site_type_symbol
_atom_site_fract_x
_atom_site_fract_y
_atom_site_fract_z
_atom_site_U_iso_or_equiv
_atom_site_adp_type
_atom_site_occupancy
C1     C     0.16665   0.08663   0.16665   0.00000  Uiso   1.00
C2     C     0.15297   0.02128   0.20459   0.00000  Uiso   1.00
C3     C     0.16668   0.29084   0.16667   0.00000  Uiso   1.00
C4     C     0.16665   0.04249   0.16666   0.00000  Uiso   1.00
C5     C     0.20047   0.19143   0.02804   0.00000  Uiso   1.00
C6     C     0.13286   0.14190   0.30530   0.00000  Uiso   1.00
C7     C     0.20045   0.19142   0.31340   0.00000  Uiso   1.00
C8     C     0.13288   0.14191   0.01993   0.00000  Uiso   1.00
C9     C     0.32551   0.12527   0.11584   0.00000  Uiso   1.00
C10    C     0.00783   0.20807   0.21750   0.00000  Uiso   1.00
C11    C     0.16668   0.24670   0.16668   0.00000  Uiso   1.00
C12    C     0.06732   0.16583   0.15517   0.00000  Uiso   1.00
C13    C     0.26601   0.16751   0.17817   0.00000  Uiso   1.00
C14    C     0.01343   0.15812   0.15084   0.00000  Uiso   1.00
C15    C     0.31990   0.17521   0.18250   0.00000  Uiso   1.00
C16    C     0.18035   0.02137   0.12873   0.00000  Uiso   1.00
C17    C     0.15299   0.31196   0.20460   0.00000  Uiso   1.00
C18    C     0.18036   0.31205   0.12874   0.00000  Uiso   1.00
H19    H     0.19141   0.03771   0.09940   0.00000  Uiso   1.00
H20    H     0.30184   0.10180   0.13156   0.00000  Uiso   1.00
H21    H     0.30183   0.14014   0.08601   0.00000  Uiso   1.00
H22    H     0.30925   0.22541   0.23067   0.00000  Uiso   1.00
H23    H     0.03150   0.19319   0.24732   0.00000  Uiso   1.00
H24    H     0.03149   0.23153   0.20177   0.00000  Uiso   1.00
H25    H     0.14192   0.29562   0.23393   0.00000  Uiso   1.00
H26    H     0.19143   0.29579   0.09941   0.00000  Uiso   1.00
H27    H     0.14190   0.03755   0.23392   0.00000  Uiso   1.00
H28    H     0.22750   0.21122   0.04946   0.00000  Uiso   1.00
H29    H     0.10584   0.12211   0.28388   0.00000  Uiso   1.00
H30    H     0.22745   0.21122   0.29846   0.00000  Uiso   1.00
H31    H     0.10588   0.12211   0.03487   0.00000  Uiso   1.00
H32    H     0.02408   0.10793   0.10266   0.00000  Uiso   1.00
N33    N     0.16665   0.16666   0.28573   0.00000  Uiso   1.00
N34    N     0.16668   0.16668   0.04760   0.00000  Uiso   1.00
O35    O     0.16666   0.10558   0.20487   0.00000  Uiso   1.00
O36    O     0.16667   0.22775   0.12846   0.00000  Uiso   1.00
O37    O     0.16666   0.10559   0.12843   0.00000  Uiso   1.00
O38    O     0.16667   0.22774   0.20490   0.00000  Uiso   1.00
O39    O     0.09058   0.16666   0.19595   0.00000  Uiso   1.00
O40    O     0.24275   0.16667   0.13739   0.00000  Uiso   1.00
O41    O     0.09058   0.16667   0.11950   0.00000  Uiso   1.00
O42    O     0.24275   0.16666   0.21383   0.00000  Uiso   1.00
Zn43   Zn    0.16667   0.16666   0.21771   0.00000  Uiso   1.00
Zn44   Zn    0.16667   0.16667   0.11563   0.00000  Uiso   1.00
C45    C     0.49999   0.08663   0.16665   0.00000  Uiso   1.00
C46    C     0.48631   0.02128   0.20459   0.00000  Uiso   1.00
C47    C     0.50001   0.29084   0.16667   0.00000  Uiso   1.00
C48    C     0.49999   0.04249   0.16666   0.00000  Uiso   1.00
C49    C     0.53380   0.19143   0.02804   0.00000  Uiso   1.00
C50    C     0.46620   0.14190   0.30530   0.00000  Uiso   1.00
C51    C     0.53378   0.19142   0.31340   0.00000  Uiso   1.00
C52    C     0.46622   0.14191   0.01993   0.00000  Uiso   1.00
C53    C     0.65884   0.12527   0.11584   0.00000  Uiso   1.00
C54    C     0.34116   0.20807   0.21750   0.00000  Uiso   1.00
C55    C     0.50001   0.24670   0.16668   0.00000  Uiso   1.00
C56    C     0.40065   0.16583   0.15517   0.00000  Uiso   1.00
C57    C     0.59935   0.16751   0.17817   0.00000  Uiso   1.00
C58    C     0.34676   0.15812   0.15084   0.00000  Uiso   1.00
C59    C     0.65324   0.17521   0.18250   0.00000  Uiso   1.00
C60    C     0.51368   0.02137   0.12873   0.00000  Uiso   1.00
C61    C     0.48632   0.31196   0.20460   0.00000  Uiso   1.00
C62    C     0.51369   0.31205   0.12874   0.00000  Uiso   1.00
H63    H     0.52475   0.03771   0.09940   0.00000  Uiso   1.00
H64    H     0.63518   0.10180   0.13156   0.00000  Uiso   1.00
H65    H     0.63516   0.14014   0.08601   0.00000  Uiso   1.00
H66    H     0.64259   0.22541   0.23067   0.00000  Uiso   1.00
H67    H     0.36484   0.19319   0.24732   0.00000  Uiso   1.00
H68    H     0.36482   0.23153   0.20177   0.00000  Uiso   1.00
H69    H     0.47525   0.29562   0.23393   0.00000  Uiso   1.00
H70    H     0.52476   0.29579   0.09941   0.00000  Uiso   1.00
H71    H     0.47524   0.03755   0.23392   0.00000  Uiso   1.00
H72    H     0.56083   0.21122   0.04946   0.00000  Uiso   1.00
H73    H     0.43917   0.12211   0.28388   0.00000  Uiso   1.00
H74    H     0.56079   0.21122   0.29846   0.00000  Uiso   1.00
H75    H     0.43921   0.12211   0.03487   0.00000  Uiso   1.00
H76    H     0.35741   0.10793   0.10266   0.00000  Uiso   1.00
N77    N     0.49999   0.16666   0.28573   0.00000  Uiso   1.00
N78    N     0.50001   0.16668   0.04760   0.00000  Uiso   1.00
O79    O     0.50000   0.10558   0.20487   0.00000  Uiso   1.00
O80    O     0.50000   0.22775   0.12846   0.00000  Uiso   1.00
O81    O     0.50000   0.10559   0.12843   0.00000  Uiso   1.00
O82    O     0.50000   0.22774   0.20490   0.00000  Uiso   1.00
O83    O     0.42392   0.16666   0.19595   0.00000  Uiso   1.00
O84    O     0.57608   0.16667   0.13739   0.00000  Uiso   1.00
O85    O     0.42392   0.16667   0.11950   0.00000  Uiso   1.00
O86    O     0.57608   0.16666   0.21383   0.00000  Uiso   1.00
Zn87   Zn    0.50000   0.16666   0.21771   0.00000  Uiso   1.00
Zn88   Zn    0.50000   0.16667   0.11563   0.00000  Uiso   1.00
C89    C     0.83332   0.08663   0.16665   0.00000  Uiso   1.00
C90    C     0.81964   0.02128   0.20459   0.00000  Uiso   1.00
C91    C     0.83335   0.29084   0.16667   0.00000  Uiso   1.00
C92    C     0.83332   0.04249   0.16666   0.00000  Uiso   1.00
C93    C     0.86714   0.19143   0.02804   0.00000  Uiso   1.00
C94    C     0.79953   0.14190   0.30530   0.00000  Uiso   1.00
C95    C     0.86712   0.19142   0.31340   0.00000  Uiso   1.00
C96    C     0.79955   0.14191   0.01993   0.00000  Uiso   1.00
C97    C     0.99217   0.12527   0.11584   0.00000  Uiso   1.00
C98    C     0.67449   0.20807   0.21750   0.00000  Uiso   1.00
C99    C     0.83335   0.24670   0.16668   0.00000  Uiso   1.00
C100   C     0.73399   0.16583   0.15517   0.00000  Uiso   1.00
C101   C     0.93268   0.16751   0.17817   0.00000  Uiso   1.00
C102   C     0.68009   0.15812   0.15084   0.00000  Uiso   1.00
C103   C     0.98657   0.17521   0.18250   0.00000  Uiso   1.00
C104   C     0.84701   0.02137   0.12873   0.00000  Uiso   1.00
C105   C     0.81965   0.31196   0.20460   0.00000  Uiso   1.00
C106   C     0.84703   0.31205   0.12874   0.00000  Uiso   1.00
H107   H     0.85808   0.03771   0.09940   0.00000  Uiso   1.00
H108   H     0.96851   0.10180   0.13156   0.00000  Uiso   1.00
H109   H     0.96850   0.14014   0.08601   0.00000  Uiso   1.00
H110   H     0.97592   0.22541   0.23067   0.00000  Uiso   1.00
H111   H     0.69817   0.19319   0.24732   0.00000  Uiso   1.00
H112   H     0.69816   0.23153   0.20177   0.00000  Uiso   1.00
H113   H     0.80859   0.29562   0.23393   0.00000  Uiso   1.00
H114   H     0.85810   0.29579   0.09941   0.00000  Uiso   1.00
H115   H     0.80857   0.03755   0.23392   0.00000  Uiso   1.00
H116   H     0.89416   0.21122   0.04946   0.00000  Uiso   1.00
H117   H     0.77250   0.12211   0.28388   0.00000  Uiso   1.00
H118   H     0.89412   0.21122   0.29846   0.00000  Uiso   1.00
H119   H     0.77255   0.12211   0.03487   0.00000  Uiso   1.00
H120   H     0.69075   0.10793   0.10266   0.00000  Uiso   1.00
N121   N     0.83332   0.16666   0.28573   0.00000  Uiso   1.00
N122   N     0.83335   0.16668   0.04760   0.00000  Uiso   1.00
O123   O     0.83333   0.10558   0.20487   0.00000  Uiso   1.00
O124   O     0.83334   0.22775   0.12846   0.00000  Uiso   1.00
O125   O     0.83333   0.10559   0.12843   0.00000  Uiso   1.00
O126   O     0.83334   0.22774   0.20490   0.00000  Uiso   1.00
O127   O     0.75725   0.16666   0.19595   0.00000  Uiso   1.00
O128   O     0.90942   0.16667   0.13739   0.00000  Uiso   1.00
O129   O     0.75725   0.16667   0.11950   0.00000  Uiso   1.00
O130   O     0.90942   0.16666   0.21383   0.00000  Uiso   1.00
Zn131  Zn    0.83333   0.16666   0.21771   0.00000  Uiso   1.00
Zn132  Zn    0.83333   0.16667   0.11563   0.00000  Uiso   1.00
C133   C     0.16665   0.41997   0.16665   0.00000  Uiso   1.00
C134   C     0.15297   0.35462   0.20459   0.00000  Uiso   1.00
C135   C     0.16668   0.62418   0.16667   0.00000  Uiso   1.00
C136   C     0.16665   0.37582   0.16666   0.00000  Uiso   1.00
C137   C     0.20047   0.52476   0.02804   0.00000  Uiso   1.00
C138   C     0.13286   0.47524   0.30530   0.00000  Uiso   1.00
C139   C     0.20045   0.52476   0.31340   0.00000  Uiso   1.00
C140   C     0.13288   0.47524   0.01993   0.00000  Uiso   1.00
C141   C     0.32551   0.45860   0.11584   0.00000  Uiso   1.00
C142   C     0.00783   0.54140   0.21750   0.00000  Uiso   1.00
C143   C     0.16668   0.58003   0.16668   0.00000  Uiso   1.00
C144   C     0.06732   0.49916   0.15517   0.00000  Uiso   1.00
C145   C     0.26601   0.50084   0.17817   0.00000  Uiso   1.00
C146   C     0.01343   0.49146   0.15084   0.00000  Uiso   1.00
C147   C     0.31990   0.50854   0.18250   0.00000  Uiso   1.00
C148   C     0.18035   0.35471   0.12873   0.00000  Uiso   1.00
C149   C     0.15299   0.64529   0.20460   0.00000  Uiso   1.00
C150   C     0.18036   0.64538   0.12874   0.00000  Uiso   1.00
H151   H     0.19141   0.37104   0.09940   0.00000  Uiso   1.00
H152   H     0.30184   0.43514   0.13156   0.00000  Uiso   1.00
H153   H     0.30183   0.47348   0.08601   0.00000  Uiso   1.00
H154   H     0.30925   0.55874   0.23067   0.00000  Uiso   1.00
H155   H     0.03150   0.52652   0.24732   0.00000  Uiso   1.00
H156   H     0.03149   0.56486   0.20177   0.00000  Uiso   1.00
H157   H     0.14192   0.62896   0.23393   0.00000  Uiso   1.00
H158   H     0.19143   0.62912   0.09941   0.00000  Uiso   1.00
H159   H     0.14190   0.37088   0.23392   0.00000  Uiso   1.00
H160   H     0.22750   0.54456   0.04946   0.00000  Uiso   1.00
H161   H     0.10584   0.45544   0.28388   0.00000  Uiso   1.00
H162   H     0.22745   0.54456   0.29846   0.00000  Uiso   1.00
H163   H     0.10588   0.45544   0.03487   0.00000  Uiso   1.00
H164   H     0.02408   0.44126   0.10266   0.00000  Uiso   1.00
N165   N     0.16665   0.49999   0.28573   0.00000  Uiso   1.00
N166   N     0.16668   0.50001   0.04760   0.00000  Uiso   1.00
O167   O     0.16666   0.43892   0.20487   0.00000  Uiso   1.00
O168   O     0.16667   0.56108   0.12846   0.00000  Uiso   1.00
O169   O     0.16666   0.43893   0.12843   0.00000  Uiso   1.00
O170   O     0.16667   0.56107   0.20490   0.00000  Uiso   1.00
O171   O     0.09058   0.50000   0.19595   0.00000  Uiso   1.00
O172   O     0.24275   0.50000   0.13739   0.00000  Uiso   1.00
O173   O     0.09058   0.50000   0.11950   0.00000  Uiso   1.00
O174   O     0.24275   0.50000   0.21383   0.00000  Uiso   1.00
Zn175  Zn    0.16667   0.49999   0.21771   0.00000  Uiso   1.00
Zn176  Zn    0.16667   0.50001   0.11563   0.00000  Uiso   1.00
C177   C     0.49999   0.41997   0.16665   0.00000  Uiso   1.00
C178   C     0.48631   0.35462   0.20459   0.00000  Uiso   1.00
C179   C     0.50001   0.62418   0.16667   0.00000  Uiso   1.00
C180   C     0.49999   0.37582   0.16666   0.00000  Uiso   1.00
C181   C     0.53380   0.52476   0.02804   0.00000  Uiso   1.00
C182   C     0.46620   0.47524   0.30530   0.00000  Uiso   1.00
C183   C     0.53378   0.52476   0.31340   0.00000  Uiso   1.00
C184   C     0.46622   0.47524   0.01993   0.00000  Uiso   1.00
C185   C     0.65884   0.45860   0.11584   0.00000  Uiso   1.00
C186   C     0.34116   0.54140   0.21750   0.00000  Uiso   1.00
C187   C     0.50001   0.58003   0.16668   0.00000  Uiso   1.00
C188   C     0.40065   0.49916   0.15517   0.00000  Uiso   1.00
C189   C     0.59935   0.50084   0.17817   0.00000  Uiso   1.00
C190   C     0.34676   0.49146   0.15084   0.00000  Uiso   1.00
C191   C     0.65324   0.50854   0.18250   0.00000  Uiso   1.00
C192   C     0.51368   0.35471   0.12873   0.00000  Uiso   1.00
C193   C     0.48632   0.64529   0.20460   0.00000  Uiso   1.00
C194   C     0.51369   0.64538   0.12874   0.00000  Uiso   1.00
H195   H     0.52475   0.37104   0.09940   0.00000  Uiso   1.00
H196   H     0.63518   0.43514   0.13156   0.00000  Uiso   1.00
H197   H     0.63516   0.47348   0.08601   0.00000  Uiso   1.00
H198   H     0.64259   0.55874   0.23067   0.00000  Uiso   1.00
H199   H     0.36484   0.52652   0.24732   0.00000  Uiso   1.00
H200   H     0.36482   0.56486   0.20177   0.00000  Uiso   1.00
H201   H     0.47525   0.62896   0.23393   0.00000  Uiso   1.00
H202   H     0.52476   0.62912   0.09941   0.00000  Uiso   1.00
H203   H     0.47524   0.37088   0.23392   0.00000  Uiso   1.00
H204   H     0.56083   0.54456   0.04946   0.00000  Uiso   1.00
H205   H     0.43917   0.45544   0.28388   0.00000  Uiso   1.00
H206   H     0.56079   0.54456   0.29846   0.00000  Uiso   1.00
H207   H     0.43921   0.45544   0.03487   0.00000  Uiso   1.00
H208   H     0.35741   0.44126   0.10266   0.00000  Uiso   1.00
N209   N     0.49999   0.49999   0.28573   0.00000  Uiso   1.00
N210   N     0.50001   0.50001   0.04760   0.00000  Uiso   1.00
O211   O     0.50000   0.43892   0.20487   0.00000  Uiso   1.00
O212   O     0.50000   0.56108   0.12846   0.00000  Uiso   1.00
O213   O     0.50000   0.43893   0.12843   0.00000  Uiso   1.00
O214   O     0.50000   0.56107   0.20490   0.00000  Uiso   1.00
O215   O     0.42392   0.50000   0.19595   0.00000  Uiso   1.00
O216   O     0.57608   0.50000   0.13739   0.00000  Uiso   1.00
O217   O     0.42392   0.50000   0.11950   0.00000  Uiso   1.00
O218   O     0.57608   0.50000   0.21383   0.00000  Uiso   1.00
Zn219  Zn    0.50000   0.49999   0.21771   0.00000  Uiso   1.00
Zn220  Zn    0.50000   0.50001   0.11563   0.00000  Uiso   1.00
C221   C     0.83332   0.41997   0.16665   0.00000  Uiso   1.00
C222   C     0.81964   0.35462   0.20459   0.00000  Uiso   1.00
C223   C     0.83335   0.62418   0.16667   0.00000  Uiso   1.00
C224   C     0.83332   0.37582   0.16666   0.00000  Uiso   1.00
C225   C     0.86714   0.52476   0.02804   0.00000  Uiso   1.00
C226   C     0.79953   0.47524   0.30530   0.00000  Uiso   1.00
C227   C     0.86712   0.52476   0.31340   0.00000  Uiso   1.00
C228   C     0.79955   0.47524   0.01993   0.00000  Uiso   1.00
C229   C     0.99217   0.45860   0.11584   0.00000  Uiso   1.00
C230   C     0.67449   0.54140   0.21750   0.00000  Uiso   1.00
C231   C     0.83335   0.58003   0.16668   0.00000  Uiso   1.00
C232   C     0.73399   0.49916   0.15517   0.00000  Uiso   1.00
C233   C     0.93268   0.50084   0.17817   0.00000  Uiso   1.00
C234   C     0.68009   0.49146   0.15084   0.00000  Uiso   1.00
C235   C     0.98657   0.50854   0.18250   0.00000  Uiso   1.00
C236   C     0.84701   0.35471   0.12873   0.00000  Uiso   1.00
C237   C     0.81965   0.64529   0.20460   0.00000  Uiso   1.00
C238   C     0.84703   0.64538   0.12874   0.00000  Uiso   1.00
H239   H     0.85808   0.37104   0.09940   0.00000  Uiso   1.00
H240   H     0.96851   0.43514   0.13156   0.00000  Uiso   1.00
H241   H     0.96850   0.47348   0.08601   0.00000  Uiso   1.00
H242   H     0.97592   0.55874   0.23067   0.00000  Uiso   1.00
H243   H     0.69817   0.52652   0.24732   0.00000  Uiso   1.00
H244   H     0.69816   0.56486   0.20177   0.00000  Uiso   1.00
H245   H     0.80859   0.62896   0.23393   0.00000  Uiso   1.00
H246   H     0.85810   0.62912   0.09941   0.00000  Uiso   1.00
H247   H     0.80857   0.37088   0.23392   0.00000  Uiso   1.00
H248   H     0.89416   0.54456   0.04946   0.00000  Uiso   1.00
H249   H     0.77250   0.45544   0.28388   0.00000  Uiso   1.00
H250   H     0.89412   0.54456   0.29846   0.00000  Uiso   1.00
H251   H     0.77255   0.45544   0.03487   0.00000  Uiso   1.00
H252   H     0.69075   0.44126   0.10266   0.00000  Uiso   1.00
N253   N     0.83332   0.49999   0.28573   0.00000  Uiso   1.00
N254   N     0.83335   0.50001   0.04760   0.00000  Uiso   1.00
O255   O     0.83333   0.43892   0.20487   0.00000  Uiso   1.00
O256   O     0.83334   0.56108   0.12846   0.00000  Uiso   1.00
O257   O     0.83333   0.43893   0.12843   0.00000  Uiso   1.00
O258   O     0.83334   0.56107   0.20490   0.00000  Uiso   1.00
O259   O     0.75725   0.50000   0.19595   0.00000  Uiso   1.00
O260   O     0.90942   0.50000   0.13739   0.00000  Uiso   1.00
O261   O     0.75725   0.50000   0.11950   0.00000  Uiso   1.00
O262   O     0.90942   0.50000   0.21383   0.00000  Uiso   1.00
Zn263  Zn    0.83333   0.49999   0.21771   0.00000  Uiso   1.00
Zn264  Zn    0.83333   0.50001   0.11563   0.00000  Uiso   1.00
C265   C     0.16665   0.75330   0.16665   0.00000  Uiso   1.00
C266   C     0.15297   0.68795   0.20459   0.00000  Uiso   1.00
C267   C     0.16668   0.95751   0.16667   0.00000  Uiso   1.00
C268   C     0.16665   0.70916   0.16666   0.00000  Uiso   1.00
C269   C     0.20047   0.85810   0.02804   0.00000  Uiso   1.00
C270   C     0.13286   0.80857   0.30530   0.00000  Uiso   1.00
C271   C     0.20045   0.85809   0.31340   0.00000  Uiso   1.00
C272   C     0.13288   0.80857   0.01993   0.00000  Uiso   1.00
C273   C     0.32551   0.79193   0.11584   0.00000  Uiso   1.00
C274   C     0.00783   0.87473   0.21750   0.00000  Uiso   1.00
C275   C     0.16668   0.91337   0.16668   0.00000  Uiso   1.00
C276   C     0.06732   0.83249   0.15517   0.00000  Uiso   1.00
C277   C     0.26601   0.83417   0.17817   0.00000  Uiso   1.00
C278   C     0.01343   0.82479   0.15084   0.00000  Uiso   1.00
C279   C     0.31990   0.84188   0.18250   0.00000  Uiso   1.00
C280   C     0.18035   0.68804   0.12873   0.00000  Uiso   1.00
C281   C     0.15299   0.97863   0.20460   0.00000  Uiso   1.00
C282   C     0.18036   0.97872   0.12874   0.00000  Uiso   1.00
H283   H     0.19141   0.70438   0.09940   0.00000  Uiso   1.00
H284   H     0.30184   0.76847   0.13156   0.00000  Uiso   1.00
H285   H     0.30183   0.80681   0.08601   0.00000  Uiso   1.00
H286   H     0.30925   0.89207   0.23067   0.00000  Uiso   1.00
H287   H     0.03150   0.85985   0.24732   0.00000  Uiso   1.00
H288   H     0.03149   0.89820   0.20177   0.00000  Uiso   1.00
H289   H     0.14192   0.96229   0.23393   0.00000  Uiso   1.00
H290   H     0.19143   0.96245   0.09941   0.00000  Uiso   1.00
H291   H     0.14190   0.70421   0.23392   0.00000  Uiso   1.00
H292   H     0.22750   0.87789   0.04946   0.00000  Uiso   1.00
H293   H     0.10584   0.78878   0.28388   0.00000  Uiso   1.00
H294   H     0.22745   0.87789   0.29846   0.00000  Uiso   1.00
H295   H     0.10588   0.78878   0.03487   0.00000  Uiso   1.00
H296   H     0.02408   0.77459   0.10266   0.00000  Uiso   1.00
N297   N     0.16665   0.83332   0.28573   0.00000  Uiso   1.00
N298   N     0.16668   0.83334   0.04760   0.00000  Uiso   1.00
O299   O     0.16666   0.77225   0.20487   0.00000  Uiso   1.00
O300   O     0.16667   0.89442   0.12846   0.00000  Uiso   1.00
O301   O     0.16666   0.77226   0.12843   0.00000  Uiso   1.00
O302   O     0.16667   0.89441   0.20490   0.00000  Uiso   1.00
O303   O     0.09058   0.83333   0.19595   0.00000  Uiso   1.00
O304   O     0.24275   0.83334   0.13739   0.00000  Uiso   1.00
O305   O     0.09058   0.83334   0.11950   0.00000  Uiso   1.00
O306   O     0.24275   0.83333   0.21383   0.00000  Uiso   1.00
Zn307  Zn    0.16667   0.83333   0.21771   0.00000  Uiso   1.00
Zn308  Zn    0.16667   0.83334   0.11563   0.00000  Uiso   1.00
C309   C     0.49999   0.75330   0.16665   0.00000  Uiso   1.00
C310   C     0.48631   0.68795   0.20459   0.00000  Uiso   1.00
C311   C     0.50001   0.95751   0.16667   0.00000  Uiso   1.00
C312   C     0.49999   0.70916   0.16666   0.00000  Uiso   1.00
C313   C     0.53380   0.85810   0.02804   0.00000  Uiso   1.00
C314   C     0.46620   0.80857   0.30530   0.00000  Uiso   1.00
C315   C     0.53378   0.85809   0.31340   0.00000  Uiso   1.00
C316   C     0.46622   0.80857   0.01993   0.00000  Uiso   1.00
C317   C     0.65884   0.79193   0.11584   0.00000  Uiso   1.00
C318   C     0.34116   0.87473   0.21750   0.00000  Uiso   1.00
C319   C     0.50001   0.91337   0.16668   0.00000  Uiso   1.00
C320   C     0.40065   0.83249   0.15517   0.00000  Uiso   1.00
C321   C     0.59935   0.83417   0.17817   0.00000  Uiso   1.00
C322   C     0.34676   0.82479   0.15084   0.00000  Uiso   1.00
C323   C     0.65324   0.84188   0.18250   0.00000  Uiso   1.00
C324   C     0.51368   0.68804   0.12873   0.00000  Uiso   1.00
C325   C     0.48632   0.97863   0.20460   0.00000  Uiso   1.00
C326   C     0.51369   0.97872   0.12874   0.00000  Uiso   1.00
H327   H     0.52475   0.70438   0.09940   0.00000  Uiso   1.00
H328   H     0.63518   0.76847   0.13156   0.00000  Uiso   1.00
H329   H     0.63516   0.80681   0.08601   0.00000  Uiso   1.00
H330   H     0.64259   0.89207   0.23067   0.00000  Uiso   1.00
H331   H     0.36484   0.85985   0.24732   0.00000  Uiso   1.00
H332   H     0.36482   0.89820   0.20177   0.00000  Uiso   1.00
H333   H     0.47525   0.96229   0.23393   0.00000  Uiso   1.00
H334   H     0.52476   0.96245   0.09941   0.00000  Uiso   1.00
H335   H     0.47524   0.70421   0.23392   0.00000  Uiso   1.00
H336   H     0.56083   0.87789   0.04946   0.00000  Uiso   1.00
H337   H     0.43917   0.78878   0.28388   0.00000  Uiso   1.00
H338   H     0.56079   0.87789   0.29846   0.00000  Uiso   1.00
H339   H     0.43921   0.78878   0.03487   0.00000  Uiso   1.00
H340   H     0.35741   0.77459   0.10266   0.00000  Uiso   1.00
N341   N     0.49999   0.83332   0.28573   0.00000  Uiso   1.00
N342   N     0.50001   0.83334   0.04760   0.00000  Uiso   1.00
O343   O     0.50000   0.77225   0.20487   0.00000  Uiso   1.00
O344   O     0.50000   0.89442   0.12846   0.00000  Uiso   1.00
O345   O     0.50000   0.77226   0.12843   0.00000  Uiso   1.00
O346   O     0.50000   0.89441   0.20490   0.00000  Uiso   1.00
O347   O     0.42392   0.83333   0.19595   0.00000  Uiso   1.00
O348   O     0.57608   0.83334   0.13739   0.00000  Uiso   1.00
O349   O     0.42392   0.83334   0.11950   0.00000  Uiso   1.00
O350   O     0.57608   0.83333   0.21383   0.00000  Uiso   1.00
Zn351  Zn    0.50000   0.83333   0.21771   0.00000  Uiso   1.00
Zn352  Zn    0.50000   0.83334   0.11563   0.00000  Uiso   1.00
C353   C     0.83332   0.75330   0.16665   0.00000  Uiso   1.00
C354   C     0.81964   0.68795   0.20459   0.00000  Uiso   1.00
C355   C     0.83335   0.95751   0.16667   0.00000  Uiso   1.00
C356   C     0.83332   0.70916   0.16666   0.00000  Uiso   1.00
C357   C     0.86714   0.85810   0.02804   0.00000  Uiso   1.00
C358   C     0.79953   0.80857   0.30530   0.00000  Uiso   1.00
C359   C     0.86712   0.85809   0.31340   0.00000  Uiso   1.00
C360   C     0.79955   0.80857   0.01993   0.00000  Uiso   1.00
C361   C     0.99217   0.79193   0.11584   0.00000  Uiso   1.00
C362   C     0.67449   0.87473   0.21750   0.00000  Uiso   1.00
C363   C     0.83335   0.91337   0.16668   0.00000  Uiso   1.00
C364   C     0.73399   0.83249   0.15517   0.00000  Uiso   1.00
C365   C     0.93268   0.83417   0.17817   0.00000  Uiso   1.00
C366   C     0.68009   0.82479   0.15084   0.00000  Uiso   1.00
C367   C     0.98657   0.84188   0.18250   0.00000  Uiso   1.00
C368   C     0.84701   0.68804   0.12873   0.00000  Uiso   1.00
C369   C     0.81965   0.97863   0.20460   0.00000  Uiso   1.00
C370   C     0.84703   0.97872   0.12874   0.00000  Uiso   1.00
H371   H     0.85808   0.70438   0.09940   0.00000  Uiso   1.00
H372   H     0.96851   0.76847   0.13156   0.00000  Uiso   1.00
H373   H     0.96850   0.80681   0.08601   0.00000  Uiso   1.00
H374   H     0.97592   0.89207   0.23067   0.00000  Uiso   1.00
H375   H     0.69817   0.85985   0.24732   0.00000  Uiso   1.00
H376   H     0.69816   0.89820   0.20177   0.00000  Uiso   1.00
H377   H     0.80859   0.96229   0.23393   0.00000  Uiso   1.00
H378   H     0.85810   0.96245   0.09941   0.00000  Uiso   1.00
H379   H     0.80857   0.70421   0.23392   0.00000  Uiso   1.00
H380   H     0.89416   0.87789   0.04946   0.00000  Uiso   1.00
H381   H     0.77250   0.78878   0.28388   0.00000  Uiso   1.00
H382   H     0.89412   0.87789   0.29846   0.00000  Uiso   1.00
H383   H     0.77255   0.78878   0.03487   0.00000  Uiso   1.00
H384   H     0.69075   0.77459   0.10266   0.00000  Uiso   1.00
N385   N     0.83332   0.83332   0.28573   0.00000  Uiso   1.00
N386   N     0.83335   0.83334   0.04760   0.00000  Uiso   1.00
O387   O     0.83333   0.77225   0.20487   0.00000  Uiso   1.00
O388   O     0.83334   0.89442   0.12846   0.00000  Uiso   1.00
O389   O     0.83333   0.77226   0.12843   0.00000  Uiso   1.00
O390   O     0.83334   0.89441   0.20490   0.00000  Uiso   1.00
O391   O     0.75725   0.83333   0.19595   0.00000  Uiso   1.00
O392   O     0.90942   0.83334   0.13739   0.00000  Uiso   1.00
O393   O     0.75725   0.83334   0.11950   0.00000  Uiso   1.00
O394   O     0.90942   0.83333   0.21383   0.00000  Uiso   1.00
Zn395  Zn    0.83333   0.83333   0.21771   0.00000  Uiso   1.00
Zn396  Zn    0.83333   0.83334   0.11563   0.00000  Uiso   1.00
C397   C     0.16665   0.08663   0.49999   0.00000  Uiso   1.00
C398   C     0.15297   0.02128   0.53793   0.00000  Uiso   1.00
C399   C     0.16668   0.29084   0.50001   0.00000  Uiso   1.00
C400   C     0.16665   0.04249   0.49999   0.00000  Uiso   1.00
C401   C     0.20047   0.19143   0.36137   0.00000  Uiso   1.00
C402   C     0.13286   0.14190   0.63863   0.00000  Uiso   1.00
C403   C     0.20045   0.19142   0.64674   0.00000  Uiso   1.00
C404   C     0.13288   0.14191   0.35326   0.00000  Uiso   1.00
C405   C     0.32551   0.12527   0.44917   0.00000  Uiso   1.00
C406   C     0.00783   0.20807   0.55083   0.00000  Uiso   1.00
C407   C     0.16668   0.24670   0.50001   0.00000  Uiso   1.00
C408   C     0.06732   0.16583   0.48850   0.00000  Uiso   1.00
C409   C     0.26601   0.16751   0.51150   0.00000  Uiso   1.00
C410   C     0.01343   0.15812   0.48417   0.00000  Uiso   1.00
C411   C     0.31990   0.17521   0.51583   0.00000  Uiso   1.00
C412   C     0.18035   0.02137   0.46207   0.00000  Uiso   1.00
C413   C     0.15299   0.31196   0.53793   0.00000  Uiso   1.00
C414   C     0.18036   0.31205   0.46207   0.00000  Uiso   1.00
H415   H     0.19141   0.03771   0.43273   0.00000  Uiso   1.00
H416   H     0.30184   0.10180   0.46490   0.00000  Uiso   1.00
H417   H     0.30183   0.14014   0.41935   0.00000  Uiso   1.00
H418   H     0.30925   0.22541   0.56401   0.00000  Uiso   1.00
H419   H     0.03150   0.19319   0.58065   0.00000  Uiso   1.00
H420   H     0.03149   0.23153   0.53511   0.00000  Uiso   1.00
H421   H     0.14192   0.29562   0.56727   0.00000  Uiso   1.00
H422   H     0.19143   0.29579   0.43274   0.00000  Uiso   1.00
H423   H     0.14190   0.03755   0.56726   0.00000  Uiso   1.00
H424   H     0.22750   0.21122   0.38279   0.00000  Uiso   1.00
H425   H     0.10584   0.12211   0.61721   0.00000  Uiso   1.00
H426   H     0.22745   0.21122   0.63179   0.00000  Uiso   1.00
H427   H     0.10588   0.12211   0.36821   0.00000  Uiso   1.00
H428   H     0.02408   0.10793   0.43599   0.00000  Uiso   1.00
N429   N     0.16665   0.16666   0.61907   0.00000  Uiso   1.00
N430   N     0.16668   0.16668   0.38093   0.00000  Uiso   1.00
O431   O     0.16666   0.10558   0.53821   0.00000  Uiso   1.00
O432   O     0.16667   0.22775   0.46179   0.00000  Uiso   1.00
O433   O     0.16666   0.10559   0.46176   0.00000  Uiso   1.00
O434   O     0.16667   0.22774   0.53824   0.00000  Uiso   1.00
O435   O     0.09058   0.16666   0.52928   0.00000  Uiso   1.00
O436   O     0.24275   0.16667   0.47072   0.00000  Uiso   1.00
O437   O     0.09058   0.16667   0.45284   0.00000  Uiso   1.00
O438   O     0.24275   0.16666   0.54716   0.00000  Uiso   1.00
Zn439  Zn    0.16667   0.16666   0.55104   0.00000  Uiso   1.00
Zn440  Zn    0.16667   0.16667   0.44896   0.00000  Uiso   1.00
C441   C     0.49999   0.08663   0.49999   0.00000  Uiso   1.00
C442   C     0.48631   0.02128   0.53793   0.00000  Uiso   1.00
C443   C     0.50001   0.29084   0.50001   0.00000  Uiso   1.00
C444   C     0.49999   0.04249   0.49999   0.00000  Uiso   1.00
C445   C     0.53380   0.19143   0.36137   0.00000  Uiso   1.00
C446   C     0.46620   0.14190   0.63863   0.00000  Uiso   1.00
C447   C     0.53378   0.19142   0.64674   0.00000  Uiso   1.00
C448   C     0.46622   0.14191   0.35326   0.00000  Uiso   1.00
C449   C     0.65884   0.12527   0.44917   0.00000  Uiso   1.00
C450   C     0.34116   0.20807   0.55083   0.00000  Uiso   1.00
C451   C     0.50001   0.24670   0.50001   0.00000  Uiso   1.00
C452   C     0.40065   0.16583   0.48850   0.00000  Uiso   1.00
C453   C     0.59935   0.16751   0.51150   0.00000  Uiso   1.00
C454   C     0.34676   0.15812   0.48417   0.00000  Uiso   1.00
C455   C     0.65324   0.17521   0.51583   0.00000  Uiso   1.00
C456   C     0.51368   0.02137   0.46207   0.00000  Uiso   1.00
C457   C     0.48632   0.31196   0.53793   0.00000  Uiso   1.00
C458   C     0.51369   0.31205   0.46207   0.00000  Uiso   1.00
H459   H     0.52475   0.03771   0.43273   0.00000  Uiso   1.00
H460   H     0.63518   0.10180   0.46490   0.00000  Uiso   1.00
H461   H     0.63516   0.14014   0.41935   0.00000  Uiso   1.00
H462   H     0.64259   0.22541   0.56401   0.00000  Uiso   1.00
H463   H     0.36484   0.19319   0.58065   0.00000  Uiso   1.00
H464   H     0.36482   0.23153   0.53511   0.00000  Uiso   1.00
H465   H     0.47525   0.29562   0.56727   0.00000  Uiso   1.00
H466   H     0.52476   0.29579   0.43274   0.00000  Uiso   1.00
H467   H     0.47524   0.03755   0.56726   0.00000  Uiso   1.00
H468   H     0.56083   0.21122   0.38279   0.00000  Uiso   1.00
H469   H     0.43917   0.12211   0.61721   0.00000  Uiso   1.00
H470   H     0.56079   0.21122   0.63179   0.00000  Uiso   1.00
H471   H     0.43921   0.12211   0.36821   0.00000  Uiso   1.00
H472   H     0.35741   0.10793   0.43599   0.00000  Uiso   1.00
N473   N     0.49999   0.16666   0.61907   0.00000  Uiso   1.00
N474   N     0.50001   0.16668   0.38093   0.00000  Uiso   1.00
O475   O     0.50000   0.10558   0.53821   0.00000  Uiso   1.00
O476   O     0.50000   0.22775   0.46179   0.00000  Uiso   1.00
O477   O     0.50000   0.10559   0.46176   0.00000  Uiso   1.00
O478   O     0.50000   0.22774   0.53824   0.00000  Uiso   1.00
O479   O     0.42392   0.16666   0.52928   0.00000  Uiso   1.00
O480   O     0.57608   0.16667   0.47072   0.00000  Uiso   1.00
O481   O     0.42392   0.16667   0.45284   0.00000  Uiso   1.00
O482   O     0.57608   0.16666   0.54716   0.00000  Uiso   1.00
Zn483  Zn    0.50000   0.16666   0.55104   0.00000  Uiso   1.00
Zn484  Zn    0.50000   0.16667   0.44896   0.00000  Uiso   1.00
C485   C     0.83332   0.08663   0.49999   0.00000  Uiso   1.00
C486   C     0.81964   0.02128   0.53793   0.00000  Uiso   1.00
C487   C     0.83335   0.29084   0.50001   0.00000  Uiso   1.00
C488   C     0.83332   0.04249   0.49999   0.00000  Uiso   1.00
C489   C     0.86714   0.19143   0.36137   0.00000  Uiso   1.00
C490   C     0.79953   0.14190   0.63863   0.00000  Uiso   1.00
C491   C     0.86712   0.19142   0.64674   0.00000  Uiso   1.00
C492   C     0.79955   0.14191   0.35326   0.00000  Uiso   1.00
C493   C     0.99217   0.12527   0.44917   0.00000  Uiso   1.00
C494   C     0.67449   0.20807   0.55083   0.00000  Uiso   1.00
C495   C     0.83335   0.24670   0.50001   0.00000  Uiso   1.00
C496   C     0.73399   0.16583   0.48850   0.00000  Uiso   1.00
C497   C     0.93268   0.16751   0.51150   0.00000  Uiso   1.00
C498   C     0.68009   0.15812   0.48417   0.00000  Uiso   1.00
C499   C     0.98657   0.17521   0.51583   0.00000  Uiso   1.00
C500   C     0.84701   0.02137   0.46207   0.00000  Uiso   1.00
C501   C     0.81965   0.31196   0.53793   0.00000  Uiso   1.00
C502   C     0.84703   0.31205   0.46207   0.00000  Uiso   1.00
H503   H     0.85808   0.03771   0.43273   0.00000  Uiso   1.00
H504   H     0.96851   0.10180   0.46490   0.00000  Uiso   1.00
H505   H     0.96850   0.14014   0.41935   0.00000  Uiso   1.00
H506   H     0.97592   0.22541   0.56401   0.00000  Uiso   1.00
H507   H     0.69817   0.19319   0.58065   0.00000  Uiso   1.00
H508   H     0.69816   0.23153   0.53511   0.00000  Uiso   1.00
H509   H     0.80859   0.29562   0.56727   0.00000  Uiso   1.00
H510   H     0.85810   0.29579   0.43274   0.00000  Uiso   1.00
H511   H     0.80857   0.03755   0.56726   0.00000  Uiso   1.00
H512   H     0.89416   0.21122   0.38279   0.00000  Uiso   1.00
H513   H     0.77250   0.12211   0.61721   0.00000  Uiso   1.00
H514   H     0.89412   0.21122   0.63179   0.00000  Uiso   1.00
H515   H     0.77255   0.12211   0.36821   0.00000  Uiso   1.00
H516   H     0.69075   0.10793   0.43599   0.00000  Uiso   1.00
N517   N     0.83332   0.16666   0.61907   0.00000  Uiso   1.00
N518   N     0.83335   0.16668   0.38093   0.00000  Uiso   1.00
O519   O     0.83333   0.10558   0.53821   0.00000  Uiso   1.00
O520   O     0.83334   0.22775   0.46179   0.00000  Uiso   1.00
O521   O     0.83333   0.10559   0.46176   0.00000  Uiso   1.00
O522   O     0.83334   0.22774   0.53824   0.00000  Uiso   1.00
O523   O     0.75725   0.16666   0.52928   0.00000  Uiso   1.00
O524   O     0.90942   0.16667   0.47072   0.00000  Uiso   1.00
O525   O     0.75725   0.16667   0.45284   0.00000  Uiso   1.00
O526   O     0.90942   0.16666   0.54716   0.00000  Uiso   1.00
Zn527  Zn    0.83333   0.16666   0.55104   0.00000  Uiso   1.00
Zn528  Zn    0.83333   0.16667   0.44896   0.00000  Uiso   1.00
C529   C     0.16665   0.41997   0.49999   0.00000  Uiso   1.00
C530   C     0.15297   0.35462   0.53793   0.00000  Uiso   1.00
C531   C     0.16668   0.62418   0.50001   0.00000  Uiso   1.00
C532   C     0.16665   0.37582   0.49999   0.00000  Uiso   1.00
C533   C     0.20047   0.52476   0.36137   0.00000  Uiso   1.00
C534   C     0.13286   0.47524   0.63863   0.00000  Uiso   1.00
C535   C     0.20045   0.52476   0.64674   0.00000  Uiso   1.00
C536   C     0.13288   0.47524   0.35326   0.00000  Uiso   1.00
C537   C     0.32551   0.45860   0.44917   0.00000  Uiso   1.00
C538   C     0.00783   0.54140   0.55083   0.00000  Uiso   1.00
C539   C     0.16668   0.58003   0.50001   0.00000  Uiso   1.00
C540   C     0.06732   0.49916   0.48850   0.00000  Uiso   1.00
C541   C     0.26601   0.50084   0.51150   0.00000  Uiso   1.00
C542   C     0.01343   0.49146   0.48417   0.00000  Uiso   1.00
C543   C     0.31990   0.50854   0.51583   0.00000  Uiso   1.00
C544   C     0.18035   0.35471   0.46207   0.00000  Uiso   1.00
C545   C     0.15299   0.64529   0.53793   0.00000  Uiso   1.00
C546   C     0.18036   0.64538   0.46207   0.00000  Uiso   1.00
H547   H     0.19141   0.37104   0.43273   0.00000  Uiso   1.00
H548   H     0.30184   0.43514   0.46490   0.00000  Uiso   1.00
H549   H     0.30183   0.47348   0.41935   0.00000  Uiso   1.00
H550   H     0.30925   0.55874   0.56401   0.00000  Uiso   1.00
H551   H     0.03150   0.52652   0.58065   0.00000  Uiso   1.00
H552   H     0.03149   0.56486   0.53511   0.00000  Uiso   1.00
H553   H     0.14192   0.62896   0.56727   0.00000  Uiso   1.00
H554   H     0.19143   0.62912   0.43274   0.00000  Uiso   1.00
H555   H     0.14190   0.37088   0.56726   0.00000  Uiso   1.00
H556   H     0.22750   0.54456   0.38279   0.00000  Uiso   1.00
H557   H     0.10584   0.45544   0.61721   0.00000  Uiso   1.00
H558   H     0.22745   0.54456   0.63179   0.00000  Uiso   1.00
H559   H     0.10588   0.45544   0.36821   0.00000  Uiso   1.00
H560   H     0.02408   0.44126   0.43599   0.00000  Uiso   1.00
N561   N     0.16665   0.49999   0.61907   0.00000  Uiso   1.00
N562   N     0.16668   0.50001   0.38093   0.00000  Uiso   1.00
O563   O     0.16666   0.43892   0.53821   0.00000  Uiso   1.00
O564   O     0.16667   0.56108   0.46179   0.00000  Uiso   1.00
O565   O     0.16666   0.43893   0.46176   0.00000  Uiso   1.00
O566   O     0.16667   0.56107   0.53824   0.00000  Uiso   1.00
O567   O     0.09058   0.50000   0.52928   0.00000  Uiso   1.00
O568   O     0.24275   0.50000   0.47072   0.00000  Uiso   1.00
O569   O     0.09058   0.50000   0.45284   0.00000  Uiso   1.00
O570   O     0.24275   0.50000   0.54716   0.00000  Uiso   1.00
Zn571  Zn    0.16667   0.49999   0.55104   0.00000  Uiso   1.00
Zn572  Zn    0.16667   0.50001   0.44896   0.00000  Uiso   1.00
C573   C     0.49999   0.41997   0.49999   0.00000  Uiso   1.00
C574   C     0.48631   0.35462   0.53793   0.00000  Uiso   1.00
C575   C     0.50001   0.62418   0.50001   0.00000  Uiso   1.00
C576   C     0.49999   0.37582   0.49999   0.00000  Uiso   1.00
C577   C     0.53380   0.52476   0.36137   0.00000  Uiso   1.00
C578   C     0.46620   0.47524   0.63863   0.00000  Uiso   1.00
C579   C     0.53378   0.52476   0.64674   0.00000  Uiso   1.00
C580   C     0.46622   0.47524   0.35326   0.00000  Uiso   1.00
C581   C     0.65884   0.45860   0.44917   0.00000  Uiso   1.00
C582   C     0.34116   0.54140   0.55083   0.00000  Uiso   1.00
C583   C     0.50001   0.58003   0.50001   0.00000  Uiso   1.00
C584   C     0.40065   0.49916   0.48850   0.00000  Uiso   1.00
C585   C     0.59935   0.50084   0.51150   0.00000  Uiso   1.00
C586   C     0.34676   0.49146   0.48417   0.00000  Uiso   1.00
C587   C     0.65324   0.50854   0.51583   0.00000  Uiso   1.00
C588   C     0.51368   0.35471   0.46207   0.00000  Uiso   1.00
C589   C     0.48632   0.64529   0.53793   0.00000  Uiso   1.00
C590   C     0.51369   0.64538   0.46207   0.00000  Uiso   1.00
H591   H     0.52475   0.37104   0.43273   0.00000  Uiso   1.00
H592   H     0.63518   0.43514   0.46490   0.00000  Uiso   1.00
H593   H     0.63516   0.47348   0.41935   0.00000  Uiso   1.00
H594   H     0.64259   0.55874   0.56401   0.00000  Uiso   1.00
H595   H     0.36484   0.52652   0.58065   0.00000  Uiso   1.00
H596   H     0.36482   0.56486   0.53511   0.00000  Uiso   1.00
H597   H     0.47525   0.62896   0.56727   0.00000  Uiso   1.00
H598   H     0.52476   0.62912   0.43274   0.00000  Uiso   1.00
H599   H     0.47524   0.37088   0.56726   0.00000  Uiso   1.00
H600   H     0.56083   0.54456   0.38279   0.00000  Uiso   1.00
H601   H     0.43917   0.45544   0.61721   0.00000  Uiso   1.00
H602   H     0.56079   0.54456   0.63179   0.00000  Uiso   1.00
H603   H     0.43921   0.45544   0.36821   0.00000  Uiso   1.00
H604   H     0.35741   0.44126   0.43599   0.00000  Uiso   1.00
N605   N     0.49999   0.49999   0.61907   0.00000  Uiso   1.00
N606   N     0.50001   0.50001   0.38093   0.00000  Uiso   1.00
O607   O     0.50000   0.43892   0.53821   0.00000  Uiso   1.00
O608   O     0.50000   0.56108   0.46179   0.00000  Uiso   1.00
O609   O     0.50000   0.43893   0.46176   0.00000  Uiso   1.00
O610   O     0.50000   0.56107   0.53824   0.00000  Uiso   1.00
O611   O     0.42392   0.50000   0.52928   0.00000  Uiso   1.00
O612   O     0.57608   0.50000   0.47072   0.00000  Uiso   1.00
O613   O     0.42392   0.50000   0.45284   0.00000  Uiso   1.00
O614   O     0.57608   0.50000   0.54716   0.00000  Uiso   1.00
Zn615  Zn    0.50000   0.49999   0.55104   0.00000  Uiso   1.00
Zn616  Zn    0.50000   0.50001   0.44896   0.00000  Uiso   1.00
C617   C     0.83332   0.41997   0.49999   0.00000  Uiso   1.00
C618   C     0.81964   0.35462   0.53793   0.00000  Uiso   1.00
C619   C     0.83335   0.62418   0.50001   0.00000  Uiso   1.00
C620   C     0.83332   0.37582   0.49999   0.00000  Uiso   1.00
C621   C     0.86714   0.52476   0.36137   0.00000  Uiso   1.00
C622   C     0.79953   0.47524   0.63863   0.00000  Uiso   1.00
C623   C     0.86712   0.52476   0.64674   0.00000  Uiso   1.00
C624   C     0.79955   0.47524   0.35326   0.00000  Uiso   1.00
C625   C     0.99217   0.45860   0.44917   0.00000  Uiso   1.00
C626   C     0.67449   0.54140   0.55083   0.00000  Uiso   1.00
C627   C     0.83335   0.58003   0.50001   0.00000  Uiso   1.00
C628   C     0.73399   0.49916   0.48850   0.00000  Uiso   1.00
C629   C     0.93268   0.50084   0.51150   0.00000  Uiso   1.00
C630   C     0.68009   0.49146   0.48417   0.00000  Uiso   1.00
C631   C     0.98657   0.50854   0.51583   0.00000  Uiso   1.00
C632   C     0.84701   0.35471   0.46207   0.00000  Uiso   1.00
C633   C     0.81965   0.64529   0.53793   0.00000  Uiso   1.00
C634   C     0.84703   0.64538   0.46207   0.00000  Uiso   1.00
H635   H     0.85808   0.37104   0.43273   0.00000  Uiso   1.00
H636   H     0.96851   0.43514   0.46490   0.00000  Uiso   1.00
H637   H     0.96850   0.47348   0.41935   0.00000  Uiso   1.00
H638   H     0.97592   0.55874   0.56401   0.00000  Uiso   1.00
H639   H     0.69817   0.52652   0.58065   0.00000  Uiso   1.00
H640   H     0.69816   0.56486   0.53511   0.00000  Uiso   1.00
H641   H     0.80859   0.62896   0.56727   0.00000  Uiso   1.00
H642   H     0.85810   0.62912   0.43274   0.00000  Uiso   1.00
H643   H     0.80857   0.37088   0.56726   0.00000  Uiso   1.00
H644   H     0.89416   0.54456   0.38279   0.00000  Uiso   1.00
H645   H     0.77250   0.45544   0.61721   0.00000  Uiso   1.00
H646   H     0.89412   0.54456   0.63179   0.00000  Uiso   1.00
H647   H     0.77255   0.45544   0.36821   0.00000  Uiso   1.00
H648   H     0.69075   0.44126   0.43599   0.00000  Uiso   1.00
N649   N     0.83332   0.49999   0.61907   0.00000  Uiso   1.00
N650   N     0.83335   0.50001   0.38093   0.00000  Uiso   1.00
O651   O     0.83333   0.43892   0.53821   0.00000  Uiso   1.00
O652   O     0.83334   0.56108   0.46179   0.00000  Uiso   1.00
O653   O     0.83333   0.43893   0.46176   0.00000  Uiso   1.00
O654   O     0.83334   0.56107   0.53824   0.00000  Uiso   1.00
O655   O     0.75725   0.50000   0.52928   0.00000  Uiso   1.00
O656   O     0.90942   0.50000   0.47072   0.00000  Uiso   1.00
O657   O     0.75725   0.50000   0.45284   0.00000  Uiso   1.00
O658   O     0.90942   0.50000   0.54716   0.00000  Uiso   1.00
Zn659  Zn    0.83333   0.49999   0.55104   0.00000  Uiso   1.00
Zn660  Zn    0.83333   0.50001   0.44896   0.00000  Uiso   1.00
C661   C     0.16665   0.75330   0.49999   0.00000  Uiso   1.00
C662   C     0.15297   0.68795   0.53793   0.00000  Uiso   1.00
C663   C     0.16668   0.95751   0.50001   0.00000  Uiso   1.00
C664   C     0.16665   0.70916   0.49999   0.00000  Uiso   1.00
C665   C     0.20047   0.85810   0.36137   0.00000  Uiso   1.00
C666   C     0.13286   0.80857   0.63863   0.00000  Uiso   1.00
C667   C     0.20045   0.85809   0.64674   0.00000  Uiso   1.00
C668   C     0.13288   0.80857   0.35326   0.00000  Uiso   1.00
C669   C     0.32551   0.79193   0.44917   0.00000  Uiso   1.00
C670   C     0.00783   0.87473   0.55083   0.00000  Uiso   1.00
C671   C     0.16668   0.91337   0.50001   0.00000  Uiso   1.00
C672   C     0.06732   0.83249   0.48850   0.00000  Uiso   1.00
C673   C     0.26601   0.83417   0.51150   0.00000  Uiso   1.00
C674   C     0.01343   0.82479   0.48417   0.00000  Uiso   1.00
C675   C     0.31990   0.84188   0.51583   0.00000  Uiso   1.00
C676   C     0.18035   0.68804   0.46207   0.00000  Uiso   1.00
C677   C     0.15299   0.97863   0.53793   0.00000  Uiso   1.00
C678   C     0.18036   0.97872   0.46207   0.00000  Uiso   1.00
H679   H     0.19141   0.70438   0.43273   0.00000  Uiso   1.00
H680   H     0.30184   0.76847   0.46490   0.00000  Uiso   1.00
H681   H     0.30183   0.80681   0.41935   0.00000  Uiso   1.00
H682   H     0.30925   0.89207   0.56401   0.00000  Uiso   1.00
H683   H     0.03150   0.85985   0.58065   0.00000  Uiso   1.00
H684   H     0.03149   0.89820   0.53511   0.00000  Uiso   1.00
H685   H     0.14192   0.96229   0.56727   0.00000  Uiso   1.00
H686   H     0.19143   0.96245   0.43274   0.00000  Uiso   1.00
H687   H     0.14190   0.70421   0.56726   0.00000  Uiso   1.00
H688   H     0.22750   0.87789   0.38279   0.00000  Uiso   1.00
H689   H     0.10584   0.78878   0.61721   0.00000  Uiso   1.00
H690   H     0.22745   0.87789   0.63179   0.00000  Uiso   1.00
H691   H     0.10588   0.78878   0.36821   0.00000  Uiso   1.00
H692   H     0.02408   0.77459   0.43599   0.00000  Uiso   1.00
N693   N     0.16665   0.83332   0.61907   0.00000  Uiso   1.00
N694   N     0.16668   0.83334   0.38093   0.00000  Uiso   1.00
O695   O     0.16666   0.77225   0.53821   0.00000  Uiso   1.00
O696   O     0.16667   0.89442   0.46179   0.00000  Uiso   1.00
O697   O     0.16666   0.77226   0.46176   0.00000  Uiso   1.00
O698   O     0.16667   0.89441   0.53824   0.00000  Uiso   1.00
O699   O     0.09058   0.83333   0.52928   0.00000  Uiso   1.00
O700   O     0.24275   0.83334   0.47072   0.00000  Uiso   1.00
O701   O     0.09058   0.83334   0.45284   0.00000  Uiso   1.00
O702   O     0.24275   0.83333   0.54716   0.00000  Uiso   1.00
Zn703  Zn    0.16667   0.83333   0.55104   0.00000  Uiso   1.00
Zn704  Zn    0.16667   0.83334   0.44896   0.00000  Uiso   1.00
C705   C     0.49999   0.75330   0.49999   0.00000  Uiso   1.00
C706   C     0.48631   0.68795   0.53793   0.00000  Uiso   1.00
C707   C     0.50001   0.95751   0.50001   0.00000  Uiso   1.00
C708   C     0.49999   0.70916   0.49999   0.00000  Uiso   1.00
C709   C     0.53380   0.85810   0.36137   0.00000  Uiso   1.00
C710   C     0.46620   0.80857   0.63863   0.00000  Uiso   1.00
C711   C     0.53378   0.85809   0.64674   0.00000  Uiso   1.00
C712   C     0.46622   0.80857   0.35326   0.00000  Uiso   1.00
C713   C     0.65884   0.79193   0.44917   0.00000  Uiso   1.00
C714   C     0.34116   0.87473   0.55083   0.00000  Uiso   1.00
C715   C     0.50001   0.91337   0.50001   0.00000  Uiso   1.00
C716   C     0.40065   0.83249   0.48850   0.00000  Uiso   1.00
C717   C     0.59935   0.83417   0.51150   0.00000  Uiso   1.00
C718   C     0.34676   0.82479   0.48417   0.00000  Uiso   1.00
C719   C     0.65324   0.84188   0.51583   0.00000  Uiso   1.00
C720   C     0.51368   0.68804   0.46207   0.00000  Uiso   1.00
C721   C     0.48632   0.97863   0.53793   0.00000  Uiso   1.00
C722   C     0.51369   0.97872   0.46207   0.00000  Uiso   1.00
H723   H     0.52475   0.70438   0.43273   0.00000  Uiso   1.00
H724   H     0.63518   0.76847   0.46490   0.00000  Uiso   1.00
H725   H     0.63516   0.80681   0.41935   0.00000  Uiso   1.00
H726   H     0.64259   0.89207   0.56401   0.00000  Uiso   1.00
H727   H     0.36484   0.85985   0.58065   0.00000  Uiso   1.00
H728   H     0.36482   0.89820   0.53511   0.00000  Uiso   1.00
H729   H     0.47525   0.96229   0.56727   0.00000  Uiso   1.00
H730   H     0.52476   0.96245   0.43274   0.00000  Uiso   1.00
H731   H     0.47524   0.70421   0.56726   0.00000  Uiso   1.00
H732   H     0.56083   0.87789   0.38279   0.00000  Uiso   1.00
H733   H     0.43917   0.78878   0.61721   0.00000  Uiso   1.00
H734   H     0.56079   0.87789   0.63179   0.00000  Uiso   1.00
H735   H     0.43921   0.78878   0.36821   0.00000  Uiso   1.00
H736   H     0.35741   0.77459   0.43599   0.00000  Uiso   1.00
N737   N     0.49999   0.83332   0.61907   0.00000  Uiso   1.00
N738   N     0.50001   0.83334   0.38093   0.00000  Uiso   1.00
O739   O     0.50000   0.77225   0.53821   0.00000  Uiso   1.00
O740   O     0.50000   0.89442   0.46179   0.00000  Uiso   1.00
O741   O     0.50000   0.77226   0.46176   0.00000  Uiso   1.00
O742   O     0.50000   0.89441   0.53824   0.00000  Uiso   1.00
O743   O     0.42392   0.83333   0.52928   0.00000  Uiso   1.00
O744   O     0.57608   0.83334   0.47072   0.00000  Uiso   1.00
O745   O     0.42392   0.83334   0.45284   0.00000  Uiso   1.00
O746   O     0.57608   0.83333   0.54716   0.00000  Uiso   1.00
Zn747  Zn    0.50000   0.83333   0.55104   0.00000  Uiso   1.00
Zn748  Zn    0.50000   0.83334   0.44896   0.00000  Uiso   1.00
C749   C     0.83332   0.75330   0.49999   0.00000  Uiso   1.00
C750   C     0.81964   0.68795   0.53793   0.00000  Uiso   1.00
C751   C     0.83335   0.95751   0.50001   0.00000  Uiso   1.00
C752   C     0.83332   0.70916   0.49999   0.00000  Uiso   1.00
C753   C     0.86714   0.85810   0.36137   0.00000  Uiso   1.00
C754   C     0.79953   0.80857   0.63863   0.00000  Uiso   1.00
C755   C     0.86712   0.85809   0.64674   0.00000  Uiso   1.00
C756   C     0.79955   0.80857   0.35326   0.00000  Uiso   1.00
C757   C     0.99217   0.79193   0.44917   0.00000  Uiso   1.00
C758   C     0.67449   0.87473   0.55083   0.00000  Uiso   1.00
C759   C     0.83335   0.91337   0.50001   0.00000  Uiso   1.00
C760   C     0.73399   0.83249   0.48850   0.00000  Uiso   1.00
C761   C     0.93268   0.83417   0.51150   0.00000  Uiso   1.00
C762   C     0.68009   0.82479   0.48417   0.00000  Uiso   1.00
C763   C     0.98657   0.84188   0.51583   0.00000  Uiso   1.00
C764   C     0.84701   0.68804   0.46207   0.00000  Uiso   1.00
C765   C     0.81965   0.97863   0.53793   0.00000  Uiso   1.00
C766   C     0.84703   0.97872   0.46207   0.00000  Uiso   1.00
H767   H     0.85808   0.70438   0.43273   0.00000  Uiso   1.00
H768   H     0.96851   0.76847   0.46490   0.00000  Uiso   1.00
H769   H     0.96850   0.80681   0.41935   0.00000  Uiso   1.00
H770   H     0.97592   0.89207   0.56401   0.00000  Uiso   1.00
H771   H     0.69817   0.85985   0.58065   0.00000  Uiso   1.00
H772   H     0.69816   0.89820   0.53511   0.00000  Uiso   1.00
H773   H     0.80859   0.96229   0.56727   0.00000  Uiso   1.00
H774   H     0.85810   0.96245   0.43274   0.00000  Uiso   1.00
H775   H     0.80857   0.70421   0.56726   0.00000  Uiso   1.00
H776   H     0.89416   0.87789   0.38279   0.00000  Uiso   1.00
H777   H     0.77250   0.78878   0.61721   0.00000  Uiso   1.00
H778   H     0.89412   0.87789   0.63179   0.00000  Uiso   1.00
H779   H     0.77255   0.78878   0.36821   0.00000  Uiso   1.00
H780   H     0.69075   0.77459   0.43599   0.00000  Uiso   1.00
N781   N     0.83332   0.83332   0.61907   0.00000  Uiso   1.00
N782   N     0.83335   0.83334   0.38093   0.00000  Uiso   1.00
O783   O     0.83333   0.77225   0.53821   0.00000  Uiso   1.00
O784   O     0.83334   0.89442   0.46179   0.00000  Uiso   1.00
O785   O     0.83333   0.77226   0.46176   0.00000  Uiso   1.00
O786   O     0.83334   0.89441   0.53824   0.00000  Uiso   1.00
O787   O     0.75725   0.83333   0.52928   0.00000  Uiso   1.00
O788   O     0.90942   0.83334   0.47072   0.00000  Uiso   1.00
O789   O     0.75725   0.83334   0.45284   0.00000  Uiso   1.00
O790   O     0.90942   0.83333   0.54716   0.00000  Uiso   1.00
Zn791  Zn    0.83333   0.83333   0.55104   0.00000  Uiso   1.00
Zn792  Zn    0.83333   0.83334   0.44896   0.00000  Uiso   1.00
C793   C     0.16665   0.08663   0.83332   0.00000  Uiso   1.00
C794   C     0.15297   0.02128   0.87126   0.00000  Uiso   1.00
C795   C     0.16668   0.29084   0.83334   0.00000  Uiso   1.00
C796   C     0.16665   0.04249   0.83333   0.00000  Uiso   1.00
C797   C     0.20047   0.19143   0.69470   0.00000  Uiso   1.00
C798   C     0.13286   0.14190   0.97196   0.00000  Uiso   1.00
C799   C     0.20045   0.19142   0.98007   0.00000  Uiso   1.00
C800   C     0.13288   0.14191   0.68660   0.00000  Uiso   1.00
C801   C     0.32551   0.12527   0.78250   0.00000  Uiso   1.00
C802   C     0.00783   0.20807   0.88416   0.00000  Uiso   1.00
C803   C     0.16668   0.24670   0.83335   0.00000  Uiso   1.00
C804   C     0.06732   0.16583   0.82183   0.00000  Uiso   1.00
C805   C     0.26601   0.16751   0.84483   0.00000  Uiso   1.00
C806   C     0.01343   0.15812   0.81750   0.00000  Uiso   1.00
C807   C     0.31990   0.17521   0.84916   0.00000  Uiso   1.00
C808   C     0.18035   0.02137   0.79540   0.00000  Uiso   1.00
C809   C     0.15299   0.31196   0.87127   0.00000  Uiso   1.00
C810   C     0.18036   0.31205   0.79541   0.00000  Uiso   1.00
H811   H     0.19141   0.03771   0.76607   0.00000  Uiso   1.00
H812   H     0.30184   0.10180   0.79823   0.00000  Uiso   1.00
H813   H     0.30183   0.14014   0.75268   0.00000  Uiso   1.00
H814   H     0.30925   0.22541   0.89734   0.00000  Uiso   1.00
H815   H     0.03150   0.19319   0.91399   0.00000  Uiso   1.00
H816   H     0.03149   0.23153   0.86844   0.00000  Uiso   1.00
H817   H     0.14192   0.29562   0.90060   0.00000  Uiso   1.00
H818   H     0.19143   0.29579   0.76608   0.00000  Uiso   1.00
H819   H     0.14190   0.03755   0.90059   0.00000  Uiso   1.00
H820   H     0.22750   0.21122   0.71612   0.00000  Uiso   1.00
H821   H     0.10584   0.12211   0.95054   0.00000  Uiso   1.00
H822   H     0.22745   0.21122   0.96513   0.00000  Uiso   1.00
H823   H     0.10588   0.12211   0.70154   0.00000  Uiso   1.00
H824   H     0.02408   0.10793   0.76933   0.00000  Uiso   1.00
N825   N     0.16665   0.16666   0.95240   0.00000  Uiso   1.00
N826   N     0.16668   0.16668   0.71427   0.00000  Uiso   1.00
O827   O     0.16666   0.10558   0.87154   0.00000  Uiso   1.00
O828   O     0.16667   0.22775   0.79513   0.00000  Uiso   1.00
O829   O     0.16666   0.10559   0.79510   0.00000  Uiso   1.00
O830   O     0.16667   0.22774   0.87157   0.00000  Uiso   1.00
O831   O     0.09058   0.16666   0.86261   0.00000  Uiso   1.00
O832   O     0.24275   0.16667   0.80405   0.00000  Uiso   1.00
O833   O     0.09058   0.16667   0.78617   0.00000  Uiso   1.00
O834   O     0.24275   0.16666   0.88050   0.00000  Uiso   1.00
Zn835  Zn    0.16667   0.16666   0.88437   0.00000  Uiso   1.00
Zn836  Zn    0.16667   0.16667   0.78229   0.00000  Uiso   1.00
C837   C     0.49999   0.08663   0.83332   0.00000  Uiso   1.00
C838   C     0.48631   0.02128   0.87126   0.00000  Uiso   1.00
C839   C     0.50001   0.29084   0.83334   0.00000  Uiso   1.00
C840   C     0.49999   0.04249   0.83333   0.00000  Uiso   1.00
C841   C     0.53380   0.19143   0.69470   0.00000  Uiso   1.00
C842   C     0.46620   0.14190   0.97196   0.00000  Uiso   1.00
C843   C     0.53378   0.19142   0.98007   0.00000  Uiso   1.00
C844   C     0.46622   0.14191   0.68660   0.00000  Uiso   1.00
C845   C     0.65884   0.12527   0.78250   0.00000  Uiso   1.00
C846   C     0.34116   0.20807   0.88416   0.00000  Uiso   1.00
C847   C     0.50001   0.24670   0.83335   0.00000  Uiso   1.00
C848   C     0.40065   0.16583   0.82183   0.00000  Uiso   1.00
C849   C     0.59935   0.16751   0.84483   0.00000  Uiso   1.00
C850   C     0.34676   0.15812   0.81750   0.00000  Uiso   1.00
C851   C     0.65324   0.17521   0.84916   0.00000  Uiso   1.00
C852   C     0.51368   0.02137   0.79540   0.00000  Uiso   1.00
C853   C     0.48632   0.31196   0.87127   0.00000  Uiso   1.00
C854   C     0.51369   0.31205   0.79541   0.00000  Uiso   1.00
H855   H     0.52475   0.03771   0.76607   0.00000  Uiso   1.00
H856   H     0.63518   0.10180   0.79823   0.00000  Uiso   1.00
H857   H     0.63516   0.14014   0.75268   0.00000  Uiso   1.00
H858   H     0.64259   0.22541   0.89734   0.00000  Uiso   1.00
H859   H     0.36484   0.19319   0.91399   0.00000  Uiso   1.00
H860   H     0.36482   0.23153   0.86844   0.00000  Uiso   1.00
H861   H     0.47525   0.29562   0.90060   0.00000  Uiso   1.00
H862   H     0.52476   0.29579   0.76608   0.00000  Uiso   1.00
H863   H     0.47524   0.03755   0.90059   0.00000  Uiso   1.00
H864   H     0.56083   0.21122   0.71612   0.00000  Uiso   1.00
H865   H     0.43917   0.12211   0.95054   0.00000  Uiso   1.00
H866   H     0.56079   0.21122   0.96513   0.00000  Uiso   1.00
H867   H     0.43921   0.12211   0.70154   0.00000  Uiso   1.00
H868   H     0.35741   0.10793   0.76933   0.00000  Uiso   1.00
N869   N     0.49999   0.16666   0.95240   0.00000  Uiso   1.00
N870   N     0.50001   0.16668   0.71427   0.00000  Uiso   1.00
O871   O     0.50000   0.10558   0.87154   0.00000  Uiso   1.00
O872   O     0.50000   0.22775   0.79513   0.00000  Uiso   1.00
O873   O     0.50000   0.10559   0.79510   0.00000  Uiso   1.00
O874   O     0.50000   0.22774   0.87157   0.00000  Uiso   1.00
O875   O     0.42392   0.16666   0.86261   0.00000  Uiso   1.00
O876   O     0.57608   0.16667   0.80405   0.00000  Uiso   1.00
O877   O     0.42392   0.16667   0.78617   0.00000  Uiso   1.00
O878   O     0.57608   0.16666   0.88050   0.00000  Uiso   1.00
Zn879  Zn    0.50000   0.16666   0.88437   0.00000  Uiso   1.00
Zn880  Zn    0.50000   0.16667   0.78229   0.00000  Uiso   1.00
C881   C     0.83332   0.08663   0.83332   0.00000  Uiso   1.00
C882   C     0.81964   0.02128   0.87126   0.00000  Uiso   1.00
C883   C     0.83335   0.29084   0.83334   0.00000  Uiso   1.00
C884   C     0.83332   0.04249   0.83333   0.00000  Uiso   1.00
C885   C     0.86714   0.19143   0.69470   0.00000  Uiso   1.00
C886   C     0.79953   0.14190   0.97196   0.00000  Uiso   1.00
C887   C     0.86712   0.19142   0.98007   0.00000  Uiso   1.00
C888   C     0.79955   0.14191   0.68660   0.00000  Uiso   1.00
C889   C     0.99217   0.12527   0.78250   0.00000  Uiso   1.00
C890   C     0.67449   0.20807   0.88416   0.00000  Uiso   1.00
C891   C     0.83335   0.24670   0.83335   0.00000  Uiso   1.00
C892   C     0.73399   0.16583   0.82183   0.00000  Uiso   1.00
C893   C     0.93268   0.16751   0.84483   0.00000  Uiso   1.00
C894   C     0.68009   0.15812   0.81750   0.00000  Uiso   1.00
C895   C     0.98657   0.17521   0.84916   0.00000  Uiso   1.00
C896   C     0.84701   0.02137   0.79540   0.00000  Uiso   1.00
C897   C     0.81965   0.31196   0.87127   0.00000  Uiso   1.00
C898   C     0.84703   0.31205   0.79541   0.00000  Uiso   1.00
H899   H     0.85808   0.03771   0.76607   0.00000  Uiso   1.00
H900   H     0.96851   0.10180   0.79823   0.00000  Uiso   1.00
H901   H     0.96850   0.14014   0.75268   0.00000  Uiso   1.00
H902   H     0.97592   0.22541   0.89734   0.00000  Uiso   1.00
H903   H     0.69817   0.19319   0.91399   0.00000  Uiso   1.00
H904   H     0.69816   0.23153   0.86844   0.00000  Uiso   1.00
H905   H     0.80859   0.29562   0.90060   0.00000  Uiso   1.00
H906   H     0.85810   0.29579   0.76608   0.00000  Uiso   1.00
H907   H     0.80857   0.03755   0.90059   0.00000  Uiso   1.00
H908   H     0.89416   0.21122   0.71612   0.00000  Uiso   1.00
H909   H     0.77250   0.12211   0.95054   0.00000  Uiso   1.00
H910   H     0.89412   0.21122   0.96513   0.00000  Uiso   1.00
H911   H     0.77255   0.12211   0.70154   0.00000  Uiso   1.00
H912   H     0.69075   0.10793   0.76933   0.00000  Uiso   1.00
N913   N     0.83332   0.16666   0.95240   0.00000  Uiso   1.00
N914   N     0.83335   0.16668   0.71427   0.00000  Uiso   1.00
O915   O     0.83333   0.10558   0.87154   0.00000  Uiso   1.00
O916   O     0.83334   0.22775   0.79513   0.00000  Uiso   1.00
O917   O     0.83333   0.10559   0.79510   0.00000  Uiso   1.00
O918   O     0.83334   0.22774   0.87157   0.00000  Uiso   1.00
O919   O     0.75725   0.16666   0.86261   0.00000  Uiso   1.00
O920   O     0.90942   0.16667   0.80405   0.00000  Uiso   1.00
O921   O     0.75725   0.16667   0.78617   0.00000  Uiso   1.00
O922   O     0.90942   0.16666   0.88050   0.00000  Uiso   1.00
Zn923  Zn    0.83333   0.16666   0.88437   0.00000  Uiso   1.00
Zn924  Zn    0.83333   0.16667   0.78229   0.00000  Uiso   1.00
C925   C     0.16665   0.41997   0.83332   0.00000  Uiso   1.00
C926   C     0.15297   0.35462   0.87126   0.00000  Uiso   1.00
C927   C     0.16668   0.62418   0.83334   0.00000  Uiso   1.00
C928   C     0.16665   0.37582   0.83333   0.00000  Uiso   1.00
C929   C     0.20047   0.52476   0.69470   0.00000  Uiso   1.00
C930   C     0.13286   0.47524   0.97196   0.00000  Uiso   1.00
C931   C     0.20045   0.52476   0.98007   0.00000  Uiso   1.00
C932   C     0.13288   0.47524   0.68660   0.00000  Uiso   1.00
C933   C     0.32551   0.45860   0.78250   0.00000  Uiso   1.00
C934   C     0.00783   0.54140   0.88416   0.00000  Uiso   1.00
C935   C     0.16668   0.58003   0.83335   0.00000  Uiso   1.00
C936   C     0.06732   0.49916   0.82183   0.00000  Uiso   1.00
C937   C     0.26601   0.50084   0.84483   0.00000  Uiso   1.00
C938   C     0.01343   0.49146   0.81750   0.00000  Uiso   1.00
C939   C     0.31990   0.50854   0.84916   0.00000  Uiso   1.00
C940   C     0.18035   0.35471   0.79540   0.00000  Uiso   1.00
C941   C     0.15299   0.64529   0.87127   0.00000  Uiso   1.00
C942   C     0.18036   0.64538   0.79541   0.00000  Uiso   1.00
H943   H     0.19141   0.37104   0.76607   0.00000  Uiso   1.00
H944   H     0.30184   0.43514   0.79823   0.00000  Uiso   1.00
H945   H     0.30183   0.47348   0.75268   0.00000  Uiso   1.00
H946   H     0.30925   0.55874   0.89734   0.00000  Uiso   1.00
H947   H     0.03150   0.52652   0.91399   0.00000  Uiso   1.00
H948   H     0.03149   0.56486   0.86844   0.00000  Uiso   1.00
H949   H     0.14192   0.62896   0.90060   0.00000  Uiso   1.00
H950   H     0.19143   0.62912   0.76608   0.00000  Uiso   1.00
H951   H     0.14190   0.37088   0.90059   0.00000  Uiso   1.00
H952   H     0.22750   0.54456   0.71612   0.00000  Uiso   1.00
H953   H     0.10584   0.45544   0.95054   0.00000  Uiso   1.00
H954   H     0.22745   0.54456   0.96513   0.00000  Uiso   1.00
H955   H     0.10588   0.45544   0.70154   0.00000  Uiso   1.00
H956   H     0.02408   0.44126   0.76933   0.00000  Uiso   1.00
N957   N     0.16665   0.49999   0.95240   0.00000  Uiso   1.00
N958   N     0.16668   0.50001   0.71427   0.00000  Uiso   1.00
O959   O     0.16666   0.43892   0.87154   0.00000  Uiso   1.00
O960   O     0.16667   0.56108   0.79513   0.00000  Uiso   1.00
O961   O     0.16666   0.43893   0.79510   0.00000  Uiso   1.00
O962   O     0.16667   0.56107   0.87157   0.00000  Uiso   1.00
O963   O     0.09058   0.50000   0.86261   0.00000  Uiso   1.00
O964   O     0.24275   0.50000   0.80405   0.00000  Uiso   1.00
O965   O     0.09058   0.50000   0.78617   0.00000  Uiso   1.00
O966   O     0.24275   0.50000   0.88050   0.00000  Uiso   1.00
Zn967  Zn    0.16667   0.49999   0.88437   0.00000  Uiso   1.00
Zn968  Zn    0.16667   0.50001   0.78229   0.00000  Uiso   1.00
C969   C     0.49999   0.41997   0.83332   0.00000  Uiso   1.00
C970   C     0.48631   0.35462   0.87126   0.00000  Uiso   1.00
C971   C     0.50001   0.62418   0.83334   0.00000  Uiso   1.00
C972   C     0.49999   0.37582   0.83333   0.00000  Uiso   1.00
C973   C     0.53380   0.52476   0.69470   0.00000  Uiso   1.00
C974   C     0.46620   0.47524   0.97196   0.00000  Uiso   1.00
C975   C     0.53378   0.52476   0.98007   0.00000  Uiso   1.00
C976   C     0.46622   0.47524   0.68660   0.00000  Uiso   1.00
C977   C     0.65884   0.45860   0.78250   0.00000  Uiso   1.00
C978   C     0.34116   0.54140   0.88416   0.00000  Uiso   1.00
C979   C     0.50001   0.58003   0.83335   0.00000  Uiso   1.00
C980   C     0.40065   0.49916   0.82183   0.00000  Uiso   1.00
C981   C     0.59935   0.50084   0.84483   0.00000  Uiso   1.00
C982   C     0.34676   0.49146   0.81750   0.00000  Uiso   1.00
C983   C     0.65324   0.50854   0.84916   0.00000  Uiso   1.00
C984   C     0.51368   0.35471   0.79540   0.00000  Uiso   1.00
C985   C     0.48632   0.64529   0.87127   0.00000  Uiso   1.00
C986   C     0.51369   0.64538   0.79541   0.00000  Uiso   1.00
H987   H     0.52475   0.37104   0.76607   0.00000  Uiso   1.00
H988   H     0.63518   0.43514   0.79823   0.00000  Uiso   1.00
H989   H     0.63516   0.47348   0.75268   0.00000  Uiso   1.00
H990   H     0.64259   0.55874   0.89734   0.00000  Uiso   1.00
H991   H     0.36484   0.52652   0.91399   0.00000  Uiso   1.00
H992   H     0.36482   0.56486   0.86844   0.00000  Uiso   1.00
H993   H     0.47525   0.62896   0.90060   0.00000  Uiso   1.00
H994   H     0.52476   0.62912   0.76608   0.00000  Uiso   1.00
H995   H     0.47524   0.37088   0.90059   0.00000  Uiso   1.00
H996   H     0.56083   0.54456   0.71612   0.00000  Uiso   1.00
H997   H     0.43917   0.45544   0.95054   0.00000  Uiso   1.00
H998   H     0.56079   0.54456   0.96513   0.00000  Uiso   1.00
H999   H     0.43921   0.45544   0.70154   0.00000  Uiso   1.00
H1000  H     0.35741   0.44126   0.76933   0.00000  Uiso   1.00
N1001  N     0.49999   0.49999   0.95240   0.00000  Uiso   1.00
N1002  N     0.50001   0.50001   0.71427   0.00000  Uiso   1.00
O1003  O     0.50000   0.43892   0.87154   0.00000  Uiso   1.00
O1004  O     0.50000   0.56108   0.79513   0.00000  Uiso   1.00
O1005  O     0.50000   0.43893   0.79510   0.00000  Uiso   1.00
O1006  O     0.50000   0.56107   0.87157   0.00000  Uiso   1.00
O1007  O     0.42392   0.50000   0.86261   0.00000  Uiso   1.00
O1008  O     0.57608   0.50000   0.80405   0.00000  Uiso   1.00
O1009  O     0.42392   0.50000   0.78617   0.00000  Uiso   1.00
O1010  O     0.57608   0.50000   0.88050   0.00000  Uiso   1.00
Zn1011 Zn    0.50000   0.49999   0.88437   0.00000  Uiso   1.00
Zn1012 Zn    0.50000   0.50001   0.78229   0.00000  Uiso   1.00
C1013  C     0.83332   0.41997   0.83332   0.00000  Uiso   1.00
C1014  C     0.81964   0.35462   0.87126   0.00000  Uiso   1.00
C1015  C     0.83335   0.62418   0.83334   0.00000  Uiso   1.00
C1016  C     0.83332   0.37582   0.83333   0.00000  Uiso   1.00
C1017  C     0.86714   0.52476   0.69470   0.00000  Uiso   1.00
C1018  C     0.79953   0.47524   0.97196   0.00000  Uiso   1.00
C1019  C     0.86712   0.52476   0.98007   0.00000  Uiso   1.00
C1020  C     0.79955   0.47524   0.68660   0.00000  Uiso   1.00
C1021  C     0.99217   0.45860   0.78250   0.00000  Uiso   1.00
C1022  C     0.67449   0.54140   0.88416   0.00000  Uiso   1.00
C1023  C     0.83335   0.58003   0.83335   0.00000  Uiso   1.00
C1024  C     0.73399   0.49916   0.82183   0.00000  Uiso   1.00
C1025  C     0.93268   0.50084   0.84483   0.00000  Uiso   1.00
C1026  C     0.68009   0.49146   0.81750   0.00000  Uiso   1.00
C1027  C     0.98657   0.50854   0.84916   0.00000  Uiso   1.00
C1028  C     0.84701   0.35471   0.79540   0.00000  Uiso   1.00
C1029  C     0.81965   0.64529   0.87127   0.00000  Uiso   1.00
C1030  C     0.84703   0.64538   0.79541   0.00000  Uiso   1.00
H1031  H     0.85808   0.37104   0.76607   0.00000  Uiso   1.00
H1032  H     0.96851   0.43514   0.79823   0.00000  Uiso   1.00
H1033  H     0.96850   0.47348   0.75268   0.00000  Uiso   1.00
H1034  H     0.97592   0.55874   0.89734   0.00000  Uiso   1.00
H1035  H     0.69817   0.52652   0.91399   0.00000  Uiso   1.00
H1036  H     0.69816   0.56486   0.86844   0.00000  Uiso   1.00
H1037  H     0.80859   0.62896   0.90060   0.00000  Uiso   1.00
H1038  H     0.85810   0.62912   0.76608   0.00000  Uiso   1.00
H1039  H     0.80857   0.37088   0.90059   0.00000  Uiso   1.00
H1040  H     0.89416   0.54456   0.71612   0.00000  Uiso   1.00
H1041  H     0.77250   0.45544   0.95054   0.00000  Uiso   1.00
H1042  H     0.89412   0.54456   0.96513   0.00000  Uiso   1.00
H1043  H     0.77255   0.45544   0.70154   0.00000  Uiso   1.00
H1044  H     0.69075   0.44126   0.76933   0.00000  Uiso   1.00
N1045  N     0.83332   0.49999   0.95240   0.00000  Uiso   1.00
N1046  N     0.83335   0.50001   0.71427   0.00000  Uiso   1.00
O1047  O     0.83333   0.43892   0.87154   0.00000  Uiso   1.00
O1048  O     0.83334   0.56108   0.79513   0.00000  Uiso   1.00
O1049  O     0.83333   0.43893   0.79510   0.00000  Uiso   1.00
O1050  O     0.83334   0.56107   0.87157   0.00000  Uiso   1.00
O1051  O     0.75725   0.50000   0.86261   0.00000  Uiso   1.00
O1052  O     0.90942   0.50000   0.80405   0.00000  Uiso   1.00
O1053  O     0.75725   0.50000   0.78617   0.00000  Uiso   1.00
O1054  O     0.90942   0.50000   0.88050   0.00000  Uiso   1.00
Zn1055 Zn    0.83333   0.49999   0.88437   0.00000  Uiso   1.00
Zn1056 Zn    0.83333   0.50001   0.78229   0.00000  Uiso   1.00
C1057  C     0.16665   0.75330   0.83332   0.00000  Uiso   1.00
C1058  C     0.15297   0.68795   0.87126   0.00000  Uiso   1.00
C1059  C     0.16668   0.95751   0.83334   0.00000  Uiso   1.00
C1060  C     0.16665   0.70916   0.83333   0.00000  Uiso   1.00
C1061  C     0.20047   0.85810   0.69470   0.00000  Uiso   1.00
C1062  C     0.13286   0.80857   0.97196   0.00000  Uiso   1.00
C1063  C     0.20045   0.85809   0.98007   0.00000  Uiso   1.00
C1064  C     0.13288   0.80857   0.68660   0.00000  Uiso   1.00
C1065  C     0.32551   0.79193   0.78250   0.00000  Uiso   1.00
C1066  C     0.00783   0.87473   0.88416   0.00000  Uiso   1.00
C1067  C     0.16668   0.91337   0.83335   0.00000  Uiso   1.00
C1068  C     0.06732   0.83249   0.82183   0.00000  Uiso   1.00
C1069  C     0.26601   0.83417   0.84483   0.00000  Uiso   1.00
C1070  C     0.01343   0.82479   0.81750   0.00000  Uiso   1.00
C1071  C     0.31990   0.84188   0.84916   0.00000  Uiso   1.00
C1072  C     0.18035   0.68804   0.79540   0.00000  Uiso   1.00
C1073  C     0.15299   0.97863   0.87127   0.00000  Uiso   1.00
C1074  C     0.18036   0.97872   0.79541   0.00000  Uiso   1.00
H1075  H     0.19141   0.70438   0.76607   0.00000  Uiso   1.00
H1076  H     0.30184   0.76847   0.79823   0.00000  Uiso   1.00
H1077  H     0.30183   0.80681   0.75268   0.00000  Uiso   1.00
H1078  H     0.30925   0.89207   0.89734   0.00000  Uiso   1.00
H1079  H     0.03150   0.85985   0.91399   0.00000  Uiso   1.00
H1080  H     0.03149   0.89820   0.86844   0.00000  Uiso   1.00
H1081  H     0.14192   0.96229   0.90060   0.00000  Uiso   1.00
H1082  H     0.19143   0.96245   0.76608   0.00000  Uiso   1.00
H1083  H     0.14190   0.70421   0.90059   0.00000  Uiso   1.00
H1084  H     0.22750   0.87789   0.71612   0.00000  Uiso   1.00
H1085  H     0.10584   0.78878   0.95054   0.00000  Uiso   1.00
H1086  H     0.22745   0.87789   0.96513   0.00000  Uiso   1.00
H1087  H     0.10588   0.78878   0.70154   0.00000  Uiso   1.00
H1088  H     0.02408   0.77459   0.76933   0.00000  Uiso   1.00
N1089  N     0.16665   0.83332   0.95240   0.00000  Uiso   1.00
N1090  N     0.16668   0.83334   0.71427   0.00000  Uiso   1.00
O1091  O     0.16666   0.77225   0.87154   0.00000  Uiso   1.00
O1092  O     0.16667   0.89442   0.79513   0.00000  Uiso   1.00
O1093  O     0.16666   0.77226   0.79510   0.00000  Uiso   1.00
O1094  O     0.16667   0.89441   0.87157   0.00000  Uiso   1.00
O1095  O     0.09058   0.83333   0.86261   0.00000  Uiso   1.00
O1096  O     0.24275   0.83334   0.80405   0.00000  Uiso   1.00
O1097  O     0.09058   0.83334   0.78617   0.00000  Uiso   1.00
O1098  O     0.24275   0.83333   0.88050   0.00000  Uiso   1.00
Zn1099 Zn    0.16667   0.83333   0.88437   0.00000  Uiso   1.00
Zn1100 Zn    0.16667   0.83334   0.78229   0.00000  Uiso   1.00
C1101  C     0.49999   0.75330   0.83332   0.00000  Uiso   1.00
C1102  C     0.48631   0.68795   0.87126   0.00000  Uiso   1.00
C1103  C     0.50001   0.95751   0.83334   0.00000  Uiso   1.00
C1104  C     0.49999   0.70916   0.83333   0.00000  Uiso   1.00
C1105  C     0.53380   0.85810   0.69470   0.00000  Uiso   1.00
C1106  C     0.46620   0.80857   0.97196   0.00000  Uiso   1.00
C1107  C     0.53378   0.85809   0.98007   0.00000  Uiso   1.00
C1108  C     0.46622   0.80857   0.68660   0.00000  Uiso   1.00
C1109  C     0.65884   0.79193   0.78250   0.00000  Uiso   1.00
C1110  C     0.34116   0.87473   0.88416   0.00000  Uiso   1.00
C1111  C     0.50001   0.91337   0.83335   0.00000  Uiso   1.00
C1112  C     0.40065   0.83249   0.82183   0.00000  Uiso   1.00
C1113  C     0.59935   0.83417   0.84483   0.00000  Uiso   1.00
C1114  C     0.34676   0.82479   0.81750   0.00000  Uiso   1.00
C1115  C     0.65324   0.84188   0.84916   0.00000  Uiso   1.00
C1116  C     0.51368   0.68804   0.79540   0.00000  Uiso   1.00
C1117  C     0.48632   0.97863   0.87127   0.00000  Uiso   1.00
C1118  C     0.51369   0.97872   0.79541   0.00000  Uiso   1.00
H1119  H     0.52475   0.70438   0.76607   0.00000  Uiso   1.00
H1120  H     0.63518   0.76847   0.79823   0.00000  Uiso   1.00
H1121  H     0.63516   0.80681   0.75268   0.00000  Uiso   1.00
H1122  H     0.64259   0.89207   0.89734   0.00000  Uiso   1.00
H1123  H     0.36484   0.85985   0.91399   0.00000  Uiso   1.00
H1124  H     0.36482   0.89820   0.86844   0.00000  Uiso   1.00
H1125  H     0.47525   0.96229   0.90060   0.00000  Uiso   1.00
H1126  H     0.52476   0.96245   0.76608   0.00000  Uiso   1.00
H1127  H     0.47524   0.70421   0.90059   0.00000  Uiso   1.00
H1128  H     0.56083   0.87789   0.71612   0.00000  Uiso   1.00
H1129  H     0.43917   0.78878   0.95054   0.00000  Uiso   1.00
H1130  H     0.56079   0.87789   0.96513   0.00000  Uiso   1.00
H1131  H     0.43921   0.78878   0.70154   0.00000  Uiso   1.00
H1132  H     0.35741   0.77459   0.76933   0.00000  Uiso   1.00
N1133  N     0.49999   0.83332   0.95240   0.00000  Uiso   1.00
N1134  N     0.50001   0.83334   0.71427   0.00000  Uiso   1.00
O1135  O     0.50000   0.77225   0.87154   0.00000  Uiso   1.00
O1136  O     0.50000   0.89442   0.79513   0.00000  Uiso   1.00
O1137  O     0.50000   0.77226   0.79510   0.00000  Uiso   1.00
O1138  O     0.50000   0.89441   0.87157   0.00000  Uiso   1.00
O1139  O     0.42392   0.83333   0.86261   0.00000  Uiso   1.00
O1140  O     0.57608   0.83334   0.80405   0.00000  Uiso   1.00
O1141  O     0.42392   0.83334   0.78617   0.00000  Uiso   1.00
O1142  O     0.57608   0.83333   0.88050   0.00000  Uiso   1.00
Zn1143 Zn    0.50000   0.83333   0.88437   0.00000  Uiso   1.00
Zn1144 Zn    0.50000   0.83334   0.78229   0.00000  Uiso   1.00
C1145  C     0.83332   0.75330   0.83332   0.00000  Uiso   1.00
C1146  C     0.81964   0.68795   0.87126   0.00000  Uiso   1.00
C1147  C     0.83335   0.95751   0.83334   0.00000  Uiso   1.00
C1148  C     0.83332   0.70916   0.83333   0.00000  Uiso   1.00
C1149  C     0.86714   0.85810   0.69470   0.00000  Uiso   1.00
C1150  C     0.79953   0.80857   0.97196   0.00000  Uiso   1.00
C1151  C     0.86712   0.85809   0.98007   0.00000  Uiso   1.00
C1152  C     0.79955   0.80857   0.68660   0.00000  Uiso   1.00
C1153  C     0.99217   0.79193   0.78250   0.00000  Uiso   1.00
C1154  C     0.67449   0.87473   0.88416   0.00000  Uiso   1.00
C1155  C     0.83335   0.91337   0.83335   0.00000  Uiso   1.00
C1156  C     0.73399   0.83249   0.82183   0.00000  Uiso   1.00
C1157  C     0.93268   0.83417   0.84483   0.00000  Uiso   1.00
C1158  C     0.68009   0.82479   0.81750   0.00000  Uiso   1.00
C1159  C     0.98657   0.84188   0.84916   0.00000  Uiso   1.00
C1160  C     0.84701   0.68804   0.79540   0.00000  Uiso   1.00
C1161  C     0.81965   0.97863   0.87127   0.00000  Uiso   1.00
C1162  C     0.84703   0.97872   0.79541   0.00000  Uiso   1.00
H1163  H     0.85808   0.70438   0.76607   0.00000  Uiso   1.00
H1164  H     0.96851   0.76847   0.79823   0.00000  Uiso   1.00
H1165  H     0.96850   0.80681   0.75268   0.00000  Uiso   1.00
H1166  H     0.97592   0.89207   0.89734   0.00000  Uiso   1.00
H1167  H     0.69817   0.85985   0.91399   0.00000  Uiso   1.00
H1168  H     0.69816   0.89820   0.86844   0.00000  Uiso   1.00
H1169  H     0.80859   0.96229   0.90060   0.00000  Uiso   1.00
H1170  H     0.85810   0.96245   0.76608   0.00000  Uiso   1.00
H1171  H     0.80857   0.70421   0.90059   0.00000  Uiso   1.00
H1172  H     0.89416   0.87789   0.71612   0.00000  Uiso   1.00
H1173  H     0.77250   0.78878   0.95054   0.00000  Uiso   1.00
H1174  H     0.89412   0.87789   0.96513   0.00000  Uiso   1.00
H1175  H     0.77255   0.78878   0.70154   0.00000  Uiso   1.00
H1176  H     0.69075   0.77459   0.76933   0.00000  Uiso   1.00
N1177  N     0.83332   0.83332   0.95240   0.00000  Uiso   1.00
N1178  N     0.83335   0.83334   0.71427   0.00000  Uiso   1.00
O1179  O     0.83333   0.77225   0.87154   0.00000  Uiso   1.00
O1180  O     0.83334   0.89442   0.79513   0.00000  Uiso   1.00
O1181  O     0.83333   0.77226   0.79510   0.00000  Uiso   1.00
O1182  O     0.83334   0.89441   0.87157   0.00000  Uiso   1.00
O1183  O     0.75725   0.83333   0.86261   0.00000  Uiso   1.00
O1184  O     0.90942   0.83334   0.80405   0.00000  Uiso   1.00
O1185  O     0.75725   0.83334   0.78617   0.00000  Uiso   1.00
O1186  O     0.90942   0.83333   0.88050   0.00000  Uiso   1.00
Zn1187 Zn    0.83333   0.83333   0.88437   0.00000  Uiso   1.00
Zn1188 Zn    0.83333   0.83334   0.78229   0.00000  Uiso   1.00
loop_
_geom_bond_atom_site_label_1
_geom_bond_atom_site_label_2
_geom_bond_distance
_geom_bond_site_symmetry_2
_ccdc_geom_bond_type
C1     O37     1.282   .     A
C1     C4      1.418   .     S
C1     O35     1.282   .     A
C2     C4      1.397   .     A
C2     H27     1.084   .     S
C2     C281    1.370   1_545 S
C3     C17     1.397   .     A
C3     C11     1.418   .     S
C3     C18     1.397   .     A
C4     C16     1.397   .     A
C5     H28     1.082   .     S
C5     N34     1.366   .     A
C5     C799    1.416   1_554 S
C6     N33     1.366   .     A
C6     H29     1.082   .     S
C6     C404    1.416   .     S
C7     H30     1.082   .     S
C7     N33     1.366   .     A
C7     C401    1.416   .     S
C8     N34     1.366   .     A
C8     H31     1.082   .     S
C8     C798    1.416   1_554 S
C9     H20     1.111   .     S
C9     H21     1.110   .     S
C9     C58     1.525   .     S
C9     H76     1.112   .     S
C10    H23     1.110   .     S
C10    H24     1.111   .     S
C10    C103    1.525   1_455 S
C10    H110    1.112   1_455 S
C11    O38     1.282   .     A
C11    O36     1.282   .     A
C12    O41     1.283   .     A
C12    O39     1.270   .     A
C12    C14     1.405   .     S
C13    O42     1.283   .     A
C13    C15     1.405   .     S
C13    O40     1.270   .     A
C14    C97     1.525   1_455 S
C14    C103    1.357   1_455 S
C15    C54     1.525   .     S
C15    C58     1.357   .     S
C16    H19     1.084   .     S
C16    C282    1.370   1_545 S
C17    H25     1.084   .     S
C17    C134    1.370   .     S
C18    H26     1.084   .     S
C18    C148    1.370   .     S
H22    C54     1.112   .     S
H32    C97     1.112   1_455 S
N33    Zn43    2.009   .     S
N34    Zn44    2.009   .     S
O35    Zn43    1.998   .     S
O36    Zn44    1.998   .     S
O37    Zn44    1.998   .     S
O38    Zn43    1.998   .     S
O39    Zn43    1.987   .     S
O40    Zn44    1.987   .     S
O41    Zn44    1.990   .     S
O42    Zn43    1.990   .     S
C45    O81     1.282   .     A
C45    C48     1.418   .     S
C45    O79     1.282   .     A
C46    C48     1.397   .     A
C46    H71     1.084   .     S
C46    C325    1.370   1_545 S
C47    C61     1.397   .     A
C47    C55     1.418   .     S
C47    C62     1.397   .     A
C48    C60     1.397   .     A
C49    H72     1.082   .     S
C49    N78     1.366   .     A
C49    C843    1.416   1_554 S
C50    N77     1.366   .     A
C50    H73     1.082   .     S
C50    C448    1.416   .     S
C51    H74     1.082   .     S
C51    N77     1.366   .     A
C51    C445    1.416   .     S
C52    N78     1.366   .     A
C52    H75     1.082   .     S
C52    C842    1.416   1_554 S
C53    H64     1.111   .     S
C53    H65     1.110   .     S
C53    C102    1.525   .     S
C53    H120    1.112   .     S
C54    H67     1.110   .     S
C54    H68     1.111   .     S
C55    O82     1.282   .     A
C55    O80     1.282   .     A
C56    O85     1.283   .     A
C56    O83     1.270   .     A
C56    C58     1.405   .     S
C57    O86     1.283   .     A
C57    C59     1.405   .     S
C57    O84     1.270   .     A
C59    C98     1.525   .     S
C59    C102    1.357   .     S
C60    H63     1.084   .     S
C60    C326    1.370   1_545 S
C61    H69     1.084   .     S
C61    C178    1.370   .     S
C62    H70     1.084   .     S
C62    C192    1.370   .     S
H66    C98     1.112   .     S
N77    Zn87    2.009   .     S
N78    Zn88    2.009   .     S
O79    Zn87    1.998   .     S
O80    Zn88    1.998   .     S
O81    Zn88    1.998   .     S
O82    Zn87    1.998   .     S
O83    Zn87    1.987   .     S
O84    Zn88    1.987   .     S
O85    Zn88    1.990   .     S
O86    Zn87    1.990   .     S
C89    O125    1.282   .     A
C89    C92     1.418   .     S
C89    O123    1.282   .     A
C90    C92     1.397   .     A
C90    H115    1.084   .     S
C90    C369    1.370   1_545 S
C91    C105    1.397   .     A
C91    C99     1.418   .     S
C91    C106    1.397   .     A
C92    C104    1.397   .     A
C93    H116    1.082   .     S
C93    N122    1.366   .     A
C93    C887    1.416   1_554 S
C94    N121    1.366   .     A
C94    H117    1.082   .     S
C94    C492    1.416   .     S
C95    H118    1.082   .     S
C95    N121    1.366   .     A
C95    C489    1.416   .     S
C96    N122    1.366   .     A
C96    H119    1.082   .     S
C96    C886    1.416   1_554 S
C97    H108    1.111   .     S
C97    H109    1.110   .     S
C97    C14     1.525   1_655 S
C97    H32     1.112   1_655 S
C98    H111    1.110   .     S
C98    H112    1.111   .     S
C99    O126    1.282   .     A
C99    O124    1.282   .     A
C100   O129    1.283   .     A
C100   O127    1.270   .     A
C100   C102    1.405   .     S
C101   O130    1.283   .     A
C101   C103    1.405   .     S
C101   O128    1.270   .     A
C103   C10     1.525   1_655 S
C103   C14     1.357   1_655 S
C104   H107    1.084   .     S
C104   C370    1.370   1_545 S
C105   H113    1.084   .     S
C105   C222    1.370   .     S
C106   H114    1.084   .     S
C106   C236    1.370   .     S
H110   C10     1.112   1_655 S
N121   Zn131   2.009   .     S
N122   Zn132   2.009   .     S
O123   Zn131   1.998   .     S
O124   Zn132   1.998   .     S
O125   Zn132   1.998   .     S
O126   Zn131   1.998   .     S
O127   Zn131   1.987   .     S
O128   Zn132   1.987   .     S
O129   Zn132   1.990   .     S
O130   Zn131   1.990   .     S
C133   O169    1.282   .     A
C133   C136    1.418   .     S
C133   O167    1.282   .     A
C134   C136    1.397   .     A
C134   H159    1.084   .     S
C135   C149    1.397   .     A
C135   C143    1.418   .     S
C135   C150    1.397   .     A
C136   C148    1.397   .     A
C137   H160    1.082   .     S
C137   N166    1.366   .     A
C137   C931    1.416   1_554 S
C138   N165    1.366   .     A
C138   H161    1.082   .     S
C138   C536    1.416   .     S
C139   H162    1.082   .     S
C139   N165    1.366   .     A
C139   C533    1.416   .     S
C140   N166    1.366   .     A
C140   H163    1.082   .     S
C140   C930    1.416   1_554 S
C141   H152    1.111   .     S
C141   H153    1.110   .     S
C141   C190    1.525   .     S
C141   H208    1.112   .     S
C142   H155    1.110   .     S
C142   H156    1.111   .     S
C142   C235    1.525   1_455 S
C142   H242    1.112   1_455 S
C143   O170    1.282   .     A
C143   O168    1.282   .     A
C144   O173    1.283   .     A
C144   O171    1.270   .     A
C144   C146    1.405   .     S
C145   O174    1.283   .     A
C145   C147    1.405   .     S
C145   O172    1.270   .     A
C146   C229    1.525   1_455 S
C146   C235    1.357   1_455 S
C147   C186    1.525   .     S
C147   C190    1.357   .     S
C148   H151    1.084   .     S
C149   H157    1.084   .     S
C149   C266    1.370   .     S
C150   H158    1.084   .     S
C150   C280    1.370   .     S
H154   C186    1.112   .     S
H164   C229    1.112   1_455 S
N165   Zn175   2.009   .     S
N166   Zn176   2.009   .     S
O167   Zn175   1.998   .     S
O168   Zn176   1.998   .     S
O169   Zn176   1.998   .     S
O170   Zn175   1.998   .     S
O171   Zn175   1.987   .     S
O172   Zn176   1.987   .     S
O173   Zn176   1.990   .     S
O174   Zn175   1.990   .     S
C177   O213    1.282   .     A
C177   C180    1.418   .     S
C177   O211    1.282   .     A
C178   C180    1.397   .     A
C178   H203    1.084   .     S
C179   C193    1.397   .     A
C179   C187    1.418   .     S
C179   C194    1.397   .     A
C180   C192    1.397   .     A
C181   H204    1.082   .     S
C181   N210    1.366   .     A
C181   C975    1.416   1_554 S
C182   N209    1.366   .     A
C182   H205    1.082   .     S
C182   C580    1.416   .     S
C183   H206    1.082   .     S
C183   N209    1.366   .     A
C183   C577    1.416   .     S
C184   N210    1.366   .     A
C184   H207    1.082   .     S
C184   C974    1.416   1_554 S
C185   H196    1.111   .     S
C185   H197    1.110   .     S
C185   C234    1.525   .     S
C185   H252    1.112   .     S
C186   H199    1.110   .     S
C186   H200    1.111   .     S
C187   O214    1.282   .     A
C187   O212    1.282   .     A
C188   O217    1.283   .     A
C188   O215    1.270   .     A
C188   C190    1.405   .     S
C189   O218    1.283   .     A
C189   C191    1.405   .     S
C189   O216    1.270   .     A
C191   C230    1.525   .     S
C191   C234    1.357   .     S
C192   H195    1.084   .     S
C193   H201    1.084   .     S
C193   C310    1.370   .     S
C194   H202    1.084   .     S
C194   C324    1.370   .     S
H198   C230    1.112   .     S
N209   Zn219   2.009   .     S
N210   Zn220   2.009   .     S
O211   Zn219   1.998   .     S
O212   Zn220   1.998   .     S
O213   Zn220   1.998   .     S
O214   Zn219   1.998   .     S
O215   Zn219   1.987   .     S
O216   Zn220   1.987   .     S
O217   Zn220   1.990   .     S
O218   Zn219   1.990   .     S
C221   O257    1.282   .     A
C221   C224    1.418   .     S
C221   O255    1.282   .     A
C222   C224    1.397   .     A
C222   H247    1.084   .     S
C223   C237    1.397   .     A
C223   C231    1.418   .     S
C223   C238    1.397   .     A
C224   C236    1.397   .     A
C225   H248    1.082   .     S
C225   N254    1.366   .     A
C225   C1019   1.416   1_554 S
C226   N253    1.366   .     A
C226   H249    1.082   .     S
C226   C624    1.416   .     S
C227   H250    1.082   .     S
C227   N253    1.366   .     A
C227   C621    1.416   .     S
C228   N254    1.366   .     A
C228   H251    1.082   .     S
C228   C1018   1.416   1_554 S
C229   H240    1.111   .     S
C229   H241    1.110   .     S
C229   C146    1.525   1_655 S
C229   H164    1.112   1_655 S
C230   H243    1.110   .     S
C230   H244    1.111   .     S
C231   O258    1.282   .     A
C231   O256    1.282   .     A
C232   O261    1.283   .     A
C232   O259    1.270   .     A
C232   C234    1.405   .     S
C233   O262    1.283   .     A
C233   C235    1.405   .     S
C233   O260    1.270   .     A
C235   C142    1.525   1_655 S
C235   C146    1.357   1_655 S
C236   H239    1.084   .     S
C237   H245    1.084   .     S
C237   C354    1.370   .     S
C238   H246    1.084   .     S
C238   C368    1.370   .     S
H242   C142    1.112   1_655 S
N253   Zn263   2.009   .     S
N254   Zn264   2.009   .     S
O255   Zn263   1.998   .     S
O256   Zn264   1.998   .     S
O257   Zn264   1.998   .     S
O258   Zn263   1.998   .     S
O259   Zn263   1.987   .     S
O260   Zn264   1.987   .     S
O261   Zn264   1.990   .     S
O262   Zn263   1.990   .     S
C265   O301    1.282   .     A
C265   C268    1.418   .     S
C265   O299    1.282   .     A
C266   C268    1.397   .     A
C266   H291    1.084   .     S
C267   C281    1.397   .     A
C267   C275    1.418   .     S
C267   C282    1.397   .     A
C268   C280    1.397   .     A
C269   H292    1.082   .     S
C269   N298    1.366   .     A
C269   C1063   1.416   1_554 S
C270   N297    1.366   .     A
C270   H293    1.082   .     S
C270   C668    1.416   .     S
C271   H294    1.082   .     S
C271   N297    1.366   .     A
C271   C665    1.416   .     S
C272   N298    1.366   .     A
C272   H295    1.082   .     S
C272   C1062   1.416   1_554 S
C273   H284    1.111   .     S
C273   H285    1.110   .     S
C273   C322    1.525   .     S
C273   H340    1.112   .     S
C274   H287    1.110   .     S
C274   H288    1.111   .     S
C274   C367    1.525   1_455 S
C274   H374    1.112   1_455 S
C275   O302    1.282   .     A
C275   O300    1.282   .     A
C276   O305    1.283   .     A
C276   O303    1.270   .     A
C276   C278    1.405   .     S
C277   O306    1.283   .     A
C277   C279    1.405   .     S
C277   O304    1.270   .     A
C278   C361    1.525   1_455 S
C278   C367    1.357   1_455 S
C279   C318    1.525   .     S
C279   C322    1.357   .     S
C280   H283    1.084   .     S
C281   H289    1.084   .     S
C281   C2      1.370   1_565 S
C282   H290    1.084   .     S
C282   C16     1.370   1_565 S
H286   C318    1.112   .     S
H296   C361    1.112   1_455 S
N297   Zn307   2.009   .     S
N298   Zn308   2.009   .     S
O299   Zn307   1.998   .     S
O300   Zn308   1.998   .     S
O301   Zn308   1.998   .     S
O302   Zn307   1.998   .     S
O303   Zn307   1.987   .     S
O304   Zn308   1.987   .     S
O305   Zn308   1.990   .     S
O306   Zn307   1.990   .     S
C309   O345    1.282   .     A
C309   C312    1.418   .     S
C309   O343    1.282   .     A
C310   C312    1.397   .     A
C310   H335    1.084   .     S
C311   C325    1.397   .     A
C311   C319    1.418   .     S
C311   C326    1.397   .     A
C312   C324    1.397   .     A
C313   H336    1.082   .     S
C313   N342    1.366   .     A
C313   C1107   1.416   1_554 S
C314   N341    1.366   .     A
C314   H337    1.082   .     S
C314   C712    1.416   .     S
C315   H338    1.082   .     S
C315   N341    1.366   .     A
C315   C709    1.416   .     S
C316   N342    1.366   .     A
C316   H339    1.082   .     S
C316   C1106   1.416   1_554 S
C317   H328    1.111   .     S
C317   H329    1.110   .     S
C317   C366    1.525   .     S
C317   H384    1.112   .     S
C318   H331    1.110   .     S
C318   H332    1.111   .     S
C319   O346    1.282   .     A
C319   O344    1.282   .     A
C320   O349    1.283   .     A
C320   O347    1.270   .     A
C320   C322    1.405   .     S
C321   O350    1.283   .     A
C321   C323    1.405   .     S
C321   O348    1.270   .     A
C323   C362    1.525   .     S
C323   C366    1.357   .     S
C324   H327    1.084   .     S
C325   H333    1.084   .     S
C325   C46     1.370   1_565 S
C326   H334    1.084   .     S
C326   C60     1.370   1_565 S
H330   C362    1.112   .     S
N341   Zn351   2.009   .     S
N342   Zn352   2.009   .     S
O343   Zn351   1.998   .     S
O344   Zn352   1.998   .     S
O345   Zn352   1.998   .     S
O346   Zn351   1.998   .     S
O347   Zn351   1.987   .     S
O348   Zn352   1.987   .     S
O349   Zn352   1.990   .     S
O350   Zn351   1.990   .     S
C353   O389    1.282   .     A
C353   C356    1.418   .     S
C353   O387    1.282   .     A
C354   C356    1.397   .     A
C354   H379    1.084   .     S
C355   C369    1.397   .     A
C355   C363    1.418   .     S
C355   C370    1.397   .     A
C356   C368    1.397   .     A
C357   H380    1.082   .     S
C357   N386    1.366   .     A
C357   C1151   1.416   1_554 S
C358   N385    1.366   .     A
C358   H381    1.082   .     S
C358   C756    1.416   .     S
C359   H382    1.082   .     S
C359   N385    1.366   .     A
C359   C753    1.416   .     S
C360   N386    1.366   .     A
C360   H383    1.082   .     S
C360   C1150   1.416   1_554 S
C361   H372    1.111   .     S
C361   H373    1.110   .     S
C361   C278    1.525   1_655 S
C361   H296    1.112   1_655 S
C362   H375    1.110   .     S
C362   H376    1.111   .     S
C363   O390    1.282   .     A
C363   O388    1.282   .     A
C364   O393    1.283   .     A
C364   O391    1.270   .     A
C364   C366    1.405   .     S
C365   O394    1.283   .     A
C365   C367    1.405   .     S
C365   O392    1.270   .     A
C367   C274    1.525   1_655 S
C367   C278    1.357   1_655 S
C368   H371    1.084   .     S
C369   H377    1.084   .     S
C369   C90     1.370   1_565 S
C370   H378    1.084   .     S
C370   C104    1.370   1_565 S
H374   C274    1.112   1_655 S
N385   Zn395   2.009   .     S
N386   Zn396   2.009   .     S
O387   Zn395   1.998   .     S
O388   Zn396   1.998   .     S
O389   Zn396   1.998   .     S
O390   Zn395   1.998   .     S
O391   Zn395   1.987   .     S
O392   Zn396   1.987   .     S
O393   Zn396   1.990   .     S
O394   Zn395   1.990   .     S
C397   O433    1.282   .     A
C397   C400    1.418   .     S
C397   O431    1.282   .     A
C398   C400    1.397   .     A
C398   H423    1.084   .     S
C398   C677    1.370   1_545 S
C399   C413    1.397   .     A
C399   C407    1.418   .     S
C399   C414    1.397   .     A
C400   C412    1.397   .     A
C401   H424    1.082   .     S
C401   N430    1.366   .     A
C402   N429    1.366   .     A
C402   H425    1.082   .     S
C402   C800    1.416   .     S
C403   H426    1.082   .     S
C403   N429    1.366   .     A
C403   C797    1.416   .     S
C404   N430    1.366   .     A
C404   H427    1.082   .     S
C405   H416    1.111   .     S
C405   H417    1.110   .     S
C405   C454    1.525   .     S
C405   H472    1.112   .     S
C406   H419    1.110   .     S
C406   H420    1.111   .     S
C406   C499    1.525   1_455 S
C406   H506    1.112   1_455 S
C407   O434    1.282   .     A
C407   O432    1.282   .     A
C408   O437    1.283   .     A
C408   O435    1.270   .     A
C408   C410    1.405   .     S
C409   O438    1.283   .     A
C409   C411    1.405   .     S
C409   O436    1.270   .     A
C410   C493    1.525   1_455 S
C410   C499    1.357   1_455 S
C411   C450    1.525   .     S
C411   C454    1.357   .     S
C412   H415    1.084   .     S
C412   C678    1.370   1_545 S
C413   H421    1.084   .     S
C413   C530    1.370   .     S
C414   H422    1.084   .     S
C414   C544    1.370   .     S
H418   C450    1.112   .     S
H428   C493    1.112   1_455 S
N429   Zn439   2.009   .     S
N430   Zn440   2.009   .     S
O431   Zn439   1.998   .     S
O432   Zn440   1.998   .     S
O433   Zn440   1.998   .     S
O434   Zn439   1.998   .     S
O435   Zn439   1.987   .     S
O436   Zn440   1.987   .     S
O437   Zn440   1.990   .     S
O438   Zn439   1.990   .     S
C441   O477    1.282   .     A
C441   C444    1.418   .     S
C441   O475    1.282   .     A
C442   C444    1.397   .     A
C442   H467    1.084   .     S
C442   C721    1.370   1_545 S
C443   C457    1.397   .     A
C443   C451    1.418   .     S
C443   C458    1.397   .     A
C444   C456    1.397   .     A
C445   H468    1.082   .     S
C445   N474    1.366   .     A
C446   N473    1.366   .     A
C446   H469    1.082   .     S
C446   C844    1.416   .     S
C447   H470    1.082   .     S
C447   N473    1.366   .     A
C447   C841    1.416   .     S
C448   N474    1.366   .     A
C448   H471    1.082   .     S
C449   H460    1.111   .     S
C449   H461    1.110   .     S
C449   C498    1.525   .     S
C449   H516    1.112   .     S
C450   H463    1.110   .     S
C450   H464    1.111   .     S
C451   O478    1.282   .     A
C451   O476    1.282   .     A
C452   O481    1.283   .     A
C452   O479    1.270   .     A
C452   C454    1.405   .     S
C453   O482    1.283   .     A
C453   C455    1.405   .     S
C453   O480    1.270   .     A
C455   C494    1.525   .     S
C455   C498    1.357   .     S
C456   H459    1.084   .     S
C456   C722    1.370   1_545 S
C457   H465    1.084   .     S
C457   C574    1.370   .     S
C458   H466    1.084   .     S
C458   C588    1.370   .     S
H462   C494    1.112   .     S
N473   Zn483   2.009   .     S
N474   Zn484   2.009   .     S
O475   Zn483   1.998   .     S
O476   Zn484   1.998   .     S
O477   Zn484   1.998   .     S
O478   Zn483   1.998   .     S
O479   Zn483   1.987   .     S
O480   Zn484   1.987   .     S
O481   Zn484   1.990   .     S
O482   Zn483   1.990   .     S
C485   O521    1.282   .     A
C485   C488    1.418   .     S
C485   O519    1.282   .     A
C486   C488    1.397   .     A
C486   H511    1.084   .     S
C486   C765    1.370   1_545 S
C487   C501    1.397   .     A
C487   C495    1.418   .     S
C487   C502    1.397   .     A
C488   C500    1.397   .     A
C489   H512    1.082   .     S
C489   N518    1.366   .     A
C490   N517    1.366   .     A
C490   H513    1.082   .     S
C490   C888    1.416   .     S
C491   H514    1.082   .     S
C491   N517    1.366   .     A
C491   C885    1.416   .     S
C492   N518    1.366   .     A
C492   H515    1.082   .     S
C493   H504    1.111   .     S
C493   H505    1.110   .     S
C493   C410    1.525   1_655 S
C493   H428    1.112   1_655 S
C494   H507    1.110   .     S
C494   H508    1.111   .     S
C495   O522    1.282   .     A
C495   O520    1.282   .     A
C496   O525    1.283   .     A
C496   O523    1.270   .     A
C496   C498    1.405   .     S
C497   O526    1.283   .     A
C497   C499    1.405   .     S
C497   O524    1.270   .     A
C499   C406    1.525   1_655 S
C499   C410    1.357   1_655 S
C500   H503    1.084   .     S
C500   C766    1.370   1_545 S
C501   H509    1.084   .     S
C501   C618    1.370   .     S
C502   H510    1.084   .     S
C502   C632    1.370   .     S
H506   C406    1.112   1_655 S
N517   Zn527   2.009   .     S
N518   Zn528   2.009   .     S
O519   Zn527   1.998   .     S
O520   Zn528   1.998   .     S
O521   Zn528   1.998   .     S
O522   Zn527   1.998   .     S
O523   Zn527   1.987   .     S
O524   Zn528   1.987   .     S
O525   Zn528   1.990   .     S
O526   Zn527   1.990   .     S
C529   O565    1.282   .     A
C529   C532    1.418   .     S
C529   O563    1.282   .     A
C530   C532    1.397   .     A
C530   H555    1.084   .     S
C531   C545    1.397   .     A
C531   C539    1.418   .     S
C531   C546    1.397   .     A
C532   C544    1.397   .     A
C533   H556    1.082   .     S
C533   N562    1.366   .     A
C534   N561    1.366   .     A
C534   H557    1.082   .     S
C534   C932    1.416   .     S
C535   H558    1.082   .     S
C535   N561    1.366   .     A
C535   C929    1.416   .     S
C536   N562    1.366   .     A
C536   H559    1.082   .     S
C537   H548    1.111   .     S
C537   H549    1.110   .     S
C537   C586    1.525   .     S
C537   H604    1.112   .     S
C538   H551    1.110   .     S
C538   H552    1.111   .     S
C538   C631    1.525   1_455 S
C538   H638    1.112   1_455 S
C539   O566    1.282   .     A
C539   O564    1.282   .     A
C540   O569    1.283   .     A
C540   O567    1.270   .     A
C540   C542    1.405   .     S
C541   O570    1.283   .     A
C541   C543    1.405   .     S
C541   O568    1.270   .     A
C542   C625    1.525   1_455 S
C542   C631    1.357   1_455 S
C543   C582    1.525   .     S
C543   C586    1.357   .     S
C544   H547    1.084   .     S
C545   H553    1.084   .     S
C545   C662    1.370   .     S
C546   H554    1.084   .     S
C546   C676    1.370   .     S
H550   C582    1.112   .     S
H560   C625    1.112   1_455 S
N561   Zn571   2.009   .     S
N562   Zn572   2.009   .     S
O563   Zn571   1.998   .     S
O564   Zn572   1.998   .     S
O565   Zn572   1.998   .     S
O566   Zn571   1.998   .     S
O567   Zn571   1.987   .     S
O568   Zn572   1.987   .     S
O569   Zn572   1.990   .     S
O570   Zn571   1.990   .     S
C573   O609    1.282   .     A
C573   C576    1.418   .     S
C573   O607    1.282   .     A
C574   C576    1.397   .     A
C574   H599    1.084   .     S
C575   C589    1.397   .     A
C575   C583    1.418   .     S
C575   C590    1.397   .     A
C576   C588    1.397   .     A
C577   H600    1.082   .     S
C577   N606    1.366   .     A
C578   N605    1.366   .     A
C578   H601    1.082   .     S
C578   C976    1.416   .     S
C579   H602    1.082   .     S
C579   N605    1.366   .     A
C579   C973    1.416   .     S
C580   N606    1.366   .     A
C580   H603    1.082   .     S
C581   H592    1.111   .     S
C581   H593    1.110   .     S
C581   C630    1.525   .     S
C581   H648    1.112   .     S
C582   H595    1.110   .     S
C582   H596    1.111   .     S
C583   O610    1.282   .     A
C583   O608    1.282   .     A
C584   O613    1.283   .     A
C584   O611    1.270   .     A
C584   C586    1.405   .     S
C585   O614    1.283   .     A
C585   C587    1.405   .     S
C585   O612    1.270   .     A
C587   C626    1.525   .     S
C587   C630    1.357   .     S
C588   H591    1.084   .     S
C589   H597    1.084   .     S
C589   C706    1.370   .     S
C590   H598    1.084   .     S
C590   C720    1.370   .     S
H594   C626    1.112   .     S
N605   Zn615   2.009   .     S
N606   Zn616   2.009   .     S
O607   Zn615   1.998   .     S
O608   Zn616   1.998   .     S
O609   Zn616   1.998   .     S
O610   Zn615   1.998   .     S
O611   Zn615   1.987   .     S
O612   Zn616   1.987   .     S
O613   Zn616   1.990   .     S
O614   Zn615   1.990   .     S
C617   O653    1.282   .     A
C617   C620    1.418   .     S
C617   O651    1.282   .     A
C618   C620    1.397   .     A
C618   H643    1.084   .     S
C619   C633    1.397   .     A
C619   C627    1.418   .     S
C619   C634    1.397   .     A
C620   C632    1.397   .     A
C621   H644    1.082   .     S
C621   N650    1.366   .     A
C622   N649    1.366   .     A
C622   H645    1.082   .     S
C622   C1020   1.416   .     S
C623   H646    1.082   .     S
C623   N649    1.366   .     A
C623   C1017   1.416   .     S
C624   N650    1.366   .     A
C624   H647    1.082   .     S
C625   H636    1.111   .     S
C625   H637    1.110   .     S
C625   C542    1.525   1_655 S
C625   H560    1.112   1_655 S
C626   H639    1.110   .     S
C626   H640    1.111   .     S
C627   O654    1.282   .     A
C627   O652    1.282   .     A
C628   O657    1.283   .     A
C628   O655    1.270   .     A
C628   C630    1.405   .     S
C629   O658    1.283   .     A
C629   C631    1.405   .     S
C629   O656    1.270   .     A
C631   C538    1.525   1_655 S
C631   C542    1.357   1_655 S
C632   H635    1.084   .     S
C633   H641    1.084   .     S
C633   C750    1.370   .     S
C634   H642    1.084   .     S
C634   C764    1.370   .     S
H638   C538    1.112   1_655 S
N649   Zn659   2.009   .     S
N650   Zn660   2.009   .     S
O651   Zn659   1.998   .     S
O652   Zn660   1.998   .     S
O653   Zn660   1.998   .     S
O654   Zn659   1.998   .     S
O655   Zn659   1.987   .     S
O656   Zn660   1.987   .     S
O657   Zn660   1.990   .     S
O658   Zn659   1.990   .     S
C661   O697    1.282   .     A
C661   C664    1.418   .     S
C661   O695    1.282   .     A
C662   C664    1.397   .     A
C662   H687    1.084   .     S
C663   C677    1.397   .     A
C663   C671    1.418   .     S
C663   C678    1.397   .     A
C664   C676    1.397   .     A
C665   H688    1.082   .     S
C665   N694    1.366   .     A
C666   N693    1.366   .     A
C666   H689    1.082   .     S
C666   C1064   1.416   .     S
C667   H690    1.082   .     S
C667   N693    1.366   .     A
C667   C1061   1.416   .     S
C668   N694    1.366   .     A
C668   H691    1.082   .     S
C669   H680    1.111   .     S
C669   H681    1.110   .     S
C669   C718    1.525   .     S
C669   H736    1.112   .     S
C670   H683    1.110   .     S
C670   H684    1.111   .     S
C670   C763    1.525   1_455 S
C670   H770    1.112   1_455 S
C671   O698    1.282   .     A
C671   O696    1.282   .     A
C672   O701    1.283   .     A
C672   O699    1.270   .     A
C672   C674    1.405   .     S
C673   O702    1.283   .     A
C673   C675    1.405   .     S
C673   O700    1.270   .     A
C674   C757    1.525   1_455 S
C674   C763    1.357   1_455 S
C675   C714    1.525   .     S
C675   C718    1.357   .     S
C676   H679    1.084   .     S
C677   H685    1.084   .     S
C677   C398    1.370   1_565 S
C678   H686    1.084   .     S
C678   C412    1.370   1_565 S
H682   C714    1.112   .     S
H692   C757    1.112   1_455 S
N693   Zn703   2.009   .     S
N694   Zn704   2.009   .     S
O695   Zn703   1.998   .     S
O696   Zn704   1.998   .     S
O697   Zn704   1.998   .     S
O698   Zn703   1.998   .     S
O699   Zn703   1.987   .     S
O700   Zn704   1.987   .     S
O701   Zn704   1.990   .     S
O702   Zn703   1.990   .     S
C705   O741    1.282   .     A
C705   C708    1.418   .     S
C705   O739    1.282   .     A
C706   C708    1.397   .     A
C706   H731    1.084   .     S
C707   C721    1.397   .     A
C707   C715    1.418   .     S
C707   C722    1.397   .     A
C708   C720    1.397   .     A
C709   H732    1.082   .     S
C709   N738    1.366   .     A
C710   N737    1.366   .     A
C710   H733    1.082   .     S
C710   C1108   1.416   .     S
C711   H734    1.082   .     S
C711   N737    1.366   .     A
C711   C1105   1.416   .     S
C712   N738    1.366   .     A
C712   H735    1.082   .     S
C713   H724    1.111   .     S
C713   H725    1.110   .     S
C713   C762    1.525   .     S
C713   H780    1.112   .     S
C714   H727    1.110   .     S
C714   H728    1.111   .     S
C715   O742    1.282   .     A
C715   O740    1.282   .     A
C716   O745    1.283   .     A
C716   O743    1.270   .     A
C716   C718    1.405   .     S
C717   O746    1.283   .     A
C717   C719    1.405   .     S
C717   O744    1.270   .     A
C719   C758    1.525   .     S
C719   C762    1.357   .     S
C720   H723    1.084   .     S
C721   H729    1.084   .     S
C721   C442    1.370   1_565 S
C722   H730    1.084   .     S
C722   C456    1.370   1_565 S
H726   C758    1.112   .     S
N737   Zn747   2.009   .     S
N738   Zn748   2.009   .     S
O739   Zn747   1.998   .     S
O740   Zn748   1.998   .     S
O741   Zn748   1.998   .     S
O742   Zn747   1.998   .     S
O743   Zn747   1.987   .     S
O744   Zn748   1.987   .     S
O745   Zn748   1.990   .     S
O746   Zn747   1.990   .     S
C749   O785    1.282   .     A
C749   C752    1.418   .     S
C749   O783    1.282   .     A
C750   C752    1.397   .     A
C750   H775    1.084   .     S
C751   C765    1.397   .     A
C751   C759    1.418   .     S
C751   C766    1.397   .     A
C752   C764    1.397   .     A
C753   H776    1.082   .     S
C753   N782    1.366   .     A
C754   N781    1.366   .     A
C754   H777    1.082   .     S
C754   C1152   1.416   .     S
C755   H778    1.082   .     S
C755   N781    1.366   .     A
C755   C1149   1.416   .     S
C756   N782    1.366   .     A
C756   H779    1.082   .     S
C757   H768    1.111   .     S
C757   H769    1.110   .     S
C757   C674    1.525   1_655 S
C757   H692    1.112   1_655 S
C758   H771    1.110   .     S
C758   H772    1.111   .     S
C759   O786    1.282   .     A
C759   O784    1.282   .     A
C760   O789    1.283   .     A
C760   O787    1.270   .     A
C760   C762    1.405   .     S
C761   O790    1.283   .     A
C761   C763    1.405   .     S
C761   O788    1.270   .     A
C763   C670    1.525   1_655 S
C763   C674    1.357   1_655 S
C764   H767    1.084   .     S
C765   H773    1.084   .     S
C765   C486    1.370   1_565 S
C766   H774    1.084   .     S
C766   C500    1.370   1_565 S
H770   C670    1.112   1_655 S
N781   Zn791   2.009   .     S
N782   Zn792   2.009   .     S
O783   Zn791   1.998   .     S
O784   Zn792   1.998   .     S
O785   Zn792   1.998   .     S
O786   Zn791   1.998   .     S
O787   Zn791   1.987   .     S
O788   Zn792   1.987   .     S
O789   Zn792   1.990   .     S
O790   Zn791   1.990   .     S
C793   O829    1.282   .     A
C793   C796    1.418   .     S
C793   O827    1.282   .     A
C794   C796    1.397   .     A
C794   H819    1.084   .     S
C794   C1073   1.370   1_545 S
C795   C809    1.397   .     A
C795   C803    1.418   .     S
C795   C810    1.397   .     A
C796   C808    1.397   .     A
C797   H820    1.082   .     S
C797   N826    1.366   .     A
C798   N825    1.366   .     A
C798   H821    1.082   .     S
C798   C8      1.416   1_556 S
C799   H822    1.082   .     S
C799   N825    1.366   .     A
C799   C5      1.416   1_556 S
C800   N826    1.366   .     A
C800   H823    1.082   .     S
C801   H812    1.111   .     S
C801   H813    1.110   .     S
C801   C850    1.525   .     S
C801   H868    1.112   .     S
C802   H815    1.110   .     S
C802   H816    1.111   .     S
C802   C895    1.525   1_455 S
C802   H902    1.112   1_455 S
C803   O830    1.282   .     A
C803   O828    1.282   .     A
C804   O833    1.283   .     A
C804   O831    1.270   .     A
C804   C806    1.405   .     S
C805   O834    1.283   .     A
C805   C807    1.405   .     S
C805   O832    1.270   .     A
C806   C889    1.525   1_455 S
C806   C895    1.357   1_455 S
C807   C846    1.525   .     S
C807   C850    1.357   .     S
C808   H811    1.084   .     S
C808   C1074   1.370   1_545 S
C809   H817    1.084   .     S
C809   C926    1.370   .     S
C810   H818    1.084   .     S
C810   C940    1.370   .     S
H814   C846    1.112   .     S
H824   C889    1.112   1_455 S
N825   Zn835   2.009   .     S
N826   Zn836   2.009   .     S
O827   Zn835   1.998   .     S
O828   Zn836   1.998   .     S
O829   Zn836   1.998   .     S
O830   Zn835   1.998   .     S
O831   Zn835   1.987   .     S
O832   Zn836   1.987   .     S
O833   Zn836   1.990   .     S
O834   Zn835   1.990   .     S
C837   O873    1.282   .     A
C837   C840    1.418   .     S
C837   O871    1.282   .     A
C838   C840    1.397   .     A
C838   H863    1.084   .     S
C838   C1117   1.370   1_545 S
C839   C853    1.397   .     A
C839   C847    1.418   .     S
C839   C854    1.397   .     A
C840   C852    1.397   .     A
C841   H864    1.082   .     S
C841   N870    1.366   .     A
C842   N869    1.366   .     A
C842   H865    1.082   .     S
C842   C52     1.416   1_556 S
C843   H866    1.082   .     S
C843   N869    1.366   .     A
C843   C49     1.416   1_556 S
C844   N870    1.366   .     A
C844   H867    1.082   .     S
C845   H856    1.111   .     S
C845   H857    1.110   .     S
C845   C894    1.525   .     S
C845   H912    1.112   .     S
C846   H859    1.110   .     S
C846   H860    1.111   .     S
C847   O874    1.282   .     A
C847   O872    1.282   .     A
C848   O877    1.283   .     A
C848   O875    1.270   .     A
C848   C850    1.405   .     S
C849   O878    1.283   .     A
C849   C851    1.405   .     S
C849   O876    1.270   .     A
C851   C890    1.525   .     S
C851   C894    1.357   .     S
C852   H855    1.084   .     S
C852   C1118   1.370   1_545 S
C853   H861    1.084   .     S
C853   C970    1.370   .     S
C854   H862    1.084   .     S
C854   C984    1.370   .     S
H858   C890    1.112   .     S
N869   Zn879   2.009   .     S
N870   Zn880   2.009   .     S
O871   Zn879   1.998   .     S
O872   Zn880   1.998   .     S
O873   Zn880   1.998   .     S
O874   Zn879   1.998   .     S
O875   Zn879   1.987   .     S
O876   Zn880   1.987   .     S
O877   Zn880   1.990   .     S
O878   Zn879   1.990   .     S
C881   O917    1.282   .     A
C881   C884    1.418   .     S
C881   O915    1.282   .     A
C882   C884    1.397   .     A
C882   H907    1.084   .     S
C882   C1161   1.370   1_545 S
C883   C897    1.397   .     A
C883   C891    1.418   .     S
C883   C898    1.397   .     A
C884   C896    1.397   .     A
C885   H908    1.082   .     S
C885   N914    1.366   .     A
C886   N913    1.366   .     A
C886   H909    1.082   .     S
C886   C96     1.416   1_556 S
C887   H910    1.082   .     S
C887   N913    1.366   .     A
C887   C93     1.416   1_556 S
C888   N914    1.366   .     A
C888   H911    1.082   .     S
C889   H900    1.111   .     S
C889   H901    1.110   .     S
C889   C806    1.525   1_655 S
C889   H824    1.112   1_655 S
C890   H903    1.110   .     S
C890   H904    1.111   .     S
C891   O918    1.282   .     A
C891   O916    1.282   .     A
C892   O921    1.283   .     A
C892   O919    1.270   .     A
C892   C894    1.405   .     S
C893   O922    1.283   .     A
C893   C895    1.405   .     S
C893   O920    1.270   .     A
C895   C802    1.525   1_655 S
C895   C806    1.357   1_655 S
C896   H899    1.084   .     S
C896   C1162   1.370   1_545 S
C897   H905    1.084   .     S
C897   C1014   1.370   .     S
C898   H906    1.084   .     S
C898   C1028   1.370   .     S
H902   C802    1.112   1_655 S
N913   Zn923   2.009   .     S
N914   Zn924   2.009   .     S
O915   Zn923   1.998   .     S
O916   Zn924   1.998   .     S
O917   Zn924   1.998   .     S
O918   Zn923   1.998   .     S
O919   Zn923   1.987   .     S
O920   Zn924   1.987   .     S
O921   Zn924   1.990   .     S
O922   Zn923   1.990   .     S
C925   O961    1.282   .     A
C925   C928    1.418   .     S
C925   O959    1.282   .     A
C926   C928    1.397   .     A
C926   H951    1.084   .     S
C927   C941    1.397   .     A
C927   C935    1.418   .     S
C927   C942    1.397   .     A
C928   C940    1.397   .     A
C929   H952    1.082   .     S
C929   N958    1.366   .     A
C930   N957    1.366   .     A
C930   H953    1.082   .     S
C930   C140    1.416   1_556 S
C931   H954    1.082   .     S
C931   N957    1.366   .     A
C931   C137    1.416   1_556 S
C932   N958    1.366   .     A
C932   H955    1.082   .     S
C933   H944    1.111   .     S
C933   H945    1.110   .     S
C933   C982    1.525   .     S
C933   H1000   1.112   .     S
C934   H947    1.110   .     S
C934   H948    1.111   .     S
C934   C1027   1.525   1_455 S
C934   H1034   1.112   1_455 S
C935   O962    1.282   .     A
C935   O960    1.282   .     A
C936   O965    1.283   .     A
C936   O963    1.270   .     A
C936   C938    1.405   .     S
C937   O966    1.283   .     A
C937   C939    1.405   .     S
C937   O964    1.270   .     A
C938   C1021   1.525   1_455 S
C938   C1027   1.357   1_455 S
C939   C978    1.525   .     S
C939   C982    1.357   .     S
C940   H943    1.084   .     S
C941   H949    1.084   .     S
C941   C1058   1.370   .     S
C942   H950    1.084   .     S
C942   C1072   1.370   .     S
H946   C978    1.112   .     S
H956   C1021   1.112   1_455 S
N957   Zn967   2.009   .     S
N958   Zn968   2.009   .     S
O959   Zn967   1.998   .     S
O960   Zn968   1.998   .     S
O961   Zn968   1.998   .     S
O962   Zn967   1.998   .     S
O963   Zn967   1.987   .     S
O964   Zn968   1.987   .     S
O965   Zn968   1.990   .     S
O966   Zn967   1.990   .     S
C969   O1005   1.282   .     A
C969   C972    1.418   .     S
C969   O1003   1.282   .     A
C970   C972    1.397   .     A
C970   H995    1.084   .     S
C971   C985    1.397   .     A
C971   C979    1.418   .     S
C971   C986    1.397   .     A
C972   C984    1.397   .     A
C973   H996    1.082   .     S
C973   N1002   1.366   .     A
C974   N1001   1.366   .     A
C974   H997    1.082   .     S
C974   C184    1.416   1_556 S
C975   H998    1.082   .     S
C975   N1001   1.366   .     A
C975   C181    1.416   1_556 S
C976   N1002   1.366   .     A
C976   H999    1.082   .     S
C977   H988    1.111   .     S
C977   H989    1.110   .     S
C977   C1026   1.525   .     S
C977   H1044   1.112   .     S
C978   H991    1.110   .     S
C978   H992    1.111   .     S
C979   O1006   1.282   .     A
C979   O1004   1.282   .     A
C980   O1009   1.283   .     A
C980   O1007   1.270   .     A
C980   C982    1.405   .     S
C981   O1010   1.283   .     A
C981   C983    1.405   .     S
C981   O1008   1.270   .     A
C983   C1022   1.525   .     S
C983   C1026   1.357   .     S
C984   H987    1.084   .     S
C985   H993    1.084   .     S
C985   C1102   1.370   .     S
C986   H994    1.084   .     S
C986   C1116   1.370   .     S
H990   C1022   1.112   .     S
N1001  Zn1011  2.009   .     S
N1002  Zn1012  2.009   .     S
O1003  Zn1011  1.998   .     S
O1004  Zn1012  1.998   .     S
O1005  Zn1012  1.998   .     S
O1006  Zn1011  1.998   .     S
O1007  Zn1011  1.987   .     S
O1008  Zn1012  1.987   .     S
O1009  Zn1012  1.990   .     S
O1010  Zn1011  1.990   .     S
C1013  O1049   1.282   .     A
C1013  C1016   1.418   .     S
C1013  O1047   1.282   .     A
C1014  C1016   1.397   .     A
C1014  H1039   1.084   .     S
C1015  C1029   1.397   .     A
C1015  C1023   1.418   .     S
C1015  C1030   1.397   .     A
C1016  C1028   1.397   .     A
C1017  H1040   1.082   .     S
C1017  N1046   1.366   .     A
C1018  N1045   1.366   .     A
C1018  H1041   1.082   .     S
C1018  C228    1.416   1_556 S
C1019  H1042   1.082   .     S
C1019  N1045   1.366   .     A
C1019  C225    1.416   1_556 S
C1020  N1046   1.366   .     A
C1020  H1043   1.082   .     S
C1021  H1032   1.111   .     S
C1021  H1033   1.110   .     S
C1021  C938    1.525   1_655 S
C1021  H956    1.112   1_655 S
C1022  H1035   1.110   .     S
C1022  H1036   1.111   .     S
C1023  O1050   1.282   .     A
C1023  O1048   1.282   .     A
C1024  O1053   1.283   .     A
C1024  O1051   1.270   .     A
C1024  C1026   1.405   .     S
C1025  O1054   1.283   .     A
C1025  C1027   1.405   .     S
C1025  O1052   1.270   .     A
C1027  C934    1.525   1_655 S
C1027  C938    1.357   1_655 S
C1028  H1031   1.084   .     S
C1029  H1037   1.084   .     S
C1029  C1146   1.370   .     S
C1030  H1038   1.084   .     S
C1030  C1160   1.370   .     S
H1034  C934    1.112   1_655 S
N1045  Zn1055  2.009   .     S
N1046  Zn1056  2.009   .     S
O1047  Zn1055  1.998   .     S
O1048  Zn1056  1.998   .     S
O1049  Zn1056  1.998   .     S
O1050  Zn1055  1.998   .     S
O1051  Zn1055  1.987   .     S
O1052  Zn1056  1.987   .     S
O1053  Zn1056  1.990   .     S
O1054  Zn1055  1.990   .     S
C1057  O1093   1.282   .     A
C1057  C1060   1.418   .     S
C1057  O1091   1.282   .     A
C1058  C1060   1.397   .     A
C1058  H1083   1.084   .     S
C1059  C1073   1.397   .     A
C1059  C1067   1.418   .     S
C1059  C1074   1.397   .     A
C1060  C1072   1.397   .     A
C1061  H1084   1.082   .     S
C1061  N1090   1.366   .     A
C1062  N1089   1.366   .     A
C1062  H1085   1.082   .     S
C1062  C272    1.416   1_556 S
C1063  H1086   1.082   .     S
C1063  N1089   1.366   .     A
C1063  C269    1.416   1_556 S
C1064  N1090   1.366   .     A
C1064  H1087   1.082   .     S
C1065  H1076   1.111   .     S
C1065  H1077   1.110   .     S
C1065  C1114   1.525   .     S
C1065  H1132   1.112   .     S
C1066  H1079   1.110   .     S
C1066  H1080   1.111   .     S
C1066  C1159   1.525   1_455 S
C1066  H1166   1.112   1_455 S
C1067  O1094   1.282   .     A
C1067  O1092   1.282   .     A
C1068  O1097   1.283   .     A
C1068  O1095   1.270   .     A
C1068  C1070   1.405   .     S
C1069  O1098   1.283   .     A
C1069  C1071   1.405   .     S
C1069  O1096   1.270   .     A
C1070  C1153   1.525   1_455 S
C1070  C1159   1.357   1_455 S
C1071  C1110   1.525   .     S
C1071  C1114   1.357   .     S
C1072  H1075   1.084   .     S
C1073  H1081   1.084   .     S
C1073  C794    1.370   1_565 S
C1074  H1082   1.084   .     S
C1074  C808    1.370   1_565 S
H1078  C1110   1.112   .     S
H1088  C1153   1.112   1_455 S
N1089  Zn1099  2.009   .     S
N1090  Zn1100  2.009   .     S
O1091  Zn1099  1.998   .     S
O1092  Zn1100  1.998   .     S
O1093  Zn1100  1.998   .     S
O1094  Zn1099  1.998   .     S
O1095  Zn1099  1.987   .     S
O1096  Zn1100  1.987   .     S
O1097  Zn1100  1.990   .     S
O1098  Zn1099  1.990   .     S
C1101  O1137   1.282   .     A
C1101  C1104   1.418   .     S
C1101  O1135   1.282   .     A
C1102  C1104   1.397   .     A
C1102  H1127   1.084   .     S
C1103  C1117   1.397   .     A
C1103  C1111   1.418   .     S
C1103  C1118   1.397   .     A
C1104  C1116   1.397   .     A
C1105  H1128   1.082   .     S
C1105  N1134   1.366   .     A
C1106  N1133   1.366   .     A
C1106  H1129   1.082   .     S
C1106  C316    1.416   1_556 S
C1107  H1130   1.082   .     S
C1107  N1133   1.366   .     A
C1107  C313    1.416   1_556 S
C1108  N1134   1.366   .     A
C1108  H1131   1.082   .     S
C1109  H1120   1.111   .     S
C1109  H1121   1.110   .     S
C1109  C1158   1.525   .     S
C1109  H1176   1.112   .     S
C1110  H1123   1.110   .     S
C1110  H1124   1.111   .     S
C1111  O1138   1.282   .     A
C1111  O1136   1.282   .     A
C1112  O1141   1.283   .     A
C1112  O1139   1.270   .     A
C1112  C1114   1.405   .     S
C1113  O1142   1.283   .     A
C1113  C1115   1.405   .     S
C1113  O1140   1.270   .     A
C1115  C1154   1.525   .     S
C1115  C1158   1.357   .     S
C1116  H1119   1.084   .     S
C1117  H1125   1.084   .     S
C1117  C838    1.370   1_565 S
C1118  H1126   1.084   .     S
C1118  C852    1.370   1_565 S
H1122  C1154   1.112   .     S
N1133  Zn1143  2.009   .     S
N1134  Zn1144  2.009   .     S
O1135  Zn1143  1.998   .     S
O1136  Zn1144  1.998   .     S
O1137  Zn1144  1.998   .     S
O1138  Zn1143  1.998   .     S
O1139  Zn1143  1.987   .     S
O1140  Zn1144  1.987   .     S
O1141  Zn1144  1.990   .     S
O1142  Zn1143  1.990   .     S
C1145  O1181   1.282   .     A
C1145  C1148   1.418   .     S
C1145  O1179   1.282   .     A
C1146  C1148   1.397   .     A
C1146  H1171   1.084   .     S
C1147  C1161   1.397   .     A
C1147  C1155   1.418   .     S
C1147  C1162   1.397   .     A
C1148  C1160   1.397   .     A
C1149  H1172   1.082   .     S
C1149  N1178   1.366   .     A
C1150  N1177   1.366   .     A
C1150  H1173   1.082   .     S
C1150  C360    1.416   1_556 S
C1151  H1174   1.082   .     S
C1151  N1177   1.366   .     A
C1151  C357    1.416   1_556 S
C1152  N1178   1.366   .     A
C1152  H1175   1.082   .     S
C1153  H1164   1.111   .     S
C1153  H1165   1.110   .     S
C1153  C1070   1.525   1_655 S
C1153  H1088   1.112   1_655 S
C1154  H1167   1.110   .     S
C1154  H1168   1.111   .     S
C1155  O1182   1.282   .     A
C1155  O1180   1.282   .     A
C1156  O1185   1.283   .     A
C1156  O1183   1.270   .     A
C1156  C1158   1.405   .     S
C1157  O1186   1.283   .     A
C1157  C1159   1.405   .     S
C1157  O1184   1.270   .     A
C1159  C1066   1.525   1_655 S
C1159  C1070   1.357   1_655 S
C1160  H1163   1.084   .     S
C1161  H1169   1.084   .     S
C1161  C882    1.370   1_565 S
C1162  H1170   1.084   .     S
C1162  C896    1.370   1_565 S
H1166  C1066   1.112   1_655 S
N1177  Zn1187  2.009   .     S
N1178  Zn1188  2.009   .     S
O1179  Zn1187  1.998   .     S
O1180  Zn1188  1.998   .     S
O1181  Zn1188  1.998   .     S
O1182  Zn1187  1.998   .     S
O1183  Zn1187  1.987   .     S
O1184  Zn1188  1.987   .     S
O1185  Zn1188  1.990   .     S
O1186  Zn1187  1.990   .     S
