data_str_m3_o1_o2_pcu_sym.115
_audit_creation_date              2020-01-03
_audit_creation_method            'Materials Studio'
_symmetry_space_group_name_H-M    'P1'
_symmetry_Int_Tables_number       1
_symmetry_cell_setting            triclinic
loop_
_symmetry_equiv_pos_as_xyz
  x,y,z
_cell_length_a                    32.1813
_cell_length_b                    29.6577
_cell_length_c                    29.8995
_cell_angle_alpha                 89.8682
_cell_angle_beta                  90.8386
_cell_angle_gamma                 90.0526
loop_
_atom_site_label
_atom_site_type_symbol
_atom_site_fract_x
_atom_site_fract_y
_atom_site_fract_z
_atom_site_U_iso_or_equiv
_atom_site_adp_type
_atom_site_occupancy
C1     C     0.08667   0.16670   0.25040   0.00000  Uiso   1.00
C2     C     0.24666   0.16675   0.24979   0.00000  Uiso   1.00
C3     C     0.16649   0.16668   0.16421   0.00000  Uiso   1.00
C4     C     0.16623   0.16650   0.33609   0.00000  Uiso   1.00
C5     C     0.19039   0.02425   0.28042   0.00000  Uiso   1.00
C6     C     0.14620   0.30940   0.21697   0.00000  Uiso   1.00
C7     C     0.14350   0.02442   0.21902   0.00000  Uiso   1.00
C8     C     0.18808   0.30919   0.28239   0.00000  Uiso   1.00
C9     C     0.02111   0.12628   0.24568   0.00000  Uiso   1.00
C10    C     0.31211   0.20776   0.25571   0.00000  Uiso   1.00
C11    C     0.31197   0.12650   0.24390   0.00000  Uiso   1.00
C12    C     0.02140   0.20773   0.25598   0.00000  Uiso   1.00
C13    C     0.12733   0.17787   0.04822   0.00000  Uiso   1.00
C14    C     0.17901   0.12735   0.45346   0.00000  Uiso   1.00
C15    C     0.14422   0.20016   0.45297   0.00000  Uiso   1.00
C16    C     0.19888   0.15106   0.04761   0.00000  Uiso   1.00
C17    C     0.12892   0.17936   0.09440   0.00000  Uiso   1.00
C18    C     0.18067   0.12845   0.40737   0.00000  Uiso   1.00
C19    C     0.14528   0.20086   0.40680   0.00000  Uiso   1.00
C20    C     0.20017   0.15194   0.09378   0.00000  Uiso   1.00
C21    C     0.16534   0.16647   0.11673   0.00000  Uiso   1.00
C22    C     0.16440   0.16557   0.38410   0.00000  Uiso   1.00
C23    C     0.16240   0.16389   0.02475   0.00000  Uiso   1.00
C24    C     0.16144   0.16357   0.47637   0.00000  Uiso   1.00
C25    C     0.29083   0.16705   0.24964   0.00000  Uiso   1.00
C26    C     0.04248   0.16690   0.25089   0.00000  Uiso   1.00
H27    H     0.09883   0.18727   0.03089   0.00000  Uiso   1.00
H28    H     0.19168   0.09848   0.47122   0.00000  Uiso   1.00
H29    H     0.13063   0.22842   0.47035   0.00000  Uiso   1.00
H30    H     0.22639   0.14091   0.02979   0.00000  Uiso   1.00
H31    H     0.10184   0.19002   0.11274   0.00000  Uiso   1.00
H32    H     0.19503   0.10061   0.39001   0.00000  Uiso   1.00
H33    H     0.13105   0.22871   0.38890   0.00000  Uiso   1.00
H34    H     0.22826   0.14187   0.11157   0.00000  Uiso   1.00
H35    H     0.03704   0.09446   0.24274   0.00000  Uiso   1.00
H36    H     0.29600   0.23945   0.26026   0.00000  Uiso   1.00
H37    H     0.29587   0.09505   0.23798   0.00000  Uiso   1.00
H38    H     0.03768   0.23944   0.26042   0.00000  Uiso   1.00
N39    N     0.16667   0.28573   0.25000   0.00000  Uiso   1.00
N40    N     0.16667   0.04760   0.25000   0.00000  Uiso   1.00
O41    O     0.10559   0.20487   0.24999   0.00000  Uiso   1.00
O42    O     0.22774   0.12846   0.25000   0.00000  Uiso   1.00
O43    O     0.22774   0.20487   0.25000   0.00000  Uiso   1.00
O44    O     0.10559   0.12846   0.24999   0.00000  Uiso   1.00
O45    O     0.16666   0.20489   0.18453   0.00000  Uiso   1.00
O46    O     0.16667   0.12845   0.31547   0.00000  Uiso   1.00
O47    O     0.16667   0.20489   0.31547   0.00000  Uiso   1.00
O48    O     0.16666   0.12845   0.18453   0.00000  Uiso   1.00
Zn49   Zn    0.16667   0.21771   0.25000   0.00000  Uiso   1.00
Zn50   Zn    0.16667   0.11563   0.25000   0.00000  Uiso   1.00
O51    O     0.21509   0.04864   0.30992   0.00000  Uiso   1.00
C52    C     0.25739   0.03783   0.30383   0.00000  Uiso   1.00
H53    H     0.27648   0.06705   0.31478   0.00000  Uiso   1.00
H54    H     0.26506   0.03059   0.26833   0.00000  Uiso   1.00
H55    H     0.26668   0.00887   0.32526   0.00000  Uiso   1.00
O56    O     0.12793   0.28587   0.18207   0.00000  Uiso   1.00
C57    C     0.15116   0.29342   0.14298   0.00000  Uiso   1.00
H58    H     0.13850   0.27168   0.11596   0.00000  Uiso   1.00
H59    H     0.18451   0.28445   0.14807   0.00000  Uiso   1.00
H60    H     0.14847   0.32877   0.13100   0.00000  Uiso   1.00
O61    O     0.12085   0.04921   0.18776   0.00000  Uiso   1.00
C62    C     0.07889   0.03521   0.18623   0.00000  Uiso   1.00
H63    H     0.05970   0.06401   0.17439   0.00000  Uiso   1.00
H64    H     0.06704   0.02447   0.21946   0.00000  Uiso   1.00
H65    H     0.07426   0.00796   0.16133   0.00000  Uiso   1.00
O66    O     0.20948   0.28513   0.31499   0.00000  Uiso   1.00
C67    C     0.19275   0.29467   0.35736   0.00000  Uiso   1.00
H68    H     0.20320   0.26811   0.38110   0.00000  Uiso   1.00
H69    H     0.15812   0.29484   0.35677   0.00000  Uiso   1.00
H70    H     0.20459   0.32713   0.37077   0.00000  Uiso   1.00
C71    C     0.42000   0.16670   0.25040   0.00000  Uiso   1.00
C72    C     0.57999   0.16675   0.24979   0.00000  Uiso   1.00
C73    C     0.49982   0.16668   0.16421   0.00000  Uiso   1.00
C74    C     0.49957   0.16650   0.33609   0.00000  Uiso   1.00
C75    C     0.52372   0.02425   0.28042   0.00000  Uiso   1.00
C76    C     0.47954   0.30940   0.21697   0.00000  Uiso   1.00
C77    C     0.47683   0.02442   0.21902   0.00000  Uiso   1.00
C78    C     0.52141   0.30919   0.28239   0.00000  Uiso   1.00
C79    C     0.35445   0.12628   0.24568   0.00000  Uiso   1.00
C80    C     0.64544   0.20776   0.25571   0.00000  Uiso   1.00
C81    C     0.64531   0.12650   0.24390   0.00000  Uiso   1.00
C82    C     0.35474   0.20773   0.25598   0.00000  Uiso   1.00
C83    C     0.46067   0.17787   0.04822   0.00000  Uiso   1.00
C84    C     0.51234   0.12735   0.45346   0.00000  Uiso   1.00
C85    C     0.47755   0.20016   0.45297   0.00000  Uiso   1.00
C86    C     0.53221   0.15106   0.04761   0.00000  Uiso   1.00
C87    C     0.46225   0.17936   0.09440   0.00000  Uiso   1.00
C88    C     0.51401   0.12845   0.40737   0.00000  Uiso   1.00
C89    C     0.47861   0.20086   0.40680   0.00000  Uiso   1.00
C90    C     0.53350   0.15194   0.09378   0.00000  Uiso   1.00
C91    C     0.49867   0.16647   0.11673   0.00000  Uiso   1.00
C92    C     0.49773   0.16557   0.38410   0.00000  Uiso   1.00
C93    C     0.49574   0.16389   0.02475   0.00000  Uiso   1.00
C94    C     0.49477   0.16357   0.47637   0.00000  Uiso   1.00
C95    C     0.62416   0.16705   0.24964   0.00000  Uiso   1.00
C96    C     0.37582   0.16690   0.25089   0.00000  Uiso   1.00
H97    H     0.43217   0.18727   0.03089   0.00000  Uiso   1.00
H98    H     0.52501   0.09848   0.47122   0.00000  Uiso   1.00
H99    H     0.46396   0.22842   0.47035   0.00000  Uiso   1.00
H100   H     0.55973   0.14091   0.02979   0.00000  Uiso   1.00
H101   H     0.43518   0.19002   0.11274   0.00000  Uiso   1.00
H102   H     0.52836   0.10061   0.39001   0.00000  Uiso   1.00
H103   H     0.46439   0.22871   0.38890   0.00000  Uiso   1.00
H104   H     0.56159   0.14187   0.11157   0.00000  Uiso   1.00
H105   H     0.37037   0.09446   0.24274   0.00000  Uiso   1.00
H106   H     0.62933   0.23945   0.26026   0.00000  Uiso   1.00
H107   H     0.62920   0.09505   0.23798   0.00000  Uiso   1.00
H108   H     0.37101   0.23944   0.26042   0.00000  Uiso   1.00
N109   N     0.50000   0.28573   0.25000   0.00000  Uiso   1.00
N110   N     0.50000   0.04760   0.25000   0.00000  Uiso   1.00
O111   O     0.43892   0.20487   0.24999   0.00000  Uiso   1.00
O112   O     0.56108   0.12846   0.25000   0.00000  Uiso   1.00
O113   O     0.56108   0.20487   0.25000   0.00000  Uiso   1.00
O114   O     0.43892   0.12846   0.24999   0.00000  Uiso   1.00
O115   O     0.50000   0.20489   0.18453   0.00000  Uiso   1.00
O116   O     0.50000   0.12845   0.31547   0.00000  Uiso   1.00
O117   O     0.50000   0.20489   0.31547   0.00000  Uiso   1.00
O118   O     0.50000   0.12845   0.18453   0.00000  Uiso   1.00
Zn119  Zn    0.50000   0.21771   0.25000   0.00000  Uiso   1.00
Zn120  Zn    0.50000   0.11563   0.25000   0.00000  Uiso   1.00
O121   O     0.54843   0.04864   0.30992   0.00000  Uiso   1.00
C122   C     0.59072   0.03783   0.30383   0.00000  Uiso   1.00
H123   H     0.60981   0.06705   0.31478   0.00000  Uiso   1.00
H124   H     0.59840   0.03059   0.26833   0.00000  Uiso   1.00
H125   H     0.60002   0.00887   0.32526   0.00000  Uiso   1.00
O126   O     0.46126   0.28587   0.18207   0.00000  Uiso   1.00
C127   C     0.48449   0.29342   0.14298   0.00000  Uiso   1.00
H128   H     0.47183   0.27168   0.11596   0.00000  Uiso   1.00
H129   H     0.51784   0.28445   0.14807   0.00000  Uiso   1.00
H130   H     0.48180   0.32877   0.13100   0.00000  Uiso   1.00
O131   O     0.45418   0.04921   0.18776   0.00000  Uiso   1.00
C132   C     0.41222   0.03521   0.18623   0.00000  Uiso   1.00
H133   H     0.39303   0.06401   0.17439   0.00000  Uiso   1.00
H134   H     0.40037   0.02447   0.21946   0.00000  Uiso   1.00
H135   H     0.40760   0.00796   0.16133   0.00000  Uiso   1.00
O136   O     0.54281   0.28513   0.31499   0.00000  Uiso   1.00
C137   C     0.52608   0.29467   0.35736   0.00000  Uiso   1.00
H138   H     0.53653   0.26811   0.38110   0.00000  Uiso   1.00
H139   H     0.49145   0.29484   0.35677   0.00000  Uiso   1.00
H140   H     0.53792   0.32713   0.37077   0.00000  Uiso   1.00
C141   C     0.75333   0.16670   0.25040   0.00000  Uiso   1.00
C142   C     0.91333   0.16675   0.24979   0.00000  Uiso   1.00
C143   C     0.83316   0.16668   0.16421   0.00000  Uiso   1.00
C144   C     0.83290   0.16650   0.33609   0.00000  Uiso   1.00
C145   C     0.85705   0.02425   0.28042   0.00000  Uiso   1.00
C146   C     0.81287   0.30940   0.21697   0.00000  Uiso   1.00
C147   C     0.81017   0.02442   0.21902   0.00000  Uiso   1.00
C148   C     0.85475   0.30919   0.28239   0.00000  Uiso   1.00
C149   C     0.68778   0.12628   0.24568   0.00000  Uiso   1.00
C150   C     0.97878   0.20776   0.25571   0.00000  Uiso   1.00
C151   C     0.97864   0.12650   0.24390   0.00000  Uiso   1.00
C152   C     0.68807   0.20773   0.25598   0.00000  Uiso   1.00
C153   C     0.79400   0.17787   0.04822   0.00000  Uiso   1.00
C154   C     0.84568   0.12735   0.45346   0.00000  Uiso   1.00
C155   C     0.81089   0.20016   0.45297   0.00000  Uiso   1.00
C156   C     0.86555   0.15106   0.04761   0.00000  Uiso   1.00
C157   C     0.79559   0.17936   0.09440   0.00000  Uiso   1.00
C158   C     0.84734   0.12845   0.40737   0.00000  Uiso   1.00
C159   C     0.81194   0.20086   0.40680   0.00000  Uiso   1.00
C160   C     0.86684   0.15194   0.09378   0.00000  Uiso   1.00
C161   C     0.83200   0.16647   0.11673   0.00000  Uiso   1.00
C162   C     0.83106   0.16557   0.38410   0.00000  Uiso   1.00
C163   C     0.82907   0.16389   0.02475   0.00000  Uiso   1.00
C164   C     0.82811   0.16357   0.47637   0.00000  Uiso   1.00
C165   C     0.95750   0.16705   0.24964   0.00000  Uiso   1.00
C166   C     0.70915   0.16690   0.25089   0.00000  Uiso   1.00
H167   H     0.76550   0.18727   0.03089   0.00000  Uiso   1.00
H168   H     0.85834   0.09848   0.47122   0.00000  Uiso   1.00
H169   H     0.79730   0.22842   0.47035   0.00000  Uiso   1.00
H170   H     0.89306   0.14091   0.02979   0.00000  Uiso   1.00
H171   H     0.76851   0.19002   0.11274   0.00000  Uiso   1.00
H172   H     0.86170   0.10061   0.39001   0.00000  Uiso   1.00
H173   H     0.79772   0.22871   0.38890   0.00000  Uiso   1.00
H174   H     0.89492   0.14187   0.11157   0.00000  Uiso   1.00
H175   H     0.70370   0.09446   0.24274   0.00000  Uiso   1.00
H176   H     0.96266   0.23945   0.26026   0.00000  Uiso   1.00
H177   H     0.96253   0.09505   0.23798   0.00000  Uiso   1.00
H178   H     0.70434   0.23944   0.26042   0.00000  Uiso   1.00
N179   N     0.83333   0.28573   0.25000   0.00000  Uiso   1.00
N180   N     0.83333   0.04760   0.25000   0.00000  Uiso   1.00
O181   O     0.77226   0.20487   0.24999   0.00000  Uiso   1.00
O182   O     0.89441   0.12846   0.25000   0.00000  Uiso   1.00
O183   O     0.89441   0.20487   0.25000   0.00000  Uiso   1.00
O184   O     0.77226   0.12846   0.24999   0.00000  Uiso   1.00
O185   O     0.83333   0.20489   0.18453   0.00000  Uiso   1.00
O186   O     0.83334   0.12845   0.31547   0.00000  Uiso   1.00
O187   O     0.83334   0.20489   0.31547   0.00000  Uiso   1.00
O188   O     0.83333   0.12845   0.18453   0.00000  Uiso   1.00
Zn189  Zn    0.83333   0.21771   0.25000   0.00000  Uiso   1.00
Zn190  Zn    0.83333   0.11563   0.25000   0.00000  Uiso   1.00
O191   O     0.88176   0.04864   0.30992   0.00000  Uiso   1.00
C192   C     0.92405   0.03783   0.30383   0.00000  Uiso   1.00
H193   H     0.94314   0.06705   0.31478   0.00000  Uiso   1.00
H194   H     0.93173   0.03059   0.26833   0.00000  Uiso   1.00
H195   H     0.93335   0.00887   0.32526   0.00000  Uiso   1.00
O196   O     0.79459   0.28587   0.18207   0.00000  Uiso   1.00
C197   C     0.81783   0.29342   0.14298   0.00000  Uiso   1.00
H198   H     0.80516   0.27168   0.11596   0.00000  Uiso   1.00
H199   H     0.85117   0.28445   0.14807   0.00000  Uiso   1.00
H200   H     0.81514   0.32877   0.13100   0.00000  Uiso   1.00
O201   O     0.78752   0.04921   0.18776   0.00000  Uiso   1.00
C202   C     0.74555   0.03521   0.18623   0.00000  Uiso   1.00
H203   H     0.72636   0.06401   0.17439   0.00000  Uiso   1.00
H204   H     0.73371   0.02447   0.21946   0.00000  Uiso   1.00
H205   H     0.74093   0.00796   0.16133   0.00000  Uiso   1.00
O206   O     0.87615   0.28513   0.31499   0.00000  Uiso   1.00
C207   C     0.85941   0.29467   0.35736   0.00000  Uiso   1.00
H208   H     0.86986   0.26811   0.38110   0.00000  Uiso   1.00
H209   H     0.82479   0.29484   0.35677   0.00000  Uiso   1.00
H210   H     0.87125   0.32713   0.37077   0.00000  Uiso   1.00
C211   C     0.08667   0.50004   0.25040   0.00000  Uiso   1.00
C212   C     0.24666   0.50008   0.24979   0.00000  Uiso   1.00
C213   C     0.16649   0.50001   0.16421   0.00000  Uiso   1.00
C214   C     0.16623   0.49984   0.33609   0.00000  Uiso   1.00
C215   C     0.19039   0.35758   0.28042   0.00000  Uiso   1.00
C216   C     0.14620   0.64273   0.21697   0.00000  Uiso   1.00
C217   C     0.14350   0.35776   0.21902   0.00000  Uiso   1.00
C218   C     0.18808   0.64252   0.28239   0.00000  Uiso   1.00
C219   C     0.02111   0.45962   0.24568   0.00000  Uiso   1.00
C220   C     0.31211   0.54109   0.25571   0.00000  Uiso   1.00
C221   C     0.31197   0.45984   0.24390   0.00000  Uiso   1.00
C222   C     0.02140   0.54107   0.25598   0.00000  Uiso   1.00
C223   C     0.12733   0.51120   0.04822   0.00000  Uiso   1.00
C224   C     0.17901   0.46068   0.45346   0.00000  Uiso   1.00
C225   C     0.14422   0.53349   0.45297   0.00000  Uiso   1.00
C226   C     0.19888   0.48439   0.04761   0.00000  Uiso   1.00
C227   C     0.12892   0.51269   0.09440   0.00000  Uiso   1.00
C228   C     0.18067   0.46178   0.40737   0.00000  Uiso   1.00
C229   C     0.14528   0.53419   0.40680   0.00000  Uiso   1.00
C230   C     0.20017   0.48527   0.09378   0.00000  Uiso   1.00
C231   C     0.16534   0.49981   0.11673   0.00000  Uiso   1.00
C232   C     0.16440   0.49890   0.38410   0.00000  Uiso   1.00
C233   C     0.16240   0.49723   0.02475   0.00000  Uiso   1.00
C234   C     0.16144   0.49690   0.47637   0.00000  Uiso   1.00
C235   C     0.29083   0.50038   0.24964   0.00000  Uiso   1.00
C236   C     0.04248   0.50024   0.25089   0.00000  Uiso   1.00
H237   H     0.09883   0.52061   0.03089   0.00000  Uiso   1.00
H238   H     0.19168   0.43181   0.47122   0.00000  Uiso   1.00
H239   H     0.13063   0.56175   0.47035   0.00000  Uiso   1.00
H240   H     0.22639   0.47425   0.02979   0.00000  Uiso   1.00
H241   H     0.10184   0.52335   0.11274   0.00000  Uiso   1.00
H242   H     0.19503   0.43394   0.39001   0.00000  Uiso   1.00
H243   H     0.13105   0.56204   0.38890   0.00000  Uiso   1.00
H244   H     0.22826   0.47520   0.11157   0.00000  Uiso   1.00
H245   H     0.03704   0.42779   0.24274   0.00000  Uiso   1.00
H246   H     0.29600   0.57278   0.26026   0.00000  Uiso   1.00
H247   H     0.29587   0.42839   0.23798   0.00000  Uiso   1.00
H248   H     0.03768   0.57278   0.26042   0.00000  Uiso   1.00
N249   N     0.16667   0.61907   0.25000   0.00000  Uiso   1.00
N250   N     0.16667   0.38093   0.25000   0.00000  Uiso   1.00
O251   O     0.10559   0.53821   0.24999   0.00000  Uiso   1.00
O252   O     0.22774   0.46179   0.25000   0.00000  Uiso   1.00
O253   O     0.22774   0.53821   0.25000   0.00000  Uiso   1.00
O254   O     0.10559   0.46179   0.24999   0.00000  Uiso   1.00
O255   O     0.16666   0.53822   0.18453   0.00000  Uiso   1.00
O256   O     0.16667   0.46178   0.31547   0.00000  Uiso   1.00
O257   O     0.16667   0.53822   0.31547   0.00000  Uiso   1.00
O258   O     0.16666   0.46178   0.18453   0.00000  Uiso   1.00
Zn259  Zn    0.16667   0.55104   0.25000   0.00000  Uiso   1.00
Zn260  Zn    0.16667   0.44896   0.25000   0.00000  Uiso   1.00
O261   O     0.21509   0.38197   0.30992   0.00000  Uiso   1.00
C262   C     0.25739   0.37116   0.30383   0.00000  Uiso   1.00
H263   H     0.27648   0.40038   0.31478   0.00000  Uiso   1.00
H264   H     0.26506   0.36392   0.26833   0.00000  Uiso   1.00
H265   H     0.26668   0.34221   0.32526   0.00000  Uiso   1.00
O266   O     0.12793   0.61920   0.18207   0.00000  Uiso   1.00
C267   C     0.15116   0.62675   0.14298   0.00000  Uiso   1.00
H268   H     0.13850   0.60501   0.11596   0.00000  Uiso   1.00
H269   H     0.18451   0.61778   0.14807   0.00000  Uiso   1.00
H270   H     0.14847   0.66210   0.13100   0.00000  Uiso   1.00
O271   O     0.12085   0.38254   0.18776   0.00000  Uiso   1.00
C272   C     0.07889   0.36854   0.18623   0.00000  Uiso   1.00
H273   H     0.05970   0.39734   0.17439   0.00000  Uiso   1.00
H274   H     0.06704   0.35780   0.21946   0.00000  Uiso   1.00
H275   H     0.07426   0.34130   0.16133   0.00000  Uiso   1.00
O276   O     0.20948   0.61846   0.31499   0.00000  Uiso   1.00
C277   C     0.19275   0.62801   0.35736   0.00000  Uiso   1.00
H278   H     0.20320   0.60144   0.38110   0.00000  Uiso   1.00
H279   H     0.15812   0.62817   0.35677   0.00000  Uiso   1.00
H280   H     0.20459   0.66046   0.37077   0.00000  Uiso   1.00
C281   C     0.42000   0.50004   0.25040   0.00000  Uiso   1.00
C282   C     0.57999   0.50008   0.24979   0.00000  Uiso   1.00
C283   C     0.49982   0.50001   0.16421   0.00000  Uiso   1.00
C284   C     0.49957   0.49984   0.33609   0.00000  Uiso   1.00
C285   C     0.52372   0.35758   0.28042   0.00000  Uiso   1.00
C286   C     0.47954   0.64273   0.21697   0.00000  Uiso   1.00
C287   C     0.47683   0.35776   0.21902   0.00000  Uiso   1.00
C288   C     0.52141   0.64252   0.28239   0.00000  Uiso   1.00
C289   C     0.35445   0.45962   0.24568   0.00000  Uiso   1.00
C290   C     0.64544   0.54109   0.25571   0.00000  Uiso   1.00
C291   C     0.64531   0.45984   0.24390   0.00000  Uiso   1.00
C292   C     0.35474   0.54107   0.25598   0.00000  Uiso   1.00
C293   C     0.46067   0.51120   0.04822   0.00000  Uiso   1.00
C294   C     0.51234   0.46068   0.45346   0.00000  Uiso   1.00
C295   C     0.47755   0.53349   0.45297   0.00000  Uiso   1.00
C296   C     0.53221   0.48439   0.04761   0.00000  Uiso   1.00
C297   C     0.46225   0.51269   0.09440   0.00000  Uiso   1.00
C298   C     0.51401   0.46178   0.40737   0.00000  Uiso   1.00
C299   C     0.47861   0.53419   0.40680   0.00000  Uiso   1.00
C300   C     0.53350   0.48527   0.09378   0.00000  Uiso   1.00
C301   C     0.49867   0.49981   0.11673   0.00000  Uiso   1.00
C302   C     0.49773   0.49890   0.38410   0.00000  Uiso   1.00
C303   C     0.49574   0.49723   0.02475   0.00000  Uiso   1.00
C304   C     0.49477   0.49690   0.47637   0.00000  Uiso   1.00
C305   C     0.62416   0.50038   0.24964   0.00000  Uiso   1.00
C306   C     0.37582   0.50024   0.25089   0.00000  Uiso   1.00
H307   H     0.43217   0.52061   0.03089   0.00000  Uiso   1.00
H308   H     0.52501   0.43181   0.47122   0.00000  Uiso   1.00
H309   H     0.46396   0.56175   0.47035   0.00000  Uiso   1.00
H310   H     0.55973   0.47425   0.02979   0.00000  Uiso   1.00
H311   H     0.43518   0.52335   0.11274   0.00000  Uiso   1.00
H312   H     0.52836   0.43394   0.39001   0.00000  Uiso   1.00
H313   H     0.46439   0.56204   0.38890   0.00000  Uiso   1.00
H314   H     0.56159   0.47520   0.11157   0.00000  Uiso   1.00
H315   H     0.37037   0.42779   0.24274   0.00000  Uiso   1.00
H316   H     0.62933   0.57278   0.26026   0.00000  Uiso   1.00
H317   H     0.62920   0.42839   0.23798   0.00000  Uiso   1.00
H318   H     0.37101   0.57278   0.26042   0.00000  Uiso   1.00
N319   N     0.50000   0.61907   0.25000   0.00000  Uiso   1.00
N320   N     0.50000   0.38093   0.25000   0.00000  Uiso   1.00
O321   O     0.43892   0.53821   0.24999   0.00000  Uiso   1.00
O322   O     0.56108   0.46179   0.25000   0.00000  Uiso   1.00
O323   O     0.56108   0.53821   0.25000   0.00000  Uiso   1.00
O324   O     0.43892   0.46179   0.24999   0.00000  Uiso   1.00
O325   O     0.50000   0.53822   0.18453   0.00000  Uiso   1.00
O326   O     0.50000   0.46178   0.31547   0.00000  Uiso   1.00
O327   O     0.50000   0.53822   0.31547   0.00000  Uiso   1.00
O328   O     0.50000   0.46178   0.18453   0.00000  Uiso   1.00
Zn329  Zn    0.50000   0.55104   0.25000   0.00000  Uiso   1.00
Zn330  Zn    0.50000   0.44896   0.25000   0.00000  Uiso   1.00
O331   O     0.54843   0.38197   0.30992   0.00000  Uiso   1.00
C332   C     0.59072   0.37116   0.30383   0.00000  Uiso   1.00
H333   H     0.60981   0.40038   0.31478   0.00000  Uiso   1.00
H334   H     0.59840   0.36392   0.26833   0.00000  Uiso   1.00
H335   H     0.60002   0.34221   0.32526   0.00000  Uiso   1.00
O336   O     0.46126   0.61920   0.18207   0.00000  Uiso   1.00
C337   C     0.48449   0.62675   0.14298   0.00000  Uiso   1.00
H338   H     0.47183   0.60501   0.11596   0.00000  Uiso   1.00
H339   H     0.51784   0.61778   0.14807   0.00000  Uiso   1.00
H340   H     0.48180   0.66210   0.13100   0.00000  Uiso   1.00
O341   O     0.45418   0.38254   0.18776   0.00000  Uiso   1.00
C342   C     0.41222   0.36854   0.18623   0.00000  Uiso   1.00
H343   H     0.39303   0.39734   0.17439   0.00000  Uiso   1.00
H344   H     0.40037   0.35780   0.21946   0.00000  Uiso   1.00
H345   H     0.40760   0.34130   0.16133   0.00000  Uiso   1.00
O346   O     0.54281   0.61846   0.31499   0.00000  Uiso   1.00
C347   C     0.52608   0.62801   0.35736   0.00000  Uiso   1.00
H348   H     0.53653   0.60144   0.38110   0.00000  Uiso   1.00
H349   H     0.49145   0.62817   0.35677   0.00000  Uiso   1.00
H350   H     0.53792   0.66046   0.37077   0.00000  Uiso   1.00
C351   C     0.75333   0.50004   0.25040   0.00000  Uiso   1.00
C352   C     0.91333   0.50008   0.24979   0.00000  Uiso   1.00
C353   C     0.83316   0.50001   0.16421   0.00000  Uiso   1.00
C354   C     0.83290   0.49984   0.33609   0.00000  Uiso   1.00
C355   C     0.85705   0.35758   0.28042   0.00000  Uiso   1.00
C356   C     0.81287   0.64273   0.21697   0.00000  Uiso   1.00
C357   C     0.81017   0.35776   0.21902   0.00000  Uiso   1.00
C358   C     0.85475   0.64252   0.28239   0.00000  Uiso   1.00
C359   C     0.68778   0.45962   0.24568   0.00000  Uiso   1.00
C360   C     0.97878   0.54109   0.25571   0.00000  Uiso   1.00
C361   C     0.97864   0.45984   0.24390   0.00000  Uiso   1.00
C362   C     0.68807   0.54107   0.25598   0.00000  Uiso   1.00
C363   C     0.79400   0.51120   0.04822   0.00000  Uiso   1.00
C364   C     0.84568   0.46068   0.45346   0.00000  Uiso   1.00
C365   C     0.81089   0.53349   0.45297   0.00000  Uiso   1.00
C366   C     0.86555   0.48439   0.04761   0.00000  Uiso   1.00
C367   C     0.79559   0.51269   0.09440   0.00000  Uiso   1.00
C368   C     0.84734   0.46178   0.40737   0.00000  Uiso   1.00
C369   C     0.81194   0.53419   0.40680   0.00000  Uiso   1.00
C370   C     0.86684   0.48527   0.09378   0.00000  Uiso   1.00
C371   C     0.83200   0.49981   0.11673   0.00000  Uiso   1.00
C372   C     0.83106   0.49890   0.38410   0.00000  Uiso   1.00
C373   C     0.82907   0.49723   0.02475   0.00000  Uiso   1.00
C374   C     0.82811   0.49690   0.47637   0.00000  Uiso   1.00
C375   C     0.95750   0.50038   0.24964   0.00000  Uiso   1.00
C376   C     0.70915   0.50024   0.25089   0.00000  Uiso   1.00
H377   H     0.76550   0.52061   0.03089   0.00000  Uiso   1.00
H378   H     0.85834   0.43181   0.47122   0.00000  Uiso   1.00
H379   H     0.79730   0.56175   0.47035   0.00000  Uiso   1.00
H380   H     0.89306   0.47425   0.02979   0.00000  Uiso   1.00
H381   H     0.76851   0.52335   0.11274   0.00000  Uiso   1.00
H382   H     0.86170   0.43394   0.39001   0.00000  Uiso   1.00
H383   H     0.79772   0.56204   0.38890   0.00000  Uiso   1.00
H384   H     0.89492   0.47520   0.11157   0.00000  Uiso   1.00
H385   H     0.70370   0.42779   0.24274   0.00000  Uiso   1.00
H386   H     0.96266   0.57278   0.26026   0.00000  Uiso   1.00
H387   H     0.96253   0.42839   0.23798   0.00000  Uiso   1.00
H388   H     0.70434   0.57278   0.26042   0.00000  Uiso   1.00
N389   N     0.83333   0.61907   0.25000   0.00000  Uiso   1.00
N390   N     0.83333   0.38093   0.25000   0.00000  Uiso   1.00
O391   O     0.77226   0.53821   0.24999   0.00000  Uiso   1.00
O392   O     0.89441   0.46179   0.25000   0.00000  Uiso   1.00
O393   O     0.89441   0.53821   0.25000   0.00000  Uiso   1.00
O394   O     0.77226   0.46179   0.24999   0.00000  Uiso   1.00
O395   O     0.83333   0.53822   0.18453   0.00000  Uiso   1.00
O396   O     0.83334   0.46178   0.31547   0.00000  Uiso   1.00
O397   O     0.83334   0.53822   0.31547   0.00000  Uiso   1.00
O398   O     0.83333   0.46178   0.18453   0.00000  Uiso   1.00
Zn399  Zn    0.83333   0.55104   0.25000   0.00000  Uiso   1.00
Zn400  Zn    0.83333   0.44896   0.25000   0.00000  Uiso   1.00
O401   O     0.88176   0.38197   0.30992   0.00000  Uiso   1.00
C402   C     0.92405   0.37116   0.30383   0.00000  Uiso   1.00
H403   H     0.94314   0.40038   0.31478   0.00000  Uiso   1.00
H404   H     0.93173   0.36392   0.26833   0.00000  Uiso   1.00
H405   H     0.93335   0.34221   0.32526   0.00000  Uiso   1.00
O406   O     0.79459   0.61920   0.18207   0.00000  Uiso   1.00
C407   C     0.81783   0.62675   0.14298   0.00000  Uiso   1.00
H408   H     0.80516   0.60501   0.11596   0.00000  Uiso   1.00
H409   H     0.85117   0.61778   0.14807   0.00000  Uiso   1.00
H410   H     0.81514   0.66210   0.13100   0.00000  Uiso   1.00
O411   O     0.78752   0.38254   0.18776   0.00000  Uiso   1.00
C412   C     0.74555   0.36854   0.18623   0.00000  Uiso   1.00
H413   H     0.72636   0.39734   0.17439   0.00000  Uiso   1.00
H414   H     0.73371   0.35780   0.21946   0.00000  Uiso   1.00
H415   H     0.74093   0.34130   0.16133   0.00000  Uiso   1.00
O416   O     0.87615   0.61846   0.31499   0.00000  Uiso   1.00
C417   C     0.85941   0.62801   0.35736   0.00000  Uiso   1.00
H418   H     0.86986   0.60144   0.38110   0.00000  Uiso   1.00
H419   H     0.82479   0.62817   0.35677   0.00000  Uiso   1.00
H420   H     0.87125   0.66046   0.37077   0.00000  Uiso   1.00
C421   C     0.08667   0.83337   0.25040   0.00000  Uiso   1.00
C422   C     0.24666   0.83342   0.24979   0.00000  Uiso   1.00
C423   C     0.16649   0.83335   0.16421   0.00000  Uiso   1.00
C424   C     0.16623   0.83317   0.33609   0.00000  Uiso   1.00
C425   C     0.19039   0.69091   0.28042   0.00000  Uiso   1.00
C426   C     0.14620   0.97607   0.21697   0.00000  Uiso   1.00
C427   C     0.14350   0.69109   0.21902   0.00000  Uiso   1.00
C428   C     0.18808   0.97585   0.28239   0.00000  Uiso   1.00
C429   C     0.02111   0.79295   0.24568   0.00000  Uiso   1.00
C430   C     0.31211   0.87442   0.25571   0.00000  Uiso   1.00
C431   C     0.31197   0.79317   0.24390   0.00000  Uiso   1.00
C432   C     0.02140   0.87440   0.25598   0.00000  Uiso   1.00
C433   C     0.12733   0.84453   0.04822   0.00000  Uiso   1.00
C434   C     0.17901   0.79402   0.45346   0.00000  Uiso   1.00
C435   C     0.14422   0.86683   0.45297   0.00000  Uiso   1.00
C436   C     0.19888   0.81772   0.04761   0.00000  Uiso   1.00
C437   C     0.12892   0.84603   0.09440   0.00000  Uiso   1.00
C438   C     0.18067   0.79512   0.40737   0.00000  Uiso   1.00
C439   C     0.14528   0.86752   0.40680   0.00000  Uiso   1.00
C440   C     0.20017   0.81861   0.09378   0.00000  Uiso   1.00
C441   C     0.16534   0.83314   0.11673   0.00000  Uiso   1.00
C442   C     0.16440   0.83224   0.38410   0.00000  Uiso   1.00
C443   C     0.16240   0.83056   0.02475   0.00000  Uiso   1.00
C444   C     0.16144   0.83024   0.47637   0.00000  Uiso   1.00
C445   C     0.29083   0.83372   0.24964   0.00000  Uiso   1.00
C446   C     0.04248   0.83357   0.25089   0.00000  Uiso   1.00
H447   H     0.09883   0.85394   0.03089   0.00000  Uiso   1.00
H448   H     0.19168   0.76514   0.47122   0.00000  Uiso   1.00
H449   H     0.13063   0.89509   0.47035   0.00000  Uiso   1.00
H450   H     0.22639   0.80758   0.02979   0.00000  Uiso   1.00
H451   H     0.10184   0.85669   0.11274   0.00000  Uiso   1.00
H452   H     0.19503   0.76728   0.39001   0.00000  Uiso   1.00
H453   H     0.13105   0.89537   0.38890   0.00000  Uiso   1.00
H454   H     0.22826   0.80853   0.11157   0.00000  Uiso   1.00
H455   H     0.03704   0.76113   0.24274   0.00000  Uiso   1.00
H456   H     0.29600   0.90611   0.26026   0.00000  Uiso   1.00
H457   H     0.29587   0.76172   0.23798   0.00000  Uiso   1.00
H458   H     0.03768   0.90611   0.26042   0.00000  Uiso   1.00
N459   N     0.16667   0.95240   0.25000   0.00000  Uiso   1.00
N460   N     0.16667   0.71427   0.25000   0.00000  Uiso   1.00
O461   O     0.10559   0.87154   0.24999   0.00000  Uiso   1.00
O462   O     0.22774   0.79513   0.25000   0.00000  Uiso   1.00
O463   O     0.22774   0.87154   0.25000   0.00000  Uiso   1.00
O464   O     0.10559   0.79513   0.24999   0.00000  Uiso   1.00
O465   O     0.16666   0.87155   0.18453   0.00000  Uiso   1.00
O466   O     0.16667   0.79511   0.31547   0.00000  Uiso   1.00
O467   O     0.16667   0.87155   0.31547   0.00000  Uiso   1.00
O468   O     0.16666   0.79511   0.18453   0.00000  Uiso   1.00
Zn469  Zn    0.16667   0.88437   0.25000   0.00000  Uiso   1.00
Zn470  Zn    0.16667   0.78229   0.25000   0.00000  Uiso   1.00
O471   O     0.21509   0.71531   0.30992   0.00000  Uiso   1.00
C472   C     0.25739   0.70449   0.30383   0.00000  Uiso   1.00
H473   H     0.27648   0.73371   0.31478   0.00000  Uiso   1.00
H474   H     0.26506   0.69725   0.26833   0.00000  Uiso   1.00
H475   H     0.26668   0.67554   0.32526   0.00000  Uiso   1.00
O476   O     0.12793   0.95253   0.18207   0.00000  Uiso   1.00
C477   C     0.15116   0.96009   0.14298   0.00000  Uiso   1.00
H478   H     0.13850   0.93834   0.11596   0.00000  Uiso   1.00
H479   H     0.18451   0.95112   0.14807   0.00000  Uiso   1.00
H480   H     0.14847   0.99544   0.13100   0.00000  Uiso   1.00
O481   O     0.12085   0.71587   0.18776   0.00000  Uiso   1.00
C482   C     0.07889   0.70188   0.18623   0.00000  Uiso   1.00
H483   H     0.05970   0.73068   0.17439   0.00000  Uiso   1.00
H484   H     0.06704   0.69114   0.21946   0.00000  Uiso   1.00
H485   H     0.07426   0.67463   0.16133   0.00000  Uiso   1.00
O486   O     0.20948   0.95179   0.31499   0.00000  Uiso   1.00
C487   C     0.19275   0.96134   0.35736   0.00000  Uiso   1.00
H488   H     0.20320   0.93477   0.38110   0.00000  Uiso   1.00
H489   H     0.15812   0.96151   0.35677   0.00000  Uiso   1.00
H490   H     0.20459   0.99380   0.37077   0.00000  Uiso   1.00
C491   C     0.42000   0.83337   0.25040   0.00000  Uiso   1.00
C492   C     0.57999   0.83342   0.24979   0.00000  Uiso   1.00
C493   C     0.49982   0.83335   0.16421   0.00000  Uiso   1.00
C494   C     0.49957   0.83317   0.33609   0.00000  Uiso   1.00
C495   C     0.52372   0.69091   0.28042   0.00000  Uiso   1.00
C496   C     0.47954   0.97607   0.21697   0.00000  Uiso   1.00
C497   C     0.47683   0.69109   0.21902   0.00000  Uiso   1.00
C498   C     0.52141   0.97585   0.28239   0.00000  Uiso   1.00
C499   C     0.35445   0.79295   0.24568   0.00000  Uiso   1.00
C500   C     0.64544   0.87442   0.25571   0.00000  Uiso   1.00
C501   C     0.64531   0.79317   0.24390   0.00000  Uiso   1.00
C502   C     0.35474   0.87440   0.25598   0.00000  Uiso   1.00
C503   C     0.46067   0.84453   0.04822   0.00000  Uiso   1.00
C504   C     0.51234   0.79402   0.45346   0.00000  Uiso   1.00
C505   C     0.47755   0.86683   0.45297   0.00000  Uiso   1.00
C506   C     0.53221   0.81772   0.04761   0.00000  Uiso   1.00
C507   C     0.46225   0.84603   0.09440   0.00000  Uiso   1.00
C508   C     0.51401   0.79512   0.40737   0.00000  Uiso   1.00
C509   C     0.47861   0.86752   0.40680   0.00000  Uiso   1.00
C510   C     0.53350   0.81861   0.09378   0.00000  Uiso   1.00
C511   C     0.49867   0.83314   0.11673   0.00000  Uiso   1.00
C512   C     0.49773   0.83224   0.38410   0.00000  Uiso   1.00
C513   C     0.49574   0.83056   0.02475   0.00000  Uiso   1.00
C514   C     0.49477   0.83024   0.47637   0.00000  Uiso   1.00
C515   C     0.62416   0.83372   0.24964   0.00000  Uiso   1.00
C516   C     0.37582   0.83357   0.25089   0.00000  Uiso   1.00
H517   H     0.43217   0.85394   0.03089   0.00000  Uiso   1.00
H518   H     0.52501   0.76514   0.47122   0.00000  Uiso   1.00
H519   H     0.46396   0.89509   0.47035   0.00000  Uiso   1.00
H520   H     0.55973   0.80758   0.02979   0.00000  Uiso   1.00
H521   H     0.43518   0.85669   0.11274   0.00000  Uiso   1.00
H522   H     0.52836   0.76728   0.39001   0.00000  Uiso   1.00
H523   H     0.46439   0.89537   0.38890   0.00000  Uiso   1.00
H524   H     0.56159   0.80853   0.11157   0.00000  Uiso   1.00
H525   H     0.37037   0.76113   0.24274   0.00000  Uiso   1.00
H526   H     0.62933   0.90611   0.26026   0.00000  Uiso   1.00
H527   H     0.62920   0.76172   0.23798   0.00000  Uiso   1.00
H528   H     0.37101   0.90611   0.26042   0.00000  Uiso   1.00
N529   N     0.50000   0.95240   0.25000   0.00000  Uiso   1.00
N530   N     0.50000   0.71427   0.25000   0.00000  Uiso   1.00
O531   O     0.43892   0.87154   0.24999   0.00000  Uiso   1.00
O532   O     0.56108   0.79513   0.25000   0.00000  Uiso   1.00
O533   O     0.56108   0.87154   0.25000   0.00000  Uiso   1.00
O534   O     0.43892   0.79513   0.24999   0.00000  Uiso   1.00
O535   O     0.50000   0.87155   0.18453   0.00000  Uiso   1.00
O536   O     0.50000   0.79511   0.31547   0.00000  Uiso   1.00
O537   O     0.50000   0.87155   0.31547   0.00000  Uiso   1.00
O538   O     0.50000   0.79511   0.18453   0.00000  Uiso   1.00
Zn539  Zn    0.50000   0.88437   0.25000   0.00000  Uiso   1.00
Zn540  Zn    0.50000   0.78229   0.25000   0.00000  Uiso   1.00
O541   O     0.54843   0.71531   0.30992   0.00000  Uiso   1.00
C542   C     0.59072   0.70449   0.30383   0.00000  Uiso   1.00
H543   H     0.60981   0.73371   0.31478   0.00000  Uiso   1.00
H544   H     0.59840   0.69725   0.26833   0.00000  Uiso   1.00
H545   H     0.60002   0.67554   0.32526   0.00000  Uiso   1.00
O546   O     0.46126   0.95253   0.18207   0.00000  Uiso   1.00
C547   C     0.48449   0.96009   0.14298   0.00000  Uiso   1.00
H548   H     0.47183   0.93834   0.11596   0.00000  Uiso   1.00
H549   H     0.51784   0.95112   0.14807   0.00000  Uiso   1.00
H550   H     0.48180   0.99544   0.13100   0.00000  Uiso   1.00
O551   O     0.45418   0.71587   0.18776   0.00000  Uiso   1.00
C552   C     0.41222   0.70188   0.18623   0.00000  Uiso   1.00
H553   H     0.39303   0.73068   0.17439   0.00000  Uiso   1.00
H554   H     0.40037   0.69114   0.21946   0.00000  Uiso   1.00
H555   H     0.40760   0.67463   0.16133   0.00000  Uiso   1.00
O556   O     0.54281   0.95179   0.31499   0.00000  Uiso   1.00
C557   C     0.52608   0.96134   0.35736   0.00000  Uiso   1.00
H558   H     0.53653   0.93477   0.38110   0.00000  Uiso   1.00
H559   H     0.49145   0.96151   0.35677   0.00000  Uiso   1.00
H560   H     0.53792   0.99380   0.37077   0.00000  Uiso   1.00
C561   C     0.75333   0.83337   0.25040   0.00000  Uiso   1.00
C562   C     0.91333   0.83342   0.24979   0.00000  Uiso   1.00
C563   C     0.83316   0.83335   0.16421   0.00000  Uiso   1.00
C564   C     0.83290   0.83317   0.33609   0.00000  Uiso   1.00
C565   C     0.85705   0.69091   0.28042   0.00000  Uiso   1.00
C566   C     0.81287   0.97607   0.21697   0.00000  Uiso   1.00
C567   C     0.81017   0.69109   0.21902   0.00000  Uiso   1.00
C568   C     0.85475   0.97585   0.28239   0.00000  Uiso   1.00
C569   C     0.68778   0.79295   0.24568   0.00000  Uiso   1.00
C570   C     0.97878   0.87442   0.25571   0.00000  Uiso   1.00
C571   C     0.97864   0.79317   0.24390   0.00000  Uiso   1.00
C572   C     0.68807   0.87440   0.25598   0.00000  Uiso   1.00
C573   C     0.79400   0.84453   0.04822   0.00000  Uiso   1.00
C574   C     0.84568   0.79402   0.45346   0.00000  Uiso   1.00
C575   C     0.81089   0.86683   0.45297   0.00000  Uiso   1.00
C576   C     0.86555   0.81772   0.04761   0.00000  Uiso   1.00
C577   C     0.79559   0.84603   0.09440   0.00000  Uiso   1.00
C578   C     0.84734   0.79512   0.40737   0.00000  Uiso   1.00
C579   C     0.81194   0.86752   0.40680   0.00000  Uiso   1.00
C580   C     0.86684   0.81861   0.09378   0.00000  Uiso   1.00
C581   C     0.83200   0.83314   0.11673   0.00000  Uiso   1.00
C582   C     0.83106   0.83224   0.38410   0.00000  Uiso   1.00
C583   C     0.82907   0.83056   0.02475   0.00000  Uiso   1.00
C584   C     0.82811   0.83024   0.47637   0.00000  Uiso   1.00
C585   C     0.95750   0.83372   0.24964   0.00000  Uiso   1.00
C586   C     0.70915   0.83357   0.25089   0.00000  Uiso   1.00
H587   H     0.76550   0.85394   0.03089   0.00000  Uiso   1.00
H588   H     0.85834   0.76514   0.47122   0.00000  Uiso   1.00
H589   H     0.79730   0.89509   0.47035   0.00000  Uiso   1.00
H590   H     0.89306   0.80758   0.02979   0.00000  Uiso   1.00
H591   H     0.76851   0.85669   0.11274   0.00000  Uiso   1.00
H592   H     0.86170   0.76728   0.39001   0.00000  Uiso   1.00
H593   H     0.79772   0.89537   0.38890   0.00000  Uiso   1.00
H594   H     0.89492   0.80853   0.11157   0.00000  Uiso   1.00
H595   H     0.70370   0.76113   0.24274   0.00000  Uiso   1.00
H596   H     0.96266   0.90611   0.26026   0.00000  Uiso   1.00
H597   H     0.96253   0.76172   0.23798   0.00000  Uiso   1.00
H598   H     0.70434   0.90611   0.26042   0.00000  Uiso   1.00
N599   N     0.83333   0.95240   0.25000   0.00000  Uiso   1.00
N600   N     0.83333   0.71427   0.25000   0.00000  Uiso   1.00
O601   O     0.77226   0.87154   0.24999   0.00000  Uiso   1.00
O602   O     0.89441   0.79513   0.25000   0.00000  Uiso   1.00
O603   O     0.89441   0.87154   0.25000   0.00000  Uiso   1.00
O604   O     0.77226   0.79513   0.24999   0.00000  Uiso   1.00
O605   O     0.83333   0.87155   0.18453   0.00000  Uiso   1.00
O606   O     0.83334   0.79511   0.31547   0.00000  Uiso   1.00
O607   O     0.83334   0.87155   0.31547   0.00000  Uiso   1.00
O608   O     0.83333   0.79511   0.18453   0.00000  Uiso   1.00
Zn609  Zn    0.83333   0.88437   0.25000   0.00000  Uiso   1.00
Zn610  Zn    0.83333   0.78229   0.25000   0.00000  Uiso   1.00
O611   O     0.88176   0.71531   0.30992   0.00000  Uiso   1.00
C612   C     0.92405   0.70449   0.30383   0.00000  Uiso   1.00
H613   H     0.94314   0.73371   0.31478   0.00000  Uiso   1.00
H614   H     0.93173   0.69725   0.26833   0.00000  Uiso   1.00
H615   H     0.93335   0.67554   0.32526   0.00000  Uiso   1.00
O616   O     0.79459   0.95253   0.18207   0.00000  Uiso   1.00
C617   C     0.81783   0.96009   0.14298   0.00000  Uiso   1.00
H618   H     0.80516   0.93834   0.11596   0.00000  Uiso   1.00
H619   H     0.85117   0.95112   0.14807   0.00000  Uiso   1.00
H620   H     0.81514   0.99544   0.13100   0.00000  Uiso   1.00
O621   O     0.78752   0.71587   0.18776   0.00000  Uiso   1.00
C622   C     0.74555   0.70188   0.18623   0.00000  Uiso   1.00
H623   H     0.72636   0.73068   0.17439   0.00000  Uiso   1.00
H624   H     0.73371   0.69114   0.21946   0.00000  Uiso   1.00
H625   H     0.74093   0.67463   0.16133   0.00000  Uiso   1.00
O626   O     0.87615   0.95179   0.31499   0.00000  Uiso   1.00
C627   C     0.85941   0.96134   0.35736   0.00000  Uiso   1.00
H628   H     0.86986   0.93477   0.38110   0.00000  Uiso   1.00
H629   H     0.82479   0.96151   0.35677   0.00000  Uiso   1.00
H630   H     0.87125   0.99380   0.37077   0.00000  Uiso   1.00
C631   C     0.08667   0.16670   0.75040   0.00000  Uiso   1.00
C632   C     0.24666   0.16675   0.74979   0.00000  Uiso   1.00
C633   C     0.16649   0.16668   0.66421   0.00000  Uiso   1.00
C634   C     0.16623   0.16650   0.83609   0.00000  Uiso   1.00
C635   C     0.19039   0.02425   0.78042   0.00000  Uiso   1.00
C636   C     0.14620   0.30940   0.71697   0.00000  Uiso   1.00
C637   C     0.14350   0.02442   0.71902   0.00000  Uiso   1.00
C638   C     0.18808   0.30919   0.78239   0.00000  Uiso   1.00
C639   C     0.02111   0.12628   0.74568   0.00000  Uiso   1.00
C640   C     0.31211   0.20776   0.75571   0.00000  Uiso   1.00
C641   C     0.31197   0.12650   0.74390   0.00000  Uiso   1.00
C642   C     0.02140   0.20773   0.75598   0.00000  Uiso   1.00
C643   C     0.12733   0.17787   0.54822   0.00000  Uiso   1.00
C644   C     0.17901   0.12735   0.95346   0.00000  Uiso   1.00
C645   C     0.14422   0.20016   0.95297   0.00000  Uiso   1.00
C646   C     0.19888   0.15106   0.54761   0.00000  Uiso   1.00
C647   C     0.12892   0.17936   0.59440   0.00000  Uiso   1.00
C648   C     0.18067   0.12845   0.90737   0.00000  Uiso   1.00
C649   C     0.14528   0.20086   0.90680   0.00000  Uiso   1.00
C650   C     0.20017   0.15194   0.59378   0.00000  Uiso   1.00
C651   C     0.16534   0.16647   0.61673   0.00000  Uiso   1.00
C652   C     0.16440   0.16557   0.88410   0.00000  Uiso   1.00
C653   C     0.16240   0.16389   0.52475   0.00000  Uiso   1.00
C654   C     0.16144   0.16357   0.97637   0.00000  Uiso   1.00
C655   C     0.29083   0.16705   0.74964   0.00000  Uiso   1.00
C656   C     0.04248   0.16690   0.75089   0.00000  Uiso   1.00
H657   H     0.09883   0.18727   0.53089   0.00000  Uiso   1.00
H658   H     0.19168   0.09848   0.97122   0.00000  Uiso   1.00
H659   H     0.13063   0.22842   0.97035   0.00000  Uiso   1.00
H660   H     0.22639   0.14091   0.52979   0.00000  Uiso   1.00
H661   H     0.10184   0.19002   0.61274   0.00000  Uiso   1.00
H662   H     0.19503   0.10061   0.89001   0.00000  Uiso   1.00
H663   H     0.13105   0.22871   0.88890   0.00000  Uiso   1.00
H664   H     0.22826   0.14187   0.61157   0.00000  Uiso   1.00
H665   H     0.03704   0.09446   0.74274   0.00000  Uiso   1.00
H666   H     0.29600   0.23945   0.76026   0.00000  Uiso   1.00
H667   H     0.29587   0.09505   0.73798   0.00000  Uiso   1.00
H668   H     0.03768   0.23944   0.76042   0.00000  Uiso   1.00
N669   N     0.16667   0.28573   0.75000   0.00000  Uiso   1.00
N670   N     0.16667   0.04760   0.75000   0.00000  Uiso   1.00
O671   O     0.10559   0.20487   0.74999   0.00000  Uiso   1.00
O672   O     0.22774   0.12846   0.75000   0.00000  Uiso   1.00
O673   O     0.22774   0.20487   0.75000   0.00000  Uiso   1.00
O674   O     0.10559   0.12846   0.74999   0.00000  Uiso   1.00
O675   O     0.16666   0.20489   0.68453   0.00000  Uiso   1.00
O676   O     0.16667   0.12845   0.81547   0.00000  Uiso   1.00
O677   O     0.16667   0.20489   0.81547   0.00000  Uiso   1.00
O678   O     0.16666   0.12845   0.68453   0.00000  Uiso   1.00
Zn679  Zn    0.16667   0.21771   0.75000   0.00000  Uiso   1.00
Zn680  Zn    0.16667   0.11563   0.75000   0.00000  Uiso   1.00
O681   O     0.21509   0.04864   0.80992   0.00000  Uiso   1.00
C682   C     0.25739   0.03783   0.80383   0.00000  Uiso   1.00
H683   H     0.27648   0.06705   0.81478   0.00000  Uiso   1.00
H684   H     0.26506   0.03059   0.76833   0.00000  Uiso   1.00
H685   H     0.26668   0.00887   0.82526   0.00000  Uiso   1.00
O686   O     0.12793   0.28587   0.68207   0.00000  Uiso   1.00
C687   C     0.15116   0.29342   0.64298   0.00000  Uiso   1.00
H688   H     0.13850   0.27168   0.61596   0.00000  Uiso   1.00
H689   H     0.18451   0.28445   0.64807   0.00000  Uiso   1.00
H690   H     0.14847   0.32877   0.63100   0.00000  Uiso   1.00
O691   O     0.12085   0.04921   0.68776   0.00000  Uiso   1.00
C692   C     0.07889   0.03521   0.68623   0.00000  Uiso   1.00
H693   H     0.05970   0.06401   0.67439   0.00000  Uiso   1.00
H694   H     0.06704   0.02447   0.71946   0.00000  Uiso   1.00
H695   H     0.07426   0.00796   0.66133   0.00000  Uiso   1.00
O696   O     0.20948   0.28513   0.81499   0.00000  Uiso   1.00
C697   C     0.19275   0.29467   0.85736   0.00000  Uiso   1.00
H698   H     0.20320   0.26811   0.88110   0.00000  Uiso   1.00
H699   H     0.15812   0.29484   0.85677   0.00000  Uiso   1.00
H700   H     0.20459   0.32713   0.87077   0.00000  Uiso   1.00
C701   C     0.42000   0.16670   0.75040   0.00000  Uiso   1.00
C702   C     0.57999   0.16675   0.74979   0.00000  Uiso   1.00
C703   C     0.49982   0.16668   0.66421   0.00000  Uiso   1.00
C704   C     0.49957   0.16650   0.83609   0.00000  Uiso   1.00
C705   C     0.52372   0.02425   0.78042   0.00000  Uiso   1.00
C706   C     0.47954   0.30940   0.71697   0.00000  Uiso   1.00
C707   C     0.47683   0.02442   0.71902   0.00000  Uiso   1.00
C708   C     0.52141   0.30919   0.78239   0.00000  Uiso   1.00
C709   C     0.35445   0.12628   0.74568   0.00000  Uiso   1.00
C710   C     0.64544   0.20776   0.75571   0.00000  Uiso   1.00
C711   C     0.64531   0.12650   0.74390   0.00000  Uiso   1.00
C712   C     0.35474   0.20773   0.75598   0.00000  Uiso   1.00
C713   C     0.46067   0.17787   0.54822   0.00000  Uiso   1.00
C714   C     0.51234   0.12735   0.95346   0.00000  Uiso   1.00
C715   C     0.47755   0.20016   0.95297   0.00000  Uiso   1.00
C716   C     0.53221   0.15106   0.54761   0.00000  Uiso   1.00
C717   C     0.46225   0.17936   0.59440   0.00000  Uiso   1.00
C718   C     0.51401   0.12845   0.90737   0.00000  Uiso   1.00
C719   C     0.47861   0.20086   0.90680   0.00000  Uiso   1.00
C720   C     0.53350   0.15194   0.59378   0.00000  Uiso   1.00
C721   C     0.49867   0.16647   0.61673   0.00000  Uiso   1.00
C722   C     0.49773   0.16557   0.88410   0.00000  Uiso   1.00
C723   C     0.49574   0.16389   0.52475   0.00000  Uiso   1.00
C724   C     0.49477   0.16357   0.97637   0.00000  Uiso   1.00
C725   C     0.62416   0.16705   0.74964   0.00000  Uiso   1.00
C726   C     0.37582   0.16690   0.75089   0.00000  Uiso   1.00
H727   H     0.43217   0.18727   0.53089   0.00000  Uiso   1.00
H728   H     0.52501   0.09848   0.97122   0.00000  Uiso   1.00
H729   H     0.46396   0.22842   0.97035   0.00000  Uiso   1.00
H730   H     0.55973   0.14091   0.52979   0.00000  Uiso   1.00
H731   H     0.43518   0.19002   0.61274   0.00000  Uiso   1.00
H732   H     0.52836   0.10061   0.89001   0.00000  Uiso   1.00
H733   H     0.46439   0.22871   0.88890   0.00000  Uiso   1.00
H734   H     0.56159   0.14187   0.61157   0.00000  Uiso   1.00
H735   H     0.37037   0.09446   0.74274   0.00000  Uiso   1.00
H736   H     0.62933   0.23945   0.76026   0.00000  Uiso   1.00
H737   H     0.62920   0.09505   0.73798   0.00000  Uiso   1.00
H738   H     0.37101   0.23944   0.76042   0.00000  Uiso   1.00
N739   N     0.50000   0.28573   0.75000   0.00000  Uiso   1.00
N740   N     0.50000   0.04760   0.75000   0.00000  Uiso   1.00
O741   O     0.43892   0.20487   0.74999   0.00000  Uiso   1.00
O742   O     0.56108   0.12846   0.75000   0.00000  Uiso   1.00
O743   O     0.56108   0.20487   0.75000   0.00000  Uiso   1.00
O744   O     0.43892   0.12846   0.74999   0.00000  Uiso   1.00
O745   O     0.50000   0.20489   0.68453   0.00000  Uiso   1.00
O746   O     0.50000   0.12845   0.81547   0.00000  Uiso   1.00
O747   O     0.50000   0.20489   0.81547   0.00000  Uiso   1.00
O748   O     0.50000   0.12845   0.68453   0.00000  Uiso   1.00
Zn749  Zn    0.50000   0.21771   0.75000   0.00000  Uiso   1.00
Zn750  Zn    0.50000   0.11563   0.75000   0.00000  Uiso   1.00
O751   O     0.54843   0.04864   0.80992   0.00000  Uiso   1.00
C752   C     0.59072   0.03783   0.80383   0.00000  Uiso   1.00
H753   H     0.60981   0.06705   0.81478   0.00000  Uiso   1.00
H754   H     0.59840   0.03059   0.76833   0.00000  Uiso   1.00
H755   H     0.60002   0.00887   0.82526   0.00000  Uiso   1.00
O756   O     0.46126   0.28587   0.68207   0.00000  Uiso   1.00
C757   C     0.48449   0.29342   0.64298   0.00000  Uiso   1.00
H758   H     0.47183   0.27168   0.61596   0.00000  Uiso   1.00
H759   H     0.51784   0.28445   0.64807   0.00000  Uiso   1.00
H760   H     0.48180   0.32877   0.63100   0.00000  Uiso   1.00
O761   O     0.45418   0.04921   0.68776   0.00000  Uiso   1.00
C762   C     0.41222   0.03521   0.68623   0.00000  Uiso   1.00
H763   H     0.39303   0.06401   0.67439   0.00000  Uiso   1.00
H764   H     0.40037   0.02447   0.71946   0.00000  Uiso   1.00
H765   H     0.40760   0.00796   0.66133   0.00000  Uiso   1.00
O766   O     0.54281   0.28513   0.81499   0.00000  Uiso   1.00
C767   C     0.52608   0.29467   0.85736   0.00000  Uiso   1.00
H768   H     0.53653   0.26811   0.88110   0.00000  Uiso   1.00
H769   H     0.49145   0.29484   0.85677   0.00000  Uiso   1.00
H770   H     0.53792   0.32713   0.87077   0.00000  Uiso   1.00
C771   C     0.75333   0.16670   0.75040   0.00000  Uiso   1.00
C772   C     0.91333   0.16675   0.74979   0.00000  Uiso   1.00
C773   C     0.83316   0.16668   0.66421   0.00000  Uiso   1.00
C774   C     0.83290   0.16650   0.83609   0.00000  Uiso   1.00
C775   C     0.85705   0.02425   0.78042   0.00000  Uiso   1.00
C776   C     0.81287   0.30940   0.71697   0.00000  Uiso   1.00
C777   C     0.81017   0.02442   0.71902   0.00000  Uiso   1.00
C778   C     0.85475   0.30919   0.78239   0.00000  Uiso   1.00
C779   C     0.68778   0.12628   0.74568   0.00000  Uiso   1.00
C780   C     0.97878   0.20776   0.75571   0.00000  Uiso   1.00
C781   C     0.97864   0.12650   0.74390   0.00000  Uiso   1.00
C782   C     0.68807   0.20773   0.75598   0.00000  Uiso   1.00
C783   C     0.79400   0.17787   0.54822   0.00000  Uiso   1.00
C784   C     0.84568   0.12735   0.95346   0.00000  Uiso   1.00
C785   C     0.81089   0.20016   0.95297   0.00000  Uiso   1.00
C786   C     0.86555   0.15106   0.54761   0.00000  Uiso   1.00
C787   C     0.79559   0.17936   0.59440   0.00000  Uiso   1.00
C788   C     0.84734   0.12845   0.90737   0.00000  Uiso   1.00
C789   C     0.81194   0.20086   0.90680   0.00000  Uiso   1.00
C790   C     0.86684   0.15194   0.59378   0.00000  Uiso   1.00
C791   C     0.83200   0.16647   0.61673   0.00000  Uiso   1.00
C792   C     0.83106   0.16557   0.88410   0.00000  Uiso   1.00
C793   C     0.82907   0.16389   0.52475   0.00000  Uiso   1.00
C794   C     0.82811   0.16357   0.97637   0.00000  Uiso   1.00
C795   C     0.95750   0.16705   0.74964   0.00000  Uiso   1.00
C796   C     0.70915   0.16690   0.75089   0.00000  Uiso   1.00
H797   H     0.76550   0.18727   0.53089   0.00000  Uiso   1.00
H798   H     0.85834   0.09848   0.97122   0.00000  Uiso   1.00
H799   H     0.79730   0.22842   0.97035   0.00000  Uiso   1.00
H800   H     0.89306   0.14091   0.52979   0.00000  Uiso   1.00
H801   H     0.76851   0.19002   0.61274   0.00000  Uiso   1.00
H802   H     0.86170   0.10061   0.89001   0.00000  Uiso   1.00
H803   H     0.79772   0.22871   0.88890   0.00000  Uiso   1.00
H804   H     0.89492   0.14187   0.61157   0.00000  Uiso   1.00
H805   H     0.70370   0.09446   0.74274   0.00000  Uiso   1.00
H806   H     0.96266   0.23945   0.76026   0.00000  Uiso   1.00
H807   H     0.96253   0.09505   0.73798   0.00000  Uiso   1.00
H808   H     0.70434   0.23944   0.76042   0.00000  Uiso   1.00
N809   N     0.83333   0.28573   0.75000   0.00000  Uiso   1.00
N810   N     0.83333   0.04760   0.75000   0.00000  Uiso   1.00
O811   O     0.77226   0.20487   0.74999   0.00000  Uiso   1.00
O812   O     0.89441   0.12846   0.75000   0.00000  Uiso   1.00
O813   O     0.89441   0.20487   0.75000   0.00000  Uiso   1.00
O814   O     0.77226   0.12846   0.74999   0.00000  Uiso   1.00
O815   O     0.83333   0.20489   0.68453   0.00000  Uiso   1.00
O816   O     0.83334   0.12845   0.81547   0.00000  Uiso   1.00
O817   O     0.83334   0.20489   0.81547   0.00000  Uiso   1.00
O818   O     0.83333   0.12845   0.68453   0.00000  Uiso   1.00
Zn819  Zn    0.83333   0.21771   0.75000   0.00000  Uiso   1.00
Zn820  Zn    0.83333   0.11563   0.75000   0.00000  Uiso   1.00
O821   O     0.88176   0.04864   0.80992   0.00000  Uiso   1.00
C822   C     0.92405   0.03783   0.80383   0.00000  Uiso   1.00
H823   H     0.94314   0.06705   0.81478   0.00000  Uiso   1.00
H824   H     0.93173   0.03059   0.76833   0.00000  Uiso   1.00
H825   H     0.93335   0.00887   0.82526   0.00000  Uiso   1.00
O826   O     0.79459   0.28587   0.68207   0.00000  Uiso   1.00
C827   C     0.81783   0.29342   0.64298   0.00000  Uiso   1.00
H828   H     0.80516   0.27168   0.61596   0.00000  Uiso   1.00
H829   H     0.85117   0.28445   0.64807   0.00000  Uiso   1.00
H830   H     0.81514   0.32877   0.63100   0.00000  Uiso   1.00
O831   O     0.78752   0.04921   0.68776   0.00000  Uiso   1.00
C832   C     0.74555   0.03521   0.68623   0.00000  Uiso   1.00
H833   H     0.72636   0.06401   0.67439   0.00000  Uiso   1.00
H834   H     0.73371   0.02447   0.71946   0.00000  Uiso   1.00
H835   H     0.74093   0.00796   0.66133   0.00000  Uiso   1.00
O836   O     0.87615   0.28513   0.81499   0.00000  Uiso   1.00
C837   C     0.85941   0.29467   0.85736   0.00000  Uiso   1.00
H838   H     0.86986   0.26811   0.88110   0.00000  Uiso   1.00
H839   H     0.82479   0.29484   0.85677   0.00000  Uiso   1.00
H840   H     0.87125   0.32713   0.87077   0.00000  Uiso   1.00
C841   C     0.08667   0.50004   0.75040   0.00000  Uiso   1.00
C842   C     0.24666   0.50008   0.74979   0.00000  Uiso   1.00
C843   C     0.16649   0.50001   0.66421   0.00000  Uiso   1.00
C844   C     0.16623   0.49984   0.83609   0.00000  Uiso   1.00
C845   C     0.19039   0.35758   0.78042   0.00000  Uiso   1.00
C846   C     0.14620   0.64273   0.71697   0.00000  Uiso   1.00
C847   C     0.14350   0.35776   0.71902   0.00000  Uiso   1.00
C848   C     0.18808   0.64252   0.78239   0.00000  Uiso   1.00
C849   C     0.02111   0.45962   0.74568   0.00000  Uiso   1.00
C850   C     0.31211   0.54109   0.75571   0.00000  Uiso   1.00
C851   C     0.31197   0.45984   0.74390   0.00000  Uiso   1.00
C852   C     0.02140   0.54107   0.75598   0.00000  Uiso   1.00
C853   C     0.12733   0.51120   0.54822   0.00000  Uiso   1.00
C854   C     0.17901   0.46068   0.95346   0.00000  Uiso   1.00
C855   C     0.14422   0.53349   0.95297   0.00000  Uiso   1.00
C856   C     0.19888   0.48439   0.54761   0.00000  Uiso   1.00
C857   C     0.12892   0.51269   0.59440   0.00000  Uiso   1.00
C858   C     0.18067   0.46178   0.90737   0.00000  Uiso   1.00
C859   C     0.14528   0.53419   0.90680   0.00000  Uiso   1.00
C860   C     0.20017   0.48527   0.59378   0.00000  Uiso   1.00
C861   C     0.16534   0.49981   0.61673   0.00000  Uiso   1.00
C862   C     0.16440   0.49890   0.88410   0.00000  Uiso   1.00
C863   C     0.16240   0.49723   0.52475   0.00000  Uiso   1.00
C864   C     0.16144   0.49690   0.97637   0.00000  Uiso   1.00
C865   C     0.29083   0.50038   0.74964   0.00000  Uiso   1.00
C866   C     0.04248   0.50024   0.75089   0.00000  Uiso   1.00
H867   H     0.09883   0.52061   0.53089   0.00000  Uiso   1.00
H868   H     0.19168   0.43181   0.97122   0.00000  Uiso   1.00
H869   H     0.13063   0.56175   0.97035   0.00000  Uiso   1.00
H870   H     0.22639   0.47425   0.52979   0.00000  Uiso   1.00
H871   H     0.10184   0.52335   0.61274   0.00000  Uiso   1.00
H872   H     0.19503   0.43394   0.89001   0.00000  Uiso   1.00
H873   H     0.13105   0.56204   0.88890   0.00000  Uiso   1.00
H874   H     0.22826   0.47520   0.61157   0.00000  Uiso   1.00
H875   H     0.03704   0.42779   0.74274   0.00000  Uiso   1.00
H876   H     0.29600   0.57278   0.76026   0.00000  Uiso   1.00
H877   H     0.29587   0.42839   0.73798   0.00000  Uiso   1.00
H878   H     0.03768   0.57278   0.76042   0.00000  Uiso   1.00
N879   N     0.16667   0.61907   0.75000   0.00000  Uiso   1.00
N880   N     0.16667   0.38093   0.75000   0.00000  Uiso   1.00
O881   O     0.10559   0.53821   0.74999   0.00000  Uiso   1.00
O882   O     0.22774   0.46179   0.75000   0.00000  Uiso   1.00
O883   O     0.22774   0.53821   0.75000   0.00000  Uiso   1.00
O884   O     0.10559   0.46179   0.74999   0.00000  Uiso   1.00
O885   O     0.16666   0.53822   0.68453   0.00000  Uiso   1.00
O886   O     0.16667   0.46178   0.81547   0.00000  Uiso   1.00
O887   O     0.16667   0.53822   0.81547   0.00000  Uiso   1.00
O888   O     0.16666   0.46178   0.68453   0.00000  Uiso   1.00
Zn889  Zn    0.16667   0.55104   0.75000   0.00000  Uiso   1.00
Zn890  Zn    0.16667   0.44896   0.75000   0.00000  Uiso   1.00
O891   O     0.21509   0.38197   0.80992   0.00000  Uiso   1.00
C892   C     0.25739   0.37116   0.80383   0.00000  Uiso   1.00
H893   H     0.27648   0.40038   0.81478   0.00000  Uiso   1.00
H894   H     0.26506   0.36392   0.76833   0.00000  Uiso   1.00
H895   H     0.26668   0.34221   0.82526   0.00000  Uiso   1.00
O896   O     0.12793   0.61920   0.68207   0.00000  Uiso   1.00
C897   C     0.15116   0.62675   0.64298   0.00000  Uiso   1.00
H898   H     0.13850   0.60501   0.61596   0.00000  Uiso   1.00
H899   H     0.18451   0.61778   0.64807   0.00000  Uiso   1.00
H900   H     0.14847   0.66210   0.63100   0.00000  Uiso   1.00
O901   O     0.12085   0.38254   0.68776   0.00000  Uiso   1.00
C902   C     0.07889   0.36854   0.68623   0.00000  Uiso   1.00
H903   H     0.05970   0.39734   0.67439   0.00000  Uiso   1.00
H904   H     0.06704   0.35780   0.71946   0.00000  Uiso   1.00
H905   H     0.07426   0.34130   0.66133   0.00000  Uiso   1.00
O906   O     0.20948   0.61846   0.81499   0.00000  Uiso   1.00
C907   C     0.19275   0.62801   0.85736   0.00000  Uiso   1.00
H908   H     0.20320   0.60144   0.88110   0.00000  Uiso   1.00
H909   H     0.15812   0.62817   0.85677   0.00000  Uiso   1.00
H910   H     0.20459   0.66046   0.87077   0.00000  Uiso   1.00
C911   C     0.42000   0.50004   0.75040   0.00000  Uiso   1.00
C912   C     0.57999   0.50008   0.74979   0.00000  Uiso   1.00
C913   C     0.49982   0.50001   0.66421   0.00000  Uiso   1.00
C914   C     0.49957   0.49984   0.83609   0.00000  Uiso   1.00
C915   C     0.52372   0.35758   0.78042   0.00000  Uiso   1.00
C916   C     0.47954   0.64273   0.71697   0.00000  Uiso   1.00
C917   C     0.47683   0.35776   0.71902   0.00000  Uiso   1.00
C918   C     0.52141   0.64252   0.78239   0.00000  Uiso   1.00
C919   C     0.35445   0.45962   0.74568   0.00000  Uiso   1.00
C920   C     0.64544   0.54109   0.75571   0.00000  Uiso   1.00
C921   C     0.64531   0.45984   0.74390   0.00000  Uiso   1.00
C922   C     0.35474   0.54107   0.75598   0.00000  Uiso   1.00
C923   C     0.46067   0.51120   0.54822   0.00000  Uiso   1.00
C924   C     0.51234   0.46068   0.95346   0.00000  Uiso   1.00
C925   C     0.47755   0.53349   0.95297   0.00000  Uiso   1.00
C926   C     0.53221   0.48439   0.54761   0.00000  Uiso   1.00
C927   C     0.46225   0.51269   0.59440   0.00000  Uiso   1.00
C928   C     0.51401   0.46178   0.90737   0.00000  Uiso   1.00
C929   C     0.47861   0.53419   0.90680   0.00000  Uiso   1.00
C930   C     0.53350   0.48527   0.59378   0.00000  Uiso   1.00
C931   C     0.49867   0.49981   0.61673   0.00000  Uiso   1.00
C932   C     0.49773   0.49890   0.88410   0.00000  Uiso   1.00
C933   C     0.49574   0.49723   0.52475   0.00000  Uiso   1.00
C934   C     0.49477   0.49690   0.97637   0.00000  Uiso   1.00
C935   C     0.62416   0.50038   0.74964   0.00000  Uiso   1.00
C936   C     0.37582   0.50024   0.75089   0.00000  Uiso   1.00
H937   H     0.43217   0.52061   0.53089   0.00000  Uiso   1.00
H938   H     0.52501   0.43181   0.97122   0.00000  Uiso   1.00
H939   H     0.46396   0.56175   0.97035   0.00000  Uiso   1.00
H940   H     0.55973   0.47425   0.52979   0.00000  Uiso   1.00
H941   H     0.43518   0.52335   0.61274   0.00000  Uiso   1.00
H942   H     0.52836   0.43394   0.89001   0.00000  Uiso   1.00
H943   H     0.46439   0.56204   0.88890   0.00000  Uiso   1.00
H944   H     0.56159   0.47520   0.61157   0.00000  Uiso   1.00
H945   H     0.37037   0.42779   0.74274   0.00000  Uiso   1.00
H946   H     0.62933   0.57278   0.76026   0.00000  Uiso   1.00
H947   H     0.62920   0.42839   0.73798   0.00000  Uiso   1.00
H948   H     0.37101   0.57278   0.76042   0.00000  Uiso   1.00
N949   N     0.50000   0.61907   0.75000   0.00000  Uiso   1.00
N950   N     0.50000   0.38093   0.75000   0.00000  Uiso   1.00
O951   O     0.43892   0.53821   0.74999   0.00000  Uiso   1.00
O952   O     0.56108   0.46179   0.75000   0.00000  Uiso   1.00
O953   O     0.56108   0.53821   0.75000   0.00000  Uiso   1.00
O954   O     0.43892   0.46179   0.74999   0.00000  Uiso   1.00
O955   O     0.50000   0.53822   0.68453   0.00000  Uiso   1.00
O956   O     0.50000   0.46178   0.81547   0.00000  Uiso   1.00
O957   O     0.50000   0.53822   0.81547   0.00000  Uiso   1.00
O958   O     0.50000   0.46178   0.68453   0.00000  Uiso   1.00
Zn959  Zn    0.50000   0.55104   0.75000   0.00000  Uiso   1.00
Zn960  Zn    0.50000   0.44896   0.75000   0.00000  Uiso   1.00
O961   O     0.54843   0.38197   0.80992   0.00000  Uiso   1.00
C962   C     0.59072   0.37116   0.80383   0.00000  Uiso   1.00
H963   H     0.60981   0.40038   0.81478   0.00000  Uiso   1.00
H964   H     0.59840   0.36392   0.76833   0.00000  Uiso   1.00
H965   H     0.60002   0.34221   0.82526   0.00000  Uiso   1.00
O966   O     0.46126   0.61920   0.68207   0.00000  Uiso   1.00
C967   C     0.48449   0.62675   0.64298   0.00000  Uiso   1.00
H968   H     0.47183   0.60501   0.61596   0.00000  Uiso   1.00
H969   H     0.51784   0.61778   0.64807   0.00000  Uiso   1.00
H970   H     0.48180   0.66210   0.63100   0.00000  Uiso   1.00
O971   O     0.45418   0.38254   0.68776   0.00000  Uiso   1.00
C972   C     0.41222   0.36854   0.68623   0.00000  Uiso   1.00
H973   H     0.39303   0.39734   0.67439   0.00000  Uiso   1.00
H974   H     0.40037   0.35780   0.71946   0.00000  Uiso   1.00
H975   H     0.40760   0.34130   0.66133   0.00000  Uiso   1.00
O976   O     0.54281   0.61846   0.81499   0.00000  Uiso   1.00
C977   C     0.52608   0.62801   0.85736   0.00000  Uiso   1.00
H978   H     0.53653   0.60144   0.88110   0.00000  Uiso   1.00
H979   H     0.49145   0.62817   0.85677   0.00000  Uiso   1.00
H980   H     0.53792   0.66046   0.87077   0.00000  Uiso   1.00
C981   C     0.75333   0.50004   0.75040   0.00000  Uiso   1.00
C982   C     0.91333   0.50008   0.74979   0.00000  Uiso   1.00
C983   C     0.83316   0.50001   0.66421   0.00000  Uiso   1.00
C984   C     0.83290   0.49984   0.83609   0.00000  Uiso   1.00
C985   C     0.85705   0.35758   0.78042   0.00000  Uiso   1.00
C986   C     0.81287   0.64273   0.71697   0.00000  Uiso   1.00
C987   C     0.81017   0.35776   0.71902   0.00000  Uiso   1.00
C988   C     0.85475   0.64252   0.78239   0.00000  Uiso   1.00
C989   C     0.68778   0.45962   0.74568   0.00000  Uiso   1.00
C990   C     0.97878   0.54109   0.75571   0.00000  Uiso   1.00
C991   C     0.97864   0.45984   0.74390   0.00000  Uiso   1.00
C992   C     0.68807   0.54107   0.75598   0.00000  Uiso   1.00
C993   C     0.79400   0.51120   0.54822   0.00000  Uiso   1.00
C994   C     0.84568   0.46068   0.95346   0.00000  Uiso   1.00
C995   C     0.81089   0.53349   0.95297   0.00000  Uiso   1.00
C996   C     0.86555   0.48439   0.54761   0.00000  Uiso   1.00
C997   C     0.79559   0.51269   0.59440   0.00000  Uiso   1.00
C998   C     0.84734   0.46178   0.90737   0.00000  Uiso   1.00
C999   C     0.81194   0.53419   0.90680   0.00000  Uiso   1.00
C1000  C     0.86684   0.48527   0.59378   0.00000  Uiso   1.00
C1001  C     0.83200   0.49981   0.61673   0.00000  Uiso   1.00
C1002  C     0.83106   0.49890   0.88410   0.00000  Uiso   1.00
C1003  C     0.82907   0.49723   0.52475   0.00000  Uiso   1.00
C1004  C     0.82811   0.49690   0.97637   0.00000  Uiso   1.00
C1005  C     0.95750   0.50038   0.74964   0.00000  Uiso   1.00
C1006  C     0.70915   0.50024   0.75089   0.00000  Uiso   1.00
H1007  H     0.76550   0.52061   0.53089   0.00000  Uiso   1.00
H1008  H     0.85834   0.43181   0.97122   0.00000  Uiso   1.00
H1009  H     0.79730   0.56175   0.97035   0.00000  Uiso   1.00
H1010  H     0.89306   0.47425   0.52979   0.00000  Uiso   1.00
H1011  H     0.76851   0.52335   0.61274   0.00000  Uiso   1.00
H1012  H     0.86170   0.43394   0.89001   0.00000  Uiso   1.00
H1013  H     0.79772   0.56204   0.88890   0.00000  Uiso   1.00
H1014  H     0.89492   0.47520   0.61157   0.00000  Uiso   1.00
H1015  H     0.70370   0.42779   0.74274   0.00000  Uiso   1.00
H1016  H     0.96266   0.57278   0.76026   0.00000  Uiso   1.00
H1017  H     0.96253   0.42839   0.73798   0.00000  Uiso   1.00
H1018  H     0.70434   0.57278   0.76042   0.00000  Uiso   1.00
N1019  N     0.83333   0.61907   0.75000   0.00000  Uiso   1.00
N1020  N     0.83333   0.38093   0.75000   0.00000  Uiso   1.00
O1021  O     0.77226   0.53821   0.74999   0.00000  Uiso   1.00
O1022  O     0.89441   0.46179   0.75000   0.00000  Uiso   1.00
O1023  O     0.89441   0.53821   0.75000   0.00000  Uiso   1.00
O1024  O     0.77226   0.46179   0.74999   0.00000  Uiso   1.00
O1025  O     0.83333   0.53822   0.68453   0.00000  Uiso   1.00
O1026  O     0.83334   0.46178   0.81547   0.00000  Uiso   1.00
O1027  O     0.83334   0.53822   0.81547   0.00000  Uiso   1.00
O1028  O     0.83333   0.46178   0.68453   0.00000  Uiso   1.00
Zn1029 Zn    0.83333   0.55104   0.75000   0.00000  Uiso   1.00
Zn1030 Zn    0.83333   0.44896   0.75000   0.00000  Uiso   1.00
O1031  O     0.88176   0.38197   0.80992   0.00000  Uiso   1.00
C1032  C     0.92405   0.37116   0.80383   0.00000  Uiso   1.00
H1033  H     0.94314   0.40038   0.81478   0.00000  Uiso   1.00
H1034  H     0.93173   0.36392   0.76833   0.00000  Uiso   1.00
H1035  H     0.93335   0.34221   0.82526   0.00000  Uiso   1.00
O1036  O     0.79459   0.61920   0.68207   0.00000  Uiso   1.00
C1037  C     0.81783   0.62675   0.64298   0.00000  Uiso   1.00
H1038  H     0.80516   0.60501   0.61596   0.00000  Uiso   1.00
H1039  H     0.85117   0.61778   0.64807   0.00000  Uiso   1.00
H1040  H     0.81514   0.66210   0.63100   0.00000  Uiso   1.00
O1041  O     0.78752   0.38254   0.68776   0.00000  Uiso   1.00
C1042  C     0.74555   0.36854   0.68623   0.00000  Uiso   1.00
H1043  H     0.72636   0.39734   0.67439   0.00000  Uiso   1.00
H1044  H     0.73371   0.35780   0.71946   0.00000  Uiso   1.00
H1045  H     0.74093   0.34130   0.66133   0.00000  Uiso   1.00
O1046  O     0.87615   0.61846   0.81499   0.00000  Uiso   1.00
C1047  C     0.85941   0.62801   0.85736   0.00000  Uiso   1.00
H1048  H     0.86986   0.60144   0.88110   0.00000  Uiso   1.00
H1049  H     0.82479   0.62817   0.85677   0.00000  Uiso   1.00
H1050  H     0.87125   0.66046   0.87077   0.00000  Uiso   1.00
C1051  C     0.08667   0.83337   0.75040   0.00000  Uiso   1.00
C1052  C     0.24666   0.83342   0.74979   0.00000  Uiso   1.00
C1053  C     0.16649   0.83335   0.66421   0.00000  Uiso   1.00
C1054  C     0.16623   0.83317   0.83609   0.00000  Uiso   1.00
C1055  C     0.19039   0.69091   0.78042   0.00000  Uiso   1.00
C1056  C     0.14620   0.97607   0.71697   0.00000  Uiso   1.00
C1057  C     0.14350   0.69109   0.71902   0.00000  Uiso   1.00
C1058  C     0.18808   0.97585   0.78239   0.00000  Uiso   1.00
C1059  C     0.02111   0.79295   0.74568   0.00000  Uiso   1.00
C1060  C     0.31211   0.87442   0.75571   0.00000  Uiso   1.00
C1061  C     0.31197   0.79317   0.74390   0.00000  Uiso   1.00
C1062  C     0.02140   0.87440   0.75598   0.00000  Uiso   1.00
C1063  C     0.12733   0.84453   0.54822   0.00000  Uiso   1.00
C1064  C     0.17901   0.79402   0.95346   0.00000  Uiso   1.00
C1065  C     0.14422   0.86683   0.95297   0.00000  Uiso   1.00
C1066  C     0.19888   0.81772   0.54761   0.00000  Uiso   1.00
C1067  C     0.12892   0.84603   0.59440   0.00000  Uiso   1.00
C1068  C     0.18067   0.79512   0.90737   0.00000  Uiso   1.00
C1069  C     0.14528   0.86752   0.90680   0.00000  Uiso   1.00
C1070  C     0.20017   0.81861   0.59378   0.00000  Uiso   1.00
C1071  C     0.16534   0.83314   0.61673   0.00000  Uiso   1.00
C1072  C     0.16440   0.83224   0.88410   0.00000  Uiso   1.00
C1073  C     0.16240   0.83056   0.52475   0.00000  Uiso   1.00
C1074  C     0.16144   0.83024   0.97637   0.00000  Uiso   1.00
C1075  C     0.29083   0.83372   0.74964   0.00000  Uiso   1.00
C1076  C     0.04248   0.83357   0.75089   0.00000  Uiso   1.00
H1077  H     0.09883   0.85394   0.53089   0.00000  Uiso   1.00
H1078  H     0.19168   0.76514   0.97122   0.00000  Uiso   1.00
H1079  H     0.13063   0.89509   0.97035   0.00000  Uiso   1.00
H1080  H     0.22639   0.80758   0.52979   0.00000  Uiso   1.00
H1081  H     0.10184   0.85669   0.61274   0.00000  Uiso   1.00
H1082  H     0.19503   0.76728   0.89001   0.00000  Uiso   1.00
H1083  H     0.13105   0.89537   0.88890   0.00000  Uiso   1.00
H1084  H     0.22826   0.80853   0.61157   0.00000  Uiso   1.00
H1085  H     0.03704   0.76113   0.74274   0.00000  Uiso   1.00
H1086  H     0.29600   0.90611   0.76026   0.00000  Uiso   1.00
H1087  H     0.29587   0.76172   0.73798   0.00000  Uiso   1.00
H1088  H     0.03768   0.90611   0.76042   0.00000  Uiso   1.00
N1089  N     0.16667   0.95240   0.75000   0.00000  Uiso   1.00
N1090  N     0.16667   0.71427   0.75000   0.00000  Uiso   1.00
O1091  O     0.10559   0.87154   0.74999   0.00000  Uiso   1.00
O1092  O     0.22774   0.79513   0.75000   0.00000  Uiso   1.00
O1093  O     0.22774   0.87154   0.75000   0.00000  Uiso   1.00
O1094  O     0.10559   0.79513   0.74999   0.00000  Uiso   1.00
O1095  O     0.16666   0.87155   0.68453   0.00000  Uiso   1.00
O1096  O     0.16667   0.79511   0.81547   0.00000  Uiso   1.00
O1097  O     0.16667   0.87155   0.81547   0.00000  Uiso   1.00
O1098  O     0.16666   0.79511   0.68453   0.00000  Uiso   1.00
Zn1099 Zn    0.16667   0.88437   0.75000   0.00000  Uiso   1.00
Zn1100 Zn    0.16667   0.78229   0.75000   0.00000  Uiso   1.00
O1101  O     0.21509   0.71531   0.80992   0.00000  Uiso   1.00
C1102  C     0.25739   0.70449   0.80383   0.00000  Uiso   1.00
H1103  H     0.27648   0.73371   0.81478   0.00000  Uiso   1.00
H1104  H     0.26506   0.69725   0.76833   0.00000  Uiso   1.00
H1105  H     0.26668   0.67554   0.82526   0.00000  Uiso   1.00
O1106  O     0.12793   0.95253   0.68207   0.00000  Uiso   1.00
C1107  C     0.15116   0.96009   0.64298   0.00000  Uiso   1.00
H1108  H     0.13850   0.93834   0.61596   0.00000  Uiso   1.00
H1109  H     0.18451   0.95112   0.64807   0.00000  Uiso   1.00
H1110  H     0.14847   0.99544   0.63100   0.00000  Uiso   1.00
O1111  O     0.12085   0.71587   0.68776   0.00000  Uiso   1.00
C1112  C     0.07889   0.70188   0.68623   0.00000  Uiso   1.00
H1113  H     0.05970   0.73068   0.67439   0.00000  Uiso   1.00
H1114  H     0.06704   0.69114   0.71946   0.00000  Uiso   1.00
H1115  H     0.07426   0.67463   0.66133   0.00000  Uiso   1.00
O1116  O     0.20948   0.95179   0.81499   0.00000  Uiso   1.00
C1117  C     0.19275   0.96134   0.85736   0.00000  Uiso   1.00
H1118  H     0.20320   0.93477   0.88110   0.00000  Uiso   1.00
H1119  H     0.15812   0.96151   0.85677   0.00000  Uiso   1.00
H1120  H     0.20459   0.99380   0.87077   0.00000  Uiso   1.00
C1121  C     0.42000   0.83337   0.75040   0.00000  Uiso   1.00
C1122  C     0.57999   0.83342   0.74979   0.00000  Uiso   1.00
C1123  C     0.49982   0.83335   0.66421   0.00000  Uiso   1.00
C1124  C     0.49957   0.83317   0.83609   0.00000  Uiso   1.00
C1125  C     0.52372   0.69091   0.78042   0.00000  Uiso   1.00
C1126  C     0.47954   0.97607   0.71697   0.00000  Uiso   1.00
C1127  C     0.47683   0.69109   0.71902   0.00000  Uiso   1.00
C1128  C     0.52141   0.97585   0.78239   0.00000  Uiso   1.00
C1129  C     0.35445   0.79295   0.74568   0.00000  Uiso   1.00
C1130  C     0.64544   0.87442   0.75571   0.00000  Uiso   1.00
C1131  C     0.64531   0.79317   0.74390   0.00000  Uiso   1.00
C1132  C     0.35474   0.87440   0.75598   0.00000  Uiso   1.00
C1133  C     0.46067   0.84453   0.54822   0.00000  Uiso   1.00
C1134  C     0.51234   0.79402   0.95346   0.00000  Uiso   1.00
C1135  C     0.47755   0.86683   0.95297   0.00000  Uiso   1.00
C1136  C     0.53221   0.81772   0.54761   0.00000  Uiso   1.00
C1137  C     0.46225   0.84603   0.59440   0.00000  Uiso   1.00
C1138  C     0.51401   0.79512   0.90737   0.00000  Uiso   1.00
C1139  C     0.47861   0.86752   0.90680   0.00000  Uiso   1.00
C1140  C     0.53350   0.81861   0.59378   0.00000  Uiso   1.00
C1141  C     0.49867   0.83314   0.61673   0.00000  Uiso   1.00
C1142  C     0.49773   0.83224   0.88410   0.00000  Uiso   1.00
C1143  C     0.49574   0.83056   0.52475   0.00000  Uiso   1.00
C1144  C     0.49477   0.83024   0.97637   0.00000  Uiso   1.00
C1145  C     0.62416   0.83372   0.74964   0.00000  Uiso   1.00
C1146  C     0.37582   0.83357   0.75089   0.00000  Uiso   1.00
H1147  H     0.43217   0.85394   0.53089   0.00000  Uiso   1.00
H1148  H     0.52501   0.76514   0.97122   0.00000  Uiso   1.00
H1149  H     0.46396   0.89509   0.97035   0.00000  Uiso   1.00
H1150  H     0.55973   0.80758   0.52979   0.00000  Uiso   1.00
H1151  H     0.43518   0.85669   0.61274   0.00000  Uiso   1.00
H1152  H     0.52836   0.76728   0.89001   0.00000  Uiso   1.00
H1153  H     0.46439   0.89537   0.88890   0.00000  Uiso   1.00
H1154  H     0.56159   0.80853   0.61157   0.00000  Uiso   1.00
H1155  H     0.37037   0.76113   0.74274   0.00000  Uiso   1.00
H1156  H     0.62933   0.90611   0.76026   0.00000  Uiso   1.00
H1157  H     0.62920   0.76172   0.73798   0.00000  Uiso   1.00
H1158  H     0.37101   0.90611   0.76042   0.00000  Uiso   1.00
N1159  N     0.50000   0.95240   0.75000   0.00000  Uiso   1.00
N1160  N     0.50000   0.71427   0.75000   0.00000  Uiso   1.00
O1161  O     0.43892   0.87154   0.74999   0.00000  Uiso   1.00
O1162  O     0.56108   0.79513   0.75000   0.00000  Uiso   1.00
O1163  O     0.56108   0.87154   0.75000   0.00000  Uiso   1.00
O1164  O     0.43892   0.79513   0.74999   0.00000  Uiso   1.00
O1165  O     0.50000   0.87155   0.68453   0.00000  Uiso   1.00
O1166  O     0.50000   0.79511   0.81547   0.00000  Uiso   1.00
O1167  O     0.50000   0.87155   0.81547   0.00000  Uiso   1.00
O1168  O     0.50000   0.79511   0.68453   0.00000  Uiso   1.00
Zn1169 Zn    0.50000   0.88437   0.75000   0.00000  Uiso   1.00
Zn1170 Zn    0.50000   0.78229   0.75000   0.00000  Uiso   1.00
O1171  O     0.54843   0.71531   0.80992   0.00000  Uiso   1.00
C1172  C     0.59072   0.70449   0.80383   0.00000  Uiso   1.00
H1173  H     0.60981   0.73371   0.81478   0.00000  Uiso   1.00
H1174  H     0.59840   0.69725   0.76833   0.00000  Uiso   1.00
H1175  H     0.60002   0.67554   0.82526   0.00000  Uiso   1.00
O1176  O     0.46126   0.95253   0.68207   0.00000  Uiso   1.00
C1177  C     0.48449   0.96009   0.64298   0.00000  Uiso   1.00
H1178  H     0.47183   0.93834   0.61596   0.00000  Uiso   1.00
H1179  H     0.51784   0.95112   0.64807   0.00000  Uiso   1.00
H1180  H     0.48180   0.99544   0.63100   0.00000  Uiso   1.00
O1181  O     0.45418   0.71587   0.68776   0.00000  Uiso   1.00
C1182  C     0.41222   0.70188   0.68623   0.00000  Uiso   1.00
H1183  H     0.39303   0.73068   0.67439   0.00000  Uiso   1.00
H1184  H     0.40037   0.69114   0.71946   0.00000  Uiso   1.00
H1185  H     0.40760   0.67463   0.66133   0.00000  Uiso   1.00
O1186  O     0.54281   0.95179   0.81499   0.00000  Uiso   1.00
C1187  C     0.52608   0.96134   0.85736   0.00000  Uiso   1.00
H1188  H     0.53653   0.93477   0.88110   0.00000  Uiso   1.00
H1189  H     0.49145   0.96151   0.85677   0.00000  Uiso   1.00
H1190  H     0.53792   0.99380   0.87077   0.00000  Uiso   1.00
C1191  C     0.75333   0.83337   0.75040   0.00000  Uiso   1.00
C1192  C     0.91333   0.83342   0.74979   0.00000  Uiso   1.00
C1193  C     0.83316   0.83335   0.66421   0.00000  Uiso   1.00
C1194  C     0.83290   0.83317   0.83609   0.00000  Uiso   1.00
C1195  C     0.85705   0.69091   0.78042   0.00000  Uiso   1.00
C1196  C     0.81287   0.97607   0.71697   0.00000  Uiso   1.00
C1197  C     0.81017   0.69109   0.71902   0.00000  Uiso   1.00
C1198  C     0.85475   0.97585   0.78239   0.00000  Uiso   1.00
C1199  C     0.68778   0.79295   0.74568   0.00000  Uiso   1.00
C1200  C     0.97878   0.87442   0.75571   0.00000  Uiso   1.00
C1201  C     0.97864   0.79317   0.74390   0.00000  Uiso   1.00
C1202  C     0.68807   0.87440   0.75598   0.00000  Uiso   1.00
C1203  C     0.79400   0.84453   0.54822   0.00000  Uiso   1.00
C1204  C     0.84568   0.79402   0.95346   0.00000  Uiso   1.00
C1205  C     0.81089   0.86683   0.95297   0.00000  Uiso   1.00
C1206  C     0.86555   0.81772   0.54761   0.00000  Uiso   1.00
C1207  C     0.79559   0.84603   0.59440   0.00000  Uiso   1.00
C1208  C     0.84734   0.79512   0.90737   0.00000  Uiso   1.00
C1209  C     0.81194   0.86752   0.90680   0.00000  Uiso   1.00
C1210  C     0.86684   0.81861   0.59378   0.00000  Uiso   1.00
C1211  C     0.83200   0.83314   0.61673   0.00000  Uiso   1.00
C1212  C     0.83106   0.83224   0.88410   0.00000  Uiso   1.00
C1213  C     0.82907   0.83056   0.52475   0.00000  Uiso   1.00
C1214  C     0.82811   0.83024   0.97637   0.00000  Uiso   1.00
C1215  C     0.95750   0.83372   0.74964   0.00000  Uiso   1.00
C1216  C     0.70915   0.83357   0.75089   0.00000  Uiso   1.00
H1217  H     0.76550   0.85394   0.53089   0.00000  Uiso   1.00
H1218  H     0.85834   0.76514   0.97122   0.00000  Uiso   1.00
H1219  H     0.79730   0.89509   0.97035   0.00000  Uiso   1.00
H1220  H     0.89306   0.80758   0.52979   0.00000  Uiso   1.00
H1221  H     0.76851   0.85669   0.61274   0.00000  Uiso   1.00
H1222  H     0.86170   0.76728   0.89001   0.00000  Uiso   1.00
H1223  H     0.79772   0.89537   0.88890   0.00000  Uiso   1.00
H1224  H     0.89492   0.80853   0.61157   0.00000  Uiso   1.00
H1225  H     0.70370   0.76113   0.74274   0.00000  Uiso   1.00
H1226  H     0.96266   0.90611   0.76026   0.00000  Uiso   1.00
H1227  H     0.96253   0.76172   0.73798   0.00000  Uiso   1.00
H1228  H     0.70434   0.90611   0.76042   0.00000  Uiso   1.00
N1229  N     0.83333   0.95240   0.75000   0.00000  Uiso   1.00
N1230  N     0.83333   0.71427   0.75000   0.00000  Uiso   1.00
O1231  O     0.77226   0.87154   0.74999   0.00000  Uiso   1.00
O1232  O     0.89441   0.79513   0.75000   0.00000  Uiso   1.00
O1233  O     0.89441   0.87154   0.75000   0.00000  Uiso   1.00
O1234  O     0.77226   0.79513   0.74999   0.00000  Uiso   1.00
O1235  O     0.83333   0.87155   0.68453   0.00000  Uiso   1.00
O1236  O     0.83334   0.79511   0.81547   0.00000  Uiso   1.00
O1237  O     0.83334   0.87155   0.81547   0.00000  Uiso   1.00
O1238  O     0.83333   0.79511   0.68453   0.00000  Uiso   1.00
Zn1239 Zn    0.83333   0.88437   0.75000   0.00000  Uiso   1.00
Zn1240 Zn    0.83333   0.78229   0.75000   0.00000  Uiso   1.00
O1241  O     0.88176   0.71531   0.80992   0.00000  Uiso   1.00
C1242  C     0.92405   0.70449   0.80383   0.00000  Uiso   1.00
H1243  H     0.94314   0.73371   0.81478   0.00000  Uiso   1.00
H1244  H     0.93173   0.69725   0.76833   0.00000  Uiso   1.00
H1245  H     0.93335   0.67554   0.82526   0.00000  Uiso   1.00
O1246  O     0.79459   0.95253   0.68207   0.00000  Uiso   1.00
C1247  C     0.81783   0.96009   0.64298   0.00000  Uiso   1.00
H1248  H     0.80516   0.93834   0.61596   0.00000  Uiso   1.00
H1249  H     0.85117   0.95112   0.64807   0.00000  Uiso   1.00
H1250  H     0.81514   0.99544   0.63100   0.00000  Uiso   1.00
O1251  O     0.78752   0.71587   0.68776   0.00000  Uiso   1.00
C1252  C     0.74555   0.70188   0.68623   0.00000  Uiso   1.00
H1253  H     0.72636   0.73068   0.67439   0.00000  Uiso   1.00
H1254  H     0.73371   0.69114   0.71946   0.00000  Uiso   1.00
H1255  H     0.74093   0.67463   0.66133   0.00000  Uiso   1.00
O1256  O     0.87615   0.95179   0.81499   0.00000  Uiso   1.00
C1257  C     0.85941   0.96134   0.85736   0.00000  Uiso   1.00
H1258  H     0.86986   0.93477   0.88110   0.00000  Uiso   1.00
H1259  H     0.82479   0.96151   0.85677   0.00000  Uiso   1.00
H1260  H     0.87125   0.99380   0.87077   0.00000  Uiso   1.00
loop_
_geom_bond_atom_site_label_1
_geom_bond_atom_site_label_2
_geom_bond_distance
_geom_bond_site_symmetry_2
_ccdc_geom_bond_type
C1     O44     1.288   .     A
C1     C26     1.422   .     S
C1     O41     1.285   .     A
C2     O43     1.285   .     A
C2     O42     1.288   .     A
C2     C25     1.421   .     S
C3     C21     1.420   .     S
C3     O48     1.285   .     A
C3     O45     1.287   .     A
C4     C22     1.438   .     S
C4     O46     1.288   .     A
C4     O47     1.294   .     A
C5     N40     1.367   .     A
C5     O51     1.384   .     S
C5     C428    1.438   1_545 S
C6     O56     1.381   .     S
C6     N39     1.371   .     A
C6     C217    1.438   .     S
C7     N40     1.367   .     A
C7     O61     1.387   .     S
C7     C426    1.438   1_545 S
C8     O66     1.383   .     S
C8     N39     1.371   .     A
C8     C215    1.438   .     S
C9     C26     1.395   .     A
C9     H35     1.079   .     S
C9     C151    1.367   1_455 S
C10    H36     1.084   .     S
C10    C25     1.398   .     A
C10    C82     1.372   .     S
C11    C25     1.394   .     A
C11    H37     1.080   .     S
C11    C79     1.367   .     S
C12    H38     1.084   .     S
C12    C26     1.398   .     A
C12    C150    1.372   1_455 S
C13    C17     1.382   .     A
C13    C23     1.401   .     A
C13    H27     1.083   .     S
C14    C18     1.380   .     A
C14    C24     1.400   .     A
C14    H28     1.083   .     S
C15    C19     1.381   .     A
C15    C24     1.400   .     A
C15    H29     1.083   .     S
C16    C23     1.402   .     A
C16    C20     1.381   .     A
C16    H30     1.083   .     S
C17    H31     1.084   .     S
C17    C21     1.393   .     A
C18    H32     1.084   .     S
C18    C22     1.399   .     A
C19    C22     1.397   .     A
C19    H33     1.082   .     S
C20    H34     1.084   .     S
C20    C21     1.392   .     A
C23    C654    1.446   1_554 S
C24    C653    1.446   .     S
N39    Zn49    2.018   .     S
N40    Zn50    2.018   .     S
O41    Zn49    2.002   .     S
O42    Zn50    2.002   .     S
O43    Zn49    2.002   .     S
O44    Zn50    2.002   .     S
O45    Zn49    1.995   .     S
O46    Zn50    1.995   .     S
O47    Zn49    1.993   .     S
O48    Zn50    1.993   .     S
O51    C52     1.413   .     S
C52    H55     1.109   .     S
C52    H54     1.115   .     S
C52    H53     1.109   .     S
O56    C57     1.414   .     S
C57    H58     1.108   .     S
C57    H59     1.114   .     S
C57    H60     1.110   .     S
O61    C62     1.413   .     S
C62    H63     1.109   .     S
C62    H64     1.115   .     S
C62    H65     1.109   .     S
O66    C67     1.413   .     S
C67    H70     1.109   .     S
C67    H68     1.109   .     S
C67    H69     1.114   .     S
C71    O114    1.288   .     A
C71    C96     1.422   .     S
C71    O111    1.285   .     A
C72    O113    1.285   .     A
C72    O112    1.288   .     A
C72    C95     1.421   .     S
C73    C91     1.420   .     S
C73    O118    1.285   .     A
C73    O115    1.287   .     A
C74    C92     1.438   .     S
C74    O116    1.288   .     A
C74    O117    1.294   .     A
C75    N110    1.367   .     A
C75    O121    1.384   .     S
C75    C498    1.438   1_545 S
C76    O126    1.381   .     S
C76    N109    1.371   .     A
C76    C287    1.438   .     S
C77    N110    1.367   .     A
C77    O131    1.387   .     S
C77    C496    1.438   1_545 S
C78    O136    1.383   .     S
C78    N109    1.371   .     A
C78    C285    1.438   .     S
C79    C96     1.395   .     A
C79    H105    1.079   .     S
C80    H106    1.084   .     S
C80    C95     1.398   .     A
C80    C152    1.372   .     S
C81    C95     1.394   .     A
C81    H107    1.080   .     S
C81    C149    1.367   .     S
C82    H108    1.084   .     S
C82    C96     1.398   .     A
C83    C87     1.382   .     A
C83    C93     1.401   .     A
C83    H97     1.083   .     S
C84    C88     1.380   .     A
C84    C94     1.400   .     A
C84    H98     1.083   .     S
C85    C89     1.381   .     A
C85    C94     1.400   .     A
C85    H99     1.083   .     S
C86    C93     1.402   .     A
C86    C90     1.381   .     A
C86    H100    1.083   .     S
C87    H101    1.084   .     S
C87    C91     1.393   .     A
C88    H102    1.084   .     S
C88    C92     1.399   .     A
C89    C92     1.397   .     A
C89    H103    1.082   .     S
C90    H104    1.084   .     S
C90    C91     1.392   .     A
C93    C724    1.446   1_554 S
C94    C723    1.446   .     S
N109   Zn119   2.018   .     S
N110   Zn120   2.018   .     S
O111   Zn119   2.002   .     S
O112   Zn120   2.002   .     S
O113   Zn119   2.002   .     S
O114   Zn120   2.002   .     S
O115   Zn119   1.995   .     S
O116   Zn120   1.995   .     S
O117   Zn119   1.993   .     S
O118   Zn120   1.993   .     S
O121   C122    1.413   .     S
C122   H125    1.109   .     S
C122   H124    1.115   .     S
C122   H123    1.109   .     S
O126   C127    1.414   .     S
C127   H128    1.108   .     S
C127   H129    1.114   .     S
C127   H130    1.110   .     S
O131   C132    1.413   .     S
C132   H133    1.109   .     S
C132   H134    1.115   .     S
C132   H135    1.109   .     S
O136   C137    1.413   .     S
C137   H140    1.109   .     S
C137   H138    1.109   .     S
C137   H139    1.114   .     S
C141   O184    1.288   .     A
C141   C166    1.422   .     S
C141   O181    1.285   .     A
C142   O183    1.285   .     A
C142   O182    1.288   .     A
C142   C165    1.421   .     S
C143   C161    1.420   .     S
C143   O188    1.285   .     A
C143   O185    1.287   .     A
C144   C162    1.438   .     S
C144   O186    1.288   .     A
C144   O187    1.294   .     A
C145   N180    1.367   .     A
C145   O191    1.384   .     S
C145   C568    1.438   1_545 S
C146   O196    1.381   .     S
C146   N179    1.371   .     A
C146   C357    1.438   .     S
C147   N180    1.367   .     A
C147   O201    1.387   .     S
C147   C566    1.438   1_545 S
C148   O206    1.383   .     S
C148   N179    1.371   .     A
C148   C355    1.438   .     S
C149   C166    1.395   .     A
C149   H175    1.079   .     S
C150   H176    1.084   .     S
C150   C165    1.398   .     A
C150   C12     1.372   1_655 S
C151   C165    1.394   .     A
C151   H177    1.080   .     S
C151   C9      1.367   1_655 S
C152   H178    1.084   .     S
C152   C166    1.398   .     A
C153   C157    1.382   .     A
C153   C163    1.401   .     A
C153   H167    1.083   .     S
C154   C158    1.380   .     A
C154   C164    1.400   .     A
C154   H168    1.083   .     S
C155   C159    1.381   .     A
C155   C164    1.400   .     A
C155   H169    1.083   .     S
C156   C163    1.402   .     A
C156   C160    1.381   .     A
C156   H170    1.083   .     S
C157   H171    1.084   .     S
C157   C161    1.393   .     A
C158   H172    1.084   .     S
C158   C162    1.399   .     A
C159   C162    1.397   .     A
C159   H173    1.082   .     S
C160   H174    1.084   .     S
C160   C161    1.392   .     A
C163   C794    1.446   1_554 S
C164   C793    1.446   .     S
N179   Zn189   2.018   .     S
N180   Zn190   2.018   .     S
O181   Zn189   2.002   .     S
O182   Zn190   2.002   .     S
O183   Zn189   2.002   .     S
O184   Zn190   2.002   .     S
O185   Zn189   1.995   .     S
O186   Zn190   1.995   .     S
O187   Zn189   1.993   .     S
O188   Zn190   1.993   .     S
O191   C192    1.413   .     S
C192   H195    1.109   .     S
C192   H194    1.115   .     S
C192   H193    1.109   .     S
O196   C197    1.414   .     S
C197   H198    1.108   .     S
C197   H199    1.114   .     S
C197   H200    1.110   .     S
O201   C202    1.413   .     S
C202   H203    1.109   .     S
C202   H204    1.115   .     S
C202   H205    1.109   .     S
O206   C207    1.413   .     S
C207   H210    1.109   .     S
C207   H208    1.109   .     S
C207   H209    1.114   .     S
C211   O254    1.288   .     A
C211   C236    1.422   .     S
C211   O251    1.285   .     A
C212   O253    1.285   .     A
C212   O252    1.288   .     A
C212   C235    1.421   .     S
C213   C231    1.420   .     S
C213   O258    1.285   .     A
C213   O255    1.287   .     A
C214   C232    1.438   .     S
C214   O256    1.288   .     A
C214   O257    1.294   .     A
C215   N250    1.367   .     A
C215   O261    1.384   .     S
C216   O266    1.381   .     S
C216   N249    1.371   .     A
C216   C427    1.438   .     S
C217   N250    1.367   .     A
C217   O271    1.387   .     S
C218   O276    1.383   .     S
C218   N249    1.371   .     A
C218   C425    1.438   .     S
C219   C236    1.395   .     A
C219   H245    1.079   .     S
C219   C361    1.367   1_455 S
C220   H246    1.084   .     S
C220   C235    1.398   .     A
C220   C292    1.372   .     S
C221   C235    1.394   .     A
C221   H247    1.080   .     S
C221   C289    1.367   .     S
C222   H248    1.084   .     S
C222   C236    1.398   .     A
C222   C360    1.372   1_455 S
C223   C227    1.382   .     A
C223   C233    1.401   .     A
C223   H237    1.083   .     S
C224   C228    1.380   .     A
C224   C234    1.400   .     A
C224   H238    1.083   .     S
C225   C229    1.381   .     A
C225   C234    1.400   .     A
C225   H239    1.083   .     S
C226   C233    1.402   .     A
C226   C230    1.381   .     A
C226   H240    1.083   .     S
C227   H241    1.084   .     S
C227   C231    1.393   .     A
C228   H242    1.084   .     S
C228   C232    1.399   .     A
C229   C232    1.397   .     A
C229   H243    1.082   .     S
C230   H244    1.084   .     S
C230   C231    1.392   .     A
C233   C864    1.446   1_554 S
C234   C863    1.446   .     S
N249   Zn259   2.018   .     S
N250   Zn260   2.018   .     S
O251   Zn259   2.002   .     S
O252   Zn260   2.002   .     S
O253   Zn259   2.002   .     S
O254   Zn260   2.002   .     S
O255   Zn259   1.995   .     S
O256   Zn260   1.995   .     S
O257   Zn259   1.993   .     S
O258   Zn260   1.993   .     S
O261   C262    1.413   .     S
C262   H265    1.109   .     S
C262   H264    1.115   .     S
C262   H263    1.109   .     S
O266   C267    1.414   .     S
C267   H268    1.108   .     S
C267   H269    1.114   .     S
C267   H270    1.110   .     S
O271   C272    1.413   .     S
C272   H273    1.109   .     S
C272   H274    1.115   .     S
C272   H275    1.109   .     S
O276   C277    1.413   .     S
C277   H280    1.109   .     S
C277   H278    1.109   .     S
C277   H279    1.114   .     S
C281   O324    1.288   .     A
C281   C306    1.422   .     S
C281   O321    1.285   .     A
C282   O323    1.285   .     A
C282   O322    1.288   .     A
C282   C305    1.421   .     S
C283   C301    1.420   .     S
C283   O328    1.285   .     A
C283   O325    1.287   .     A
C284   C302    1.438   .     S
C284   O326    1.288   .     A
C284   O327    1.294   .     A
C285   N320    1.367   .     A
C285   O331    1.384   .     S
C286   O336    1.381   .     S
C286   N319    1.371   .     A
C286   C497    1.438   .     S
C287   N320    1.367   .     A
C287   O341    1.387   .     S
C288   O346    1.383   .     S
C288   N319    1.371   .     A
C288   C495    1.438   .     S
C289   C306    1.395   .     A
C289   H315    1.079   .     S
C290   H316    1.084   .     S
C290   C305    1.398   .     A
C290   C362    1.372   .     S
C291   C305    1.394   .     A
C291   H317    1.080   .     S
C291   C359    1.367   .     S
C292   H318    1.084   .     S
C292   C306    1.398   .     A
C293   C297    1.382   .     A
C293   C303    1.401   .     A
C293   H307    1.083   .     S
C294   C298    1.380   .     A
C294   C304    1.400   .     A
C294   H308    1.083   .     S
C295   C299    1.381   .     A
C295   C304    1.400   .     A
C295   H309    1.083   .     S
C296   C303    1.402   .     A
C296   C300    1.381   .     A
C296   H310    1.083   .     S
C297   H311    1.084   .     S
C297   C301    1.393   .     A
C298   H312    1.084   .     S
C298   C302    1.399   .     A
C299   C302    1.397   .     A
C299   H313    1.082   .     S
C300   H314    1.084   .     S
C300   C301    1.392   .     A
C303   C934    1.446   1_554 S
C304   C933    1.446   .     S
N319   Zn329   2.018   .     S
N320   Zn330   2.018   .     S
O321   Zn329   2.002   .     S
O322   Zn330   2.002   .     S
O323   Zn329   2.002   .     S
O324   Zn330   2.002   .     S
O325   Zn329   1.995   .     S
O326   Zn330   1.995   .     S
O327   Zn329   1.993   .     S
O328   Zn330   1.993   .     S
O331   C332    1.413   .     S
C332   H335    1.109   .     S
C332   H334    1.115   .     S
C332   H333    1.109   .     S
O336   C337    1.414   .     S
C337   H338    1.108   .     S
C337   H339    1.114   .     S
C337   H340    1.110   .     S
O341   C342    1.413   .     S
C342   H343    1.109   .     S
C342   H344    1.115   .     S
C342   H345    1.109   .     S
O346   C347    1.413   .     S
C347   H350    1.109   .     S
C347   H348    1.109   .     S
C347   H349    1.114   .     S
C351   O394    1.288   .     A
C351   C376    1.422   .     S
C351   O391    1.285   .     A
C352   O393    1.285   .     A
C352   O392    1.288   .     A
C352   C375    1.421   .     S
C353   C371    1.420   .     S
C353   O398    1.285   .     A
C353   O395    1.287   .     A
C354   C372    1.438   .     S
C354   O396    1.288   .     A
C354   O397    1.294   .     A
C355   N390    1.367   .     A
C355   O401    1.384   .     S
C356   O406    1.381   .     S
C356   N389    1.371   .     A
C356   C567    1.438   .     S
C357   N390    1.367   .     A
C357   O411    1.387   .     S
C358   O416    1.383   .     S
C358   N389    1.371   .     A
C358   C565    1.438   .     S
C359   C376    1.395   .     A
C359   H385    1.079   .     S
C360   H386    1.084   .     S
C360   C375    1.398   .     A
C360   C222    1.372   1_655 S
C361   C375    1.394   .     A
C361   H387    1.080   .     S
C361   C219    1.367   1_655 S
C362   H388    1.084   .     S
C362   C376    1.398   .     A
C363   C367    1.382   .     A
C363   C373    1.401   .     A
C363   H377    1.083   .     S
C364   C368    1.380   .     A
C364   C374    1.400   .     A
C364   H378    1.083   .     S
C365   C369    1.381   .     A
C365   C374    1.400   .     A
C365   H379    1.083   .     S
C366   C373    1.402   .     A
C366   C370    1.381   .     A
C366   H380    1.083   .     S
C367   H381    1.084   .     S
C367   C371    1.393   .     A
C368   H382    1.084   .     S
C368   C372    1.399   .     A
C369   C372    1.397   .     A
C369   H383    1.082   .     S
C370   H384    1.084   .     S
C370   C371    1.392   .     A
C373   C1004   1.446   1_554 S
C374   C1003   1.446   .     S
N389   Zn399   2.018   .     S
N390   Zn400   2.018   .     S
O391   Zn399   2.002   .     S
O392   Zn400   2.002   .     S
O393   Zn399   2.002   .     S
O394   Zn400   2.002   .     S
O395   Zn399   1.995   .     S
O396   Zn400   1.995   .     S
O397   Zn399   1.993   .     S
O398   Zn400   1.993   .     S
O401   C402    1.413   .     S
C402   H405    1.109   .     S
C402   H404    1.115   .     S
C402   H403    1.109   .     S
O406   C407    1.414   .     S
C407   H408    1.108   .     S
C407   H409    1.114   .     S
C407   H410    1.110   .     S
O411   C412    1.413   .     S
C412   H413    1.109   .     S
C412   H414    1.115   .     S
C412   H415    1.109   .     S
O416   C417    1.413   .     S
C417   H420    1.109   .     S
C417   H418    1.109   .     S
C417   H419    1.114   .     S
C421   O464    1.288   .     A
C421   C446    1.422   .     S
C421   O461    1.285   .     A
C422   O463    1.285   .     A
C422   O462    1.288   .     A
C422   C445    1.421   .     S
C423   C441    1.420   .     S
C423   O468    1.285   .     A
C423   O465    1.287   .     A
C424   C442    1.438   .     S
C424   O466    1.288   .     A
C424   O467    1.294   .     A
C425   N460    1.367   .     A
C425   O471    1.384   .     S
C426   O476    1.381   .     S
C426   N459    1.371   .     A
C426   C7      1.438   1_565 S
C427   N460    1.367   .     A
C427   O481    1.387   .     S
C428   O486    1.383   .     S
C428   N459    1.371   .     A
C428   C5      1.438   1_565 S
C429   C446    1.395   .     A
C429   H455    1.079   .     S
C429   C571    1.367   1_455 S
C430   H456    1.084   .     S
C430   C445    1.398   .     A
C430   C502    1.372   .     S
C431   C445    1.394   .     A
C431   H457    1.080   .     S
C431   C499    1.367   .     S
C432   H458    1.084   .     S
C432   C446    1.398   .     A
C432   C570    1.372   1_455 S
C433   C437    1.382   .     A
C433   C443    1.401   .     A
C433   H447    1.083   .     S
C434   C438    1.380   .     A
C434   C444    1.400   .     A
C434   H448    1.083   .     S
C435   C439    1.381   .     A
C435   C444    1.400   .     A
C435   H449    1.083   .     S
C436   C443    1.402   .     A
C436   C440    1.381   .     A
C436   H450    1.083   .     S
C437   H451    1.084   .     S
C437   C441    1.393   .     A
C438   H452    1.084   .     S
C438   C442    1.399   .     A
C439   C442    1.397   .     A
C439   H453    1.082   .     S
C440   H454    1.084   .     S
C440   C441    1.392   .     A
C443   C1074   1.446   1_554 S
C444   C1073   1.446   .     S
N459   Zn469   2.018   .     S
N460   Zn470   2.018   .     S
O461   Zn469   2.002   .     S
O462   Zn470   2.002   .     S
O463   Zn469   2.002   .     S
O464   Zn470   2.002   .     S
O465   Zn469   1.995   .     S
O466   Zn470   1.995   .     S
O467   Zn469   1.993   .     S
O468   Zn470   1.993   .     S
O471   C472    1.413   .     S
C472   H475    1.109   .     S
C472   H474    1.115   .     S
C472   H473    1.109   .     S
O476   C477    1.414   .     S
C477   H478    1.108   .     S
C477   H479    1.114   .     S
C477   H480    1.110   .     S
O481   C482    1.413   .     S
C482   H483    1.109   .     S
C482   H484    1.115   .     S
C482   H485    1.109   .     S
O486   C487    1.413   .     S
C487   H490    1.109   .     S
C487   H488    1.109   .     S
C487   H489    1.114   .     S
C491   O534    1.288   .     A
C491   C516    1.422   .     S
C491   O531    1.285   .     A
C492   O533    1.285   .     A
C492   O532    1.288   .     A
C492   C515    1.421   .     S
C493   C511    1.420   .     S
C493   O538    1.285   .     A
C493   O535    1.287   .     A
C494   C512    1.438   .     S
C494   O536    1.288   .     A
C494   O537    1.294   .     A
C495   N530    1.367   .     A
C495   O541    1.384   .     S
C496   O546    1.381   .     S
C496   N529    1.371   .     A
C496   C77     1.438   1_565 S
C497   N530    1.367   .     A
C497   O551    1.387   .     S
C498   O556    1.383   .     S
C498   N529    1.371   .     A
C498   C75     1.438   1_565 S
C499   C516    1.395   .     A
C499   H525    1.079   .     S
C500   H526    1.084   .     S
C500   C515    1.398   .     A
C500   C572    1.372   .     S
C501   C515    1.394   .     A
C501   H527    1.080   .     S
C501   C569    1.367   .     S
C502   H528    1.084   .     S
C502   C516    1.398   .     A
C503   C507    1.382   .     A
C503   C513    1.401   .     A
C503   H517    1.083   .     S
C504   C508    1.380   .     A
C504   C514    1.400   .     A
C504   H518    1.083   .     S
C505   C509    1.381   .     A
C505   C514    1.400   .     A
C505   H519    1.083   .     S
C506   C513    1.402   .     A
C506   C510    1.381   .     A
C506   H520    1.083   .     S
C507   H521    1.084   .     S
C507   C511    1.393   .     A
C508   H522    1.084   .     S
C508   C512    1.399   .     A
C509   C512    1.397   .     A
C509   H523    1.082   .     S
C510   H524    1.084   .     S
C510   C511    1.392   .     A
C513   C1144   1.446   1_554 S
C514   C1143   1.446   .     S
N529   Zn539   2.018   .     S
N530   Zn540   2.018   .     S
O531   Zn539   2.002   .     S
O532   Zn540   2.002   .     S
O533   Zn539   2.002   .     S
O534   Zn540   2.002   .     S
O535   Zn539   1.995   .     S
O536   Zn540   1.995   .     S
O537   Zn539   1.993   .     S
O538   Zn540   1.993   .     S
O541   C542    1.413   .     S
C542   H545    1.109   .     S
C542   H544    1.115   .     S
C542   H543    1.109   .     S
O546   C547    1.414   .     S
C547   H548    1.108   .     S
C547   H549    1.114   .     S
C547   H550    1.110   .     S
O551   C552    1.413   .     S
C552   H553    1.109   .     S
C552   H554    1.115   .     S
C552   H555    1.109   .     S
O556   C557    1.413   .     S
C557   H560    1.109   .     S
C557   H558    1.109   .     S
C557   H559    1.114   .     S
C561   O604    1.288   .     A
C561   C586    1.422   .     S
C561   O601    1.285   .     A
C562   O603    1.285   .     A
C562   O602    1.288   .     A
C562   C585    1.421   .     S
C563   C581    1.420   .     S
C563   O608    1.285   .     A
C563   O605    1.287   .     A
C564   C582    1.438   .     S
C564   O606    1.288   .     A
C564   O607    1.294   .     A
C565   N600    1.367   .     A
C565   O611    1.384   .     S
C566   O616    1.381   .     S
C566   N599    1.371   .     A
C566   C147    1.438   1_565 S
C567   N600    1.367   .     A
C567   O621    1.387   .     S
C568   O626    1.383   .     S
C568   N599    1.371   .     A
C568   C145    1.438   1_565 S
C569   C586    1.395   .     A
C569   H595    1.079   .     S
C570   H596    1.084   .     S
C570   C585    1.398   .     A
C570   C432    1.372   1_655 S
C571   C585    1.394   .     A
C571   H597    1.080   .     S
C571   C429    1.367   1_655 S
C572   H598    1.084   .     S
C572   C586    1.398   .     A
C573   C577    1.382   .     A
C573   C583    1.401   .     A
C573   H587    1.083   .     S
C574   C578    1.380   .     A
C574   C584    1.400   .     A
C574   H588    1.083   .     S
C575   C579    1.381   .     A
C575   C584    1.400   .     A
C575   H589    1.083   .     S
C576   C583    1.402   .     A
C576   C580    1.381   .     A
C576   H590    1.083   .     S
C577   H591    1.084   .     S
C577   C581    1.393   .     A
C578   H592    1.084   .     S
C578   C582    1.399   .     A
C579   C582    1.397   .     A
C579   H593    1.082   .     S
C580   H594    1.084   .     S
C580   C581    1.392   .     A
C583   C1214   1.446   1_554 S
C584   C1213   1.446   .     S
N599   Zn609   2.018   .     S
N600   Zn610   2.018   .     S
O601   Zn609   2.002   .     S
O602   Zn610   2.002   .     S
O603   Zn609   2.002   .     S
O604   Zn610   2.002   .     S
O605   Zn609   1.995   .     S
O606   Zn610   1.995   .     S
O607   Zn609   1.993   .     S
O608   Zn610   1.993   .     S
O611   C612    1.413   .     S
C612   H615    1.109   .     S
C612   H614    1.115   .     S
C612   H613    1.109   .     S
O616   C617    1.414   .     S
C617   H618    1.108   .     S
C617   H619    1.114   .     S
C617   H620    1.110   .     S
O621   C622    1.413   .     S
C622   H623    1.109   .     S
C622   H624    1.115   .     S
C622   H625    1.109   .     S
O626   C627    1.413   .     S
C627   H630    1.109   .     S
C627   H628    1.109   .     S
C627   H629    1.114   .     S
C631   O674    1.288   .     A
C631   C656    1.422   .     S
C631   O671    1.285   .     A
C632   O673    1.285   .     A
C632   O672    1.288   .     A
C632   C655    1.421   .     S
C633   C651    1.420   .     S
C633   O678    1.285   .     A
C633   O675    1.287   .     A
C634   C652    1.438   .     S
C634   O676    1.288   .     A
C634   O677    1.294   .     A
C635   N670    1.367   .     A
C635   O681    1.384   .     S
C635   C1058   1.438   1_545 S
C636   O686    1.381   .     S
C636   N669    1.371   .     A
C636   C847    1.438   .     S
C637   N670    1.367   .     A
C637   O691    1.387   .     S
C637   C1056   1.438   1_545 S
C638   O696    1.383   .     S
C638   N669    1.371   .     A
C638   C845    1.438   .     S
C639   C656    1.395   .     A
C639   H665    1.079   .     S
C639   C781    1.367   1_455 S
C640   H666    1.084   .     S
C640   C655    1.398   .     A
C640   C712    1.372   .     S
C641   C655    1.394   .     A
C641   H667    1.080   .     S
C641   C709    1.367   .     S
C642   H668    1.084   .     S
C642   C656    1.398   .     A
C642   C780    1.372   1_455 S
C643   C647    1.382   .     A
C643   C653    1.401   .     A
C643   H657    1.083   .     S
C644   C648    1.380   .     A
C644   C654    1.400   .     A
C644   H658    1.083   .     S
C645   C649    1.381   .     A
C645   C654    1.400   .     A
C645   H659    1.083   .     S
C646   C653    1.402   .     A
C646   C650    1.381   .     A
C646   H660    1.083   .     S
C647   H661    1.084   .     S
C647   C651    1.393   .     A
C648   H662    1.084   .     S
C648   C652    1.399   .     A
C649   C652    1.397   .     A
C649   H663    1.082   .     S
C650   H664    1.084   .     S
C650   C651    1.392   .     A
C654   C23     1.446   1_556 S
N669   Zn679   2.018   .     S
N670   Zn680   2.018   .     S
O671   Zn679   2.002   .     S
O672   Zn680   2.002   .     S
O673   Zn679   2.002   .     S
O674   Zn680   2.002   .     S
O675   Zn679   1.995   .     S
O676   Zn680   1.995   .     S
O677   Zn679   1.993   .     S
O678   Zn680   1.993   .     S
O681   C682    1.413   .     S
C682   H685    1.109   .     S
C682   H684    1.115   .     S
C682   H683    1.109   .     S
O686   C687    1.414   .     S
C687   H688    1.108   .     S
C687   H689    1.114   .     S
C687   H690    1.110   .     S
O691   C692    1.413   .     S
C692   H693    1.109   .     S
C692   H694    1.115   .     S
C692   H695    1.109   .     S
O696   C697    1.413   .     S
C697   H700    1.109   .     S
C697   H698    1.109   .     S
C697   H699    1.114   .     S
C701   O744    1.288   .     A
C701   C726    1.422   .     S
C701   O741    1.285   .     A
C702   O743    1.285   .     A
C702   O742    1.288   .     A
C702   C725    1.421   .     S
C703   C721    1.420   .     S
C703   O748    1.285   .     A
C703   O745    1.287   .     A
C704   C722    1.438   .     S
C704   O746    1.288   .     A
C704   O747    1.294   .     A
C705   N740    1.367   .     A
C705   O751    1.384   .     S
C705   C1128   1.438   1_545 S
C706   O756    1.381   .     S
C706   N739    1.371   .     A
C706   C917    1.438   .     S
C707   N740    1.367   .     A
C707   O761    1.387   .     S
C707   C1126   1.438   1_545 S
C708   O766    1.383   .     S
C708   N739    1.371   .     A
C708   C915    1.438   .     S
C709   C726    1.395   .     A
C709   H735    1.079   .     S
C710   H736    1.084   .     S
C710   C725    1.398   .     A
C710   C782    1.372   .     S
C711   C725    1.394   .     A
C711   H737    1.080   .     S
C711   C779    1.367   .     S
C712   H738    1.084   .     S
C712   C726    1.398   .     A
C713   C717    1.382   .     A
C713   C723    1.401   .     A
C713   H727    1.083   .     S
C714   C718    1.380   .     A
C714   C724    1.400   .     A
C714   H728    1.083   .     S
C715   C719    1.381   .     A
C715   C724    1.400   .     A
C715   H729    1.083   .     S
C716   C723    1.402   .     A
C716   C720    1.381   .     A
C716   H730    1.083   .     S
C717   H731    1.084   .     S
C717   C721    1.393   .     A
C718   H732    1.084   .     S
C718   C722    1.399   .     A
C719   C722    1.397   .     A
C719   H733    1.082   .     S
C720   H734    1.084   .     S
C720   C721    1.392   .     A
C724   C93     1.446   1_556 S
N739   Zn749   2.018   .     S
N740   Zn750   2.018   .     S
O741   Zn749   2.002   .     S
O742   Zn750   2.002   .     S
O743   Zn749   2.002   .     S
O744   Zn750   2.002   .     S
O745   Zn749   1.995   .     S
O746   Zn750   1.995   .     S
O747   Zn749   1.993   .     S
O748   Zn750   1.993   .     S
O751   C752    1.413   .     S
C752   H755    1.109   .     S
C752   H754    1.115   .     S
C752   H753    1.109   .     S
O756   C757    1.414   .     S
C757   H758    1.108   .     S
C757   H759    1.114   .     S
C757   H760    1.110   .     S
O761   C762    1.413   .     S
C762   H763    1.109   .     S
C762   H764    1.115   .     S
C762   H765    1.109   .     S
O766   C767    1.413   .     S
C767   H770    1.109   .     S
C767   H768    1.109   .     S
C767   H769    1.114   .     S
C771   O814    1.288   .     A
C771   C796    1.422   .     S
C771   O811    1.285   .     A
C772   O813    1.285   .     A
C772   O812    1.288   .     A
C772   C795    1.421   .     S
C773   C791    1.420   .     S
C773   O818    1.285   .     A
C773   O815    1.287   .     A
C774   C792    1.438   .     S
C774   O816    1.288   .     A
C774   O817    1.294   .     A
C775   N810    1.367   .     A
C775   O821    1.384   .     S
C775   C1198   1.438   1_545 S
C776   O826    1.381   .     S
C776   N809    1.371   .     A
C776   C987    1.438   .     S
C777   N810    1.367   .     A
C777   O831    1.387   .     S
C777   C1196   1.438   1_545 S
C778   O836    1.383   .     S
C778   N809    1.371   .     A
C778   C985    1.438   .     S
C779   C796    1.395   .     A
C779   H805    1.079   .     S
C780   H806    1.084   .     S
C780   C795    1.398   .     A
C780   C642    1.372   1_655 S
C781   C795    1.394   .     A
C781   H807    1.080   .     S
C781   C639    1.367   1_655 S
C782   H808    1.084   .     S
C782   C796    1.398   .     A
C783   C787    1.382   .     A
C783   C793    1.401   .     A
C783   H797    1.083   .     S
C784   C788    1.380   .     A
C784   C794    1.400   .     A
C784   H798    1.083   .     S
C785   C789    1.381   .     A
C785   C794    1.400   .     A
C785   H799    1.083   .     S
C786   C793    1.402   .     A
C786   C790    1.381   .     A
C786   H800    1.083   .     S
C787   H801    1.084   .     S
C787   C791    1.393   .     A
C788   H802    1.084   .     S
C788   C792    1.399   .     A
C789   C792    1.397   .     A
C789   H803    1.082   .     S
C790   H804    1.084   .     S
C790   C791    1.392   .     A
C794   C163    1.446   1_556 S
N809   Zn819   2.018   .     S
N810   Zn820   2.018   .     S
O811   Zn819   2.002   .     S
O812   Zn820   2.002   .     S
O813   Zn819   2.002   .     S
O814   Zn820   2.002   .     S
O815   Zn819   1.995   .     S
O816   Zn820   1.995   .     S
O817   Zn819   1.993   .     S
O818   Zn820   1.993   .     S
O821   C822    1.413   .     S
C822   H825    1.109   .     S
C822   H824    1.115   .     S
C822   H823    1.109   .     S
O826   C827    1.414   .     S
C827   H828    1.108   .     S
C827   H829    1.114   .     S
C827   H830    1.110   .     S
O831   C832    1.413   .     S
C832   H833    1.109   .     S
C832   H834    1.115   .     S
C832   H835    1.109   .     S
O836   C837    1.413   .     S
C837   H840    1.109   .     S
C837   H838    1.109   .     S
C837   H839    1.114   .     S
C841   O884    1.288   .     A
C841   C866    1.422   .     S
C841   O881    1.285   .     A
C842   O883    1.285   .     A
C842   O882    1.288   .     A
C842   C865    1.421   .     S
C843   C861    1.420   .     S
C843   O888    1.285   .     A
C843   O885    1.287   .     A
C844   C862    1.438   .     S
C844   O886    1.288   .     A
C844   O887    1.294   .     A
C845   N880    1.367   .     A
C845   O891    1.384   .     S
C846   O896    1.381   .     S
C846   N879    1.371   .     A
C846   C1057   1.438   .     S
C847   N880    1.367   .     A
C847   O901    1.387   .     S
C848   O906    1.383   .     S
C848   N879    1.371   .     A
C848   C1055   1.438   .     S
C849   C866    1.395   .     A
C849   H875    1.079   .     S
C849   C991    1.367   1_455 S
C850   H876    1.084   .     S
C850   C865    1.398   .     A
C850   C922    1.372   .     S
C851   C865    1.394   .     A
C851   H877    1.080   .     S
C851   C919    1.367   .     S
C852   H878    1.084   .     S
C852   C866    1.398   .     A
C852   C990    1.372   1_455 S
C853   C857    1.382   .     A
C853   C863    1.401   .     A
C853   H867    1.083   .     S
C854   C858    1.380   .     A
C854   C864    1.400   .     A
C854   H868    1.083   .     S
C855   C859    1.381   .     A
C855   C864    1.400   .     A
C855   H869    1.083   .     S
C856   C863    1.402   .     A
C856   C860    1.381   .     A
C856   H870    1.083   .     S
C857   H871    1.084   .     S
C857   C861    1.393   .     A
C858   H872    1.084   .     S
C858   C862    1.399   .     A
C859   C862    1.397   .     A
C859   H873    1.082   .     S
C860   H874    1.084   .     S
C860   C861    1.392   .     A
C864   C233    1.446   1_556 S
N879   Zn889   2.018   .     S
N880   Zn890   2.018   .     S
O881   Zn889   2.002   .     S
O882   Zn890   2.002   .     S
O883   Zn889   2.002   .     S
O884   Zn890   2.002   .     S
O885   Zn889   1.995   .     S
O886   Zn890   1.995   .     S
O887   Zn889   1.993   .     S
O888   Zn890   1.993   .     S
O891   C892    1.413   .     S
C892   H895    1.109   .     S
C892   H894    1.115   .     S
C892   H893    1.109   .     S
O896   C897    1.414   .     S
C897   H898    1.108   .     S
C897   H899    1.114   .     S
C897   H900    1.110   .     S
O901   C902    1.413   .     S
C902   H903    1.109   .     S
C902   H904    1.115   .     S
C902   H905    1.109   .     S
O906   C907    1.413   .     S
C907   H910    1.109   .     S
C907   H908    1.109   .     S
C907   H909    1.114   .     S
C911   O954    1.288   .     A
C911   C936    1.422   .     S
C911   O951    1.285   .     A
C912   O953    1.285   .     A
C912   O952    1.288   .     A
C912   C935    1.421   .     S
C913   C931    1.420   .     S
C913   O958    1.285   .     A
C913   O955    1.287   .     A
C914   C932    1.438   .     S
C914   O956    1.288   .     A
C914   O957    1.294   .     A
C915   N950    1.367   .     A
C915   O961    1.384   .     S
C916   O966    1.381   .     S
C916   N949    1.371   .     A
C916   C1127   1.438   .     S
C917   N950    1.367   .     A
C917   O971    1.387   .     S
C918   O976    1.383   .     S
C918   N949    1.371   .     A
C918   C1125   1.438   .     S
C919   C936    1.395   .     A
C919   H945    1.079   .     S
C920   H946    1.084   .     S
C920   C935    1.398   .     A
C920   C992    1.372   .     S
C921   C935    1.394   .     A
C921   H947    1.080   .     S
C921   C989    1.367   .     S
C922   H948    1.084   .     S
C922   C936    1.398   .     A
C923   C927    1.382   .     A
C923   C933    1.401   .     A
C923   H937    1.083   .     S
C924   C928    1.380   .     A
C924   C934    1.400   .     A
C924   H938    1.083   .     S
C925   C929    1.381   .     A
C925   C934    1.400   .     A
C925   H939    1.083   .     S
C926   C933    1.402   .     A
C926   C930    1.381   .     A
C926   H940    1.083   .     S
C927   H941    1.084   .     S
C927   C931    1.393   .     A
C928   H942    1.084   .     S
C928   C932    1.399   .     A
C929   C932    1.397   .     A
C929   H943    1.082   .     S
C930   H944    1.084   .     S
C930   C931    1.392   .     A
C934   C303    1.446   1_556 S
N949   Zn959   2.018   .     S
N950   Zn960   2.018   .     S
O951   Zn959   2.002   .     S
O952   Zn960   2.002   .     S
O953   Zn959   2.002   .     S
O954   Zn960   2.002   .     S
O955   Zn959   1.995   .     S
O956   Zn960   1.995   .     S
O957   Zn959   1.993   .     S
O958   Zn960   1.993   .     S
O961   C962    1.413   .     S
C962   H965    1.109   .     S
C962   H964    1.115   .     S
C962   H963    1.109   .     S
O966   C967    1.414   .     S
C967   H968    1.108   .     S
C967   H969    1.114   .     S
C967   H970    1.110   .     S
O971   C972    1.413   .     S
C972   H973    1.109   .     S
C972   H974    1.115   .     S
C972   H975    1.109   .     S
O976   C977    1.413   .     S
C977   H980    1.109   .     S
C977   H978    1.109   .     S
C977   H979    1.114   .     S
C981   O1024   1.288   .     A
C981   C1006   1.422   .     S
C981   O1021   1.285   .     A
C982   O1023   1.285   .     A
C982   O1022   1.288   .     A
C982   C1005   1.421   .     S
C983   C1001   1.420   .     S
C983   O1028   1.285   .     A
C983   O1025   1.287   .     A
C984   C1002   1.438   .     S
C984   O1026   1.288   .     A
C984   O1027   1.294   .     A
C985   N1020   1.367   .     A
C985   O1031   1.384   .     S
C986   O1036   1.381   .     S
C986   N1019   1.371   .     A
C986   C1197   1.438   .     S
C987   N1020   1.367   .     A
C987   O1041   1.387   .     S
C988   O1046   1.383   .     S
C988   N1019   1.371   .     A
C988   C1195   1.438   .     S
C989   C1006   1.395   .     A
C989   H1015   1.079   .     S
C990   H1016   1.084   .     S
C990   C1005   1.398   .     A
C990   C852    1.372   1_655 S
C991   C1005   1.394   .     A
C991   H1017   1.080   .     S
C991   C849    1.367   1_655 S
C992   H1018   1.084   .     S
C992   C1006   1.398   .     A
C993   C997    1.382   .     A
C993   C1003   1.401   .     A
C993   H1007   1.083   .     S
C994   C998    1.380   .     A
C994   C1004   1.400   .     A
C994   H1008   1.083   .     S
C995   C999    1.381   .     A
C995   C1004   1.400   .     A
C995   H1009   1.083   .     S
C996   C1003   1.402   .     A
C996   C1000   1.381   .     A
C996   H1010   1.083   .     S
C997   H1011   1.084   .     S
C997   C1001   1.393   .     A
C998   H1012   1.084   .     S
C998   C1002   1.399   .     A
C999   C1002   1.397   .     A
C999   H1013   1.082   .     S
C1000  H1014   1.084   .     S
C1000  C1001   1.392   .     A
C1004  C373    1.446   1_556 S
N1019  Zn1029  2.018   .     S
N1020  Zn1030  2.018   .     S
O1021  Zn1029  2.002   .     S
O1022  Zn1030  2.002   .     S
O1023  Zn1029  2.002   .     S
O1024  Zn1030  2.002   .     S
O1025  Zn1029  1.995   .     S
O1026  Zn1030  1.995   .     S
O1027  Zn1029  1.993   .     S
O1028  Zn1030  1.993   .     S
O1031  C1032   1.413   .     S
C1032  H1035   1.109   .     S
C1032  H1034   1.115   .     S
C1032  H1033   1.109   .     S
O1036  C1037   1.414   .     S
C1037  H1038   1.108   .     S
C1037  H1039   1.114   .     S
C1037  H1040   1.110   .     S
O1041  C1042   1.413   .     S
C1042  H1043   1.109   .     S
C1042  H1044   1.115   .     S
C1042  H1045   1.109   .     S
O1046  C1047   1.413   .     S
C1047  H1050   1.109   .     S
C1047  H1048   1.109   .     S
C1047  H1049   1.114   .     S
C1051  O1094   1.288   .     A
C1051  C1076   1.422   .     S
C1051  O1091   1.285   .     A
C1052  O1093   1.285   .     A
C1052  O1092   1.288   .     A
C1052  C1075   1.421   .     S
C1053  C1071   1.420   .     S
C1053  O1098   1.285   .     A
C1053  O1095   1.287   .     A
C1054  C1072   1.438   .     S
C1054  O1096   1.288   .     A
C1054  O1097   1.294   .     A
C1055  N1090   1.367   .     A
C1055  O1101   1.384   .     S
C1056  O1106   1.381   .     S
C1056  N1089   1.371   .     A
C1056  C637    1.438   1_565 S
C1057  N1090   1.367   .     A
C1057  O1111   1.387   .     S
C1058  O1116   1.383   .     S
C1058  N1089   1.371   .     A
C1058  C635    1.438   1_565 S
C1059  C1076   1.395   .     A
C1059  H1085   1.079   .     S
C1059  C1201   1.367   1_455 S
C1060  H1086   1.084   .     S
C1060  C1075   1.398   .     A
C1060  C1132   1.372   .     S
C1061  C1075   1.394   .     A
C1061  H1087   1.080   .     S
C1061  C1129   1.367   .     S
C1062  H1088   1.084   .     S
C1062  C1076   1.398   .     A
C1062  C1200   1.372   1_455 S
C1063  C1067   1.382   .     A
C1063  C1073   1.401   .     A
C1063  H1077   1.083   .     S
C1064  C1068   1.380   .     A
C1064  C1074   1.400   .     A
C1064  H1078   1.083   .     S
C1065  C1069   1.381   .     A
C1065  C1074   1.400   .     A
C1065  H1079   1.083   .     S
C1066  C1073   1.402   .     A
C1066  C1070   1.381   .     A
C1066  H1080   1.083   .     S
C1067  H1081   1.084   .     S
C1067  C1071   1.393   .     A
C1068  H1082   1.084   .     S
C1068  C1072   1.399   .     A
C1069  C1072   1.397   .     A
C1069  H1083   1.082   .     S
C1070  H1084   1.084   .     S
C1070  C1071   1.392   .     A
C1074  C443    1.446   1_556 S
N1089  Zn1099  2.018   .     S
N1090  Zn1100  2.018   .     S
O1091  Zn1099  2.002   .     S
O1092  Zn1100  2.002   .     S
O1093  Zn1099  2.002   .     S
O1094  Zn1100  2.002   .     S
O1095  Zn1099  1.995   .     S
O1096  Zn1100  1.995   .     S
O1097  Zn1099  1.993   .     S
O1098  Zn1100  1.993   .     S
O1101  C1102   1.413   .     S
C1102  H1105   1.109   .     S
C1102  H1104   1.115   .     S
C1102  H1103   1.109   .     S
O1106  C1107   1.414   .     S
C1107  H1108   1.108   .     S
C1107  H1109   1.114   .     S
C1107  H1110   1.110   .     S
O1111  C1112   1.413   .     S
C1112  H1113   1.109   .     S
C1112  H1114   1.115   .     S
C1112  H1115   1.109   .     S
O1116  C1117   1.413   .     S
C1117  H1120   1.109   .     S
C1117  H1118   1.109   .     S
C1117  H1119   1.114   .     S
C1121  O1164   1.288   .     A
C1121  C1146   1.422   .     S
C1121  O1161   1.285   .     A
C1122  O1163   1.285   .     A
C1122  O1162   1.288   .     A
C1122  C1145   1.421   .     S
C1123  C1141   1.420   .     S
C1123  O1168   1.285   .     A
C1123  O1165   1.287   .     A
C1124  C1142   1.438   .     S
C1124  O1166   1.288   .     A
C1124  O1167   1.294   .     A
C1125  N1160   1.367   .     A
C1125  O1171   1.384   .     S
C1126  O1176   1.381   .     S
C1126  N1159   1.371   .     A
C1126  C707    1.438   1_565 S
C1127  N1160   1.367   .     A
C1127  O1181   1.387   .     S
C1128  O1186   1.383   .     S
C1128  N1159   1.371   .     A
C1128  C705    1.438   1_565 S
C1129  C1146   1.395   .     A
C1129  H1155   1.079   .     S
C1130  H1156   1.084   .     S
C1130  C1145   1.398   .     A
C1130  C1202   1.372   .     S
C1131  C1145   1.394   .     A
C1131  H1157   1.080   .     S
C1131  C1199   1.367   .     S
C1132  H1158   1.084   .     S
C1132  C1146   1.398   .     A
C1133  C1137   1.382   .     A
C1133  C1143   1.401   .     A
C1133  H1147   1.083   .     S
C1134  C1138   1.380   .     A
C1134  C1144   1.400   .     A
C1134  H1148   1.083   .     S
C1135  C1139   1.381   .     A
C1135  C1144   1.400   .     A
C1135  H1149   1.083   .     S
C1136  C1143   1.402   .     A
C1136  C1140   1.381   .     A
C1136  H1150   1.083   .     S
C1137  H1151   1.084   .     S
C1137  C1141   1.393   .     A
C1138  H1152   1.084   .     S
C1138  C1142   1.399   .     A
C1139  C1142   1.397   .     A
C1139  H1153   1.082   .     S
C1140  H1154   1.084   .     S
C1140  C1141   1.392   .     A
C1144  C513    1.446   1_556 S
N1159  Zn1169  2.018   .     S
N1160  Zn1170  2.018   .     S
O1161  Zn1169  2.002   .     S
O1162  Zn1170  2.002   .     S
O1163  Zn1169  2.002   .     S
O1164  Zn1170  2.002   .     S
O1165  Zn1169  1.995   .     S
O1166  Zn1170  1.995   .     S
O1167  Zn1169  1.993   .     S
O1168  Zn1170  1.993   .     S
O1171  C1172   1.413   .     S
C1172  H1175   1.109   .     S
C1172  H1174   1.115   .     S
C1172  H1173   1.109   .     S
O1176  C1177   1.414   .     S
C1177  H1178   1.108   .     S
C1177  H1179   1.114   .     S
C1177  H1180   1.110   .     S
O1181  C1182   1.413   .     S
C1182  H1183   1.109   .     S
C1182  H1184   1.115   .     S
C1182  H1185   1.109   .     S
O1186  C1187   1.413   .     S
C1187  H1190   1.109   .     S
C1187  H1188   1.109   .     S
C1187  H1189   1.114   .     S
C1191  O1234   1.288   .     A
C1191  C1216   1.422   .     S
C1191  O1231   1.285   .     A
C1192  O1233   1.285   .     A
C1192  O1232   1.288   .     A
C1192  C1215   1.421   .     S
C1193  C1211   1.420   .     S
C1193  O1238   1.285   .     A
C1193  O1235   1.287   .     A
C1194  C1212   1.438   .     S
C1194  O1236   1.288   .     A
C1194  O1237   1.294   .     A
C1195  N1230   1.367   .     A
C1195  O1241   1.384   .     S
C1196  O1246   1.381   .     S
C1196  N1229   1.371   .     A
C1196  C777    1.438   1_565 S
C1197  N1230   1.367   .     A
C1197  O1251   1.387   .     S
C1198  O1256   1.383   .     S
C1198  N1229   1.371   .     A
C1198  C775    1.438   1_565 S
C1199  C1216   1.395   .     A
C1199  H1225   1.079   .     S
C1200  H1226   1.084   .     S
C1200  C1215   1.398   .     A
C1200  C1062   1.372   1_655 S
C1201  C1215   1.394   .     A
C1201  H1227   1.080   .     S
C1201  C1059   1.367   1_655 S
C1202  H1228   1.084   .     S
C1202  C1216   1.398   .     A
C1203  C1207   1.382   .     A
C1203  C1213   1.401   .     A
C1203  H1217   1.083   .     S
C1204  C1208   1.380   .     A
C1204  C1214   1.400   .     A
C1204  H1218   1.083   .     S
C1205  C1209   1.381   .     A
C1205  C1214   1.400   .     A
C1205  H1219   1.083   .     S
C1206  C1213   1.402   .     A
C1206  C1210   1.381   .     A
C1206  H1220   1.083   .     S
C1207  H1221   1.084   .     S
C1207  C1211   1.393   .     A
C1208  H1222   1.084   .     S
C1208  C1212   1.399   .     A
C1209  C1212   1.397   .     A
C1209  H1223   1.082   .     S
C1210  H1224   1.084   .     S
C1210  C1211   1.392   .     A
C1214  C583    1.446   1_556 S
N1229  Zn1239  2.018   .     S
N1230  Zn1240  2.018   .     S
O1231  Zn1239  2.002   .     S
O1232  Zn1240  2.002   .     S
O1233  Zn1239  2.002   .     S
O1234  Zn1240  2.002   .     S
O1235  Zn1239  1.995   .     S
O1236  Zn1240  1.995   .     S
O1237  Zn1239  1.993   .     S
O1238  Zn1240  1.993   .     S
O1241  C1242   1.413   .     S
C1242  H1245   1.109   .     S
C1242  H1244   1.115   .     S
C1242  H1243   1.109   .     S
O1246  C1247   1.414   .     S
C1247  H1248   1.108   .     S
C1247  H1249   1.114   .     S
C1247  H1250   1.110   .     S
O1251  C1252   1.413   .     S
C1252  H1253   1.109   .     S
C1252  H1254   1.115   .     S
C1252  H1255   1.109   .     S
O1256  C1257   1.413   .     S
C1257  H1260   1.109   .     S
C1257  H1258   1.109   .     S
C1257  H1259   1.114   .     S
