data_str_m3_o1_o1_pcu_sym.35
_audit_creation_date              2020-01-03
_audit_creation_method            'Materials Studio'
_symmetry_space_group_name_H-M    'P1'
_symmetry_Int_Tables_number       1
_symmetry_cell_setting            triclinic
loop_
_symmetry_equiv_pos_as_xyz
  x,y,z
_cell_length_a                    30.9978
_cell_length_b                    29.6991
_cell_length_c                    29.7925
_cell_angle_alpha                 87.8023
_cell_angle_beta                  90.0001
_cell_angle_gamma                 89.9999
loop_
_atom_site_label
_atom_site_type_symbol
_atom_site_fract_x
_atom_site_fract_y
_atom_site_fract_z
_atom_site_U_iso_or_equiv
_atom_site_adp_type
_atom_site_occupancy
C1     C     0.06290   0.19321   0.16721   0.00000  Uiso   1.00
C2     C     0.00000   0.21036   0.31108   0.00000  Uiso   1.00
C3     C    -0.00000   0.21028   0.02503   0.00000  Uiso   1.00
C4     C     0.00000   0.28972   0.30831   0.00000  Uiso   1.00
C5     C     0.25000   0.03964   0.02226   0.00000  Uiso   1.00
C6     C     0.25000   0.46036   0.31108   0.00000  Uiso   1.00
C7     C     0.25000   0.46028   0.02503   0.00000  Uiso   1.00
C8     C     0.25000   0.03972   0.30831   0.00000  Uiso   1.00
C9     C     0.38160   0.15179   0.12736   0.00000  Uiso   1.00
C10    C     0.11839   0.34822   0.20597   0.00000  Uiso   1.00
C11    C     0.10996   0.36125   0.12483   0.00000  Uiso   1.00
C12    C     0.43710   0.30679   0.16613   0.00000  Uiso   1.00
C13    C     0.39005   0.13875   0.20850   0.00000  Uiso   1.00
C14    C     0.10996   0.13875   0.20850   0.00000  Uiso   1.00
C15    C     0.39005   0.36125   0.12484   0.00000  Uiso   1.00
C16    C     0.38160   0.34821   0.20597   0.00000  Uiso   1.00
C17    C     0.11840   0.15179   0.12736   0.00000  Uiso   1.00
C18    C     0.13160   0.40179   0.12736   0.00000  Uiso   1.00
C19    C     0.36840   0.09821   0.20597   0.00000  Uiso   1.00
C20    C     0.35995   0.11125   0.12484   0.00000  Uiso   1.00
C21    C     0.14004   0.38875   0.20850   0.00000  Uiso   1.00
C22    C     0.35995   0.38875   0.20850   0.00000  Uiso   1.00
C23    C     0.43710   0.19321   0.16721   0.00000  Uiso   1.00
C24    C     0.14004   0.11125   0.12483   0.00000  Uiso   1.00
C25    C     0.13160   0.09821   0.20597   0.00000  Uiso   1.00
C26    C     0.36840   0.40179   0.12736   0.00000  Uiso   1.00
C27    C     0.09951   0.33700   0.16498   0.00000  Uiso   1.00
C28    C     0.40049   0.16300   0.16835   0.00000  Uiso   1.00
C29    C     0.40049   0.33700   0.16498   0.00000  Uiso   1.00
C30    C     0.09951   0.16300   0.16835   0.00000  Uiso   1.00
C31    C     0.34951   0.08700   0.16498   0.00000  Uiso   1.00
C32    C     0.15049   0.41300   0.16835   0.00000  Uiso   1.00
C33    C     0.15048   0.08700   0.16498   0.00000  Uiso   1.00
C34    C     0.06290   0.30679   0.16613   0.00000  Uiso   1.00
C35    C     0.34951   0.41300   0.16835   0.00000  Uiso   1.00
C36    C     0.31290   0.44321   0.16721   0.00000  Uiso   1.00
C37    C     0.18710   0.05679   0.16613   0.00000  Uiso   1.00
C38    C     0.18710   0.44321   0.16721   0.00000  Uiso   1.00
C39    C     0.31290   0.05679   0.16613   0.00000  Uiso   1.00
C40    C     0.00000   0.28964   0.02226   0.00000  Uiso   1.00
H41    H     0.00000   0.32649   0.07414   0.00000  Uiso   1.00
H42    H     0.00000   0.17351   0.25919   0.00000  Uiso   1.00
H43    H     0.00000   0.17234   0.07919   0.00000  Uiso   1.00
H44    H    -0.00000   0.32766   0.25414   0.00000  Uiso   1.00
H45    H     0.25000   0.07649   0.07414   0.00000  Uiso   1.00
H46    H     0.25000   0.42351   0.25919   0.00000  Uiso   1.00
H47    H     0.25000   0.42234   0.07919   0.00000  Uiso   1.00
H48    H     0.25000   0.07766   0.25414   0.00000  Uiso   1.00
I49    I     0.37694   0.19954   0.07138   0.00000  Uiso   1.00
I50    I     0.37306   0.05046   0.26195   0.00000  Uiso   1.00
I51    I     0.35484   0.08343   0.05966   0.00000  Uiso   1.00
I52    I     0.14516   0.41658   0.27367   0.00000  Uiso   1.00
I53    I     0.35484   0.41657   0.27367   0.00000  Uiso   1.00
I54    I     0.14516   0.08342   0.05966   0.00000  Uiso   1.00
I55    I     0.12695   0.05047   0.26196   0.00000  Uiso   1.00
I56    I     0.37306   0.44954   0.07138   0.00000  Uiso   1.00
I57    I     0.12305   0.30047   0.26196   0.00000  Uiso   1.00
I58    I     0.10484   0.33342   0.05966   0.00000  Uiso   1.00
I59    I     0.39516   0.16657   0.27367   0.00000  Uiso   1.00
I60    I     0.10484   0.16658   0.27367   0.00000  Uiso   1.00
I61    I     0.39516   0.33344   0.05966   0.00000  Uiso   1.00
I62    I     0.37694   0.30046   0.26195   0.00000  Uiso   1.00
I63    I     0.12305   0.19953   0.07137   0.00000  Uiso   1.00
I64    I     0.12695   0.44953   0.07137   0.00000  Uiso   1.00
N65    N     0.00000   0.25000   0.28573   0.00000  Uiso   1.00
N66    N     0.00000   0.25000   0.04760   0.00000  Uiso   1.00
N67    N     0.25000   0.00000   0.28573   0.00000  Uiso   1.00
N68    N     0.25000   0.00000   0.04760   0.00000  Uiso   1.00
O69    O     0.04580   0.20419   0.20487   0.00000  Uiso   1.00
O70    O     0.20419   0.04581   0.12846   0.00000  Uiso   1.00
O71    O     0.20419   0.04581   0.20487   0.00000  Uiso   1.00
O72    O     0.29580   0.45419   0.12846   0.00000  Uiso   1.00
O73    O     0.20419   0.45419   0.12846   0.00000  Uiso   1.00
O74    O     0.29580   0.04581   0.20487   0.00000  Uiso   1.00
O75    O     0.29580   0.04581   0.12846   0.00000  Uiso   1.00
O76    O     0.20419   0.45419   0.20487   0.00000  Uiso   1.00
O77    O     0.00000   0.33104   0.04144   0.00000  Uiso   1.00
O78    O     0.00000   0.16896   0.29189   0.00000  Uiso   1.00
O79    O    -0.00000   0.16857   0.04682   0.00000  Uiso   1.00
O80    O     0.45419   0.29581   0.12846   0.00000  Uiso   1.00
O81    O     0.00000   0.33143   0.28651   0.00000  Uiso   1.00
O82    O     0.25000   0.08104   0.04144   0.00000  Uiso   1.00
O83    O     0.25000   0.41896   0.29189   0.00000  Uiso   1.00
O84    O     0.25000   0.41857   0.04682   0.00000  Uiso   1.00
O85    O     0.25000   0.08143   0.28651   0.00000  Uiso   1.00
O86    O     0.45419   0.29581   0.20487   0.00000  Uiso   1.00
O87    O     0.04580   0.20419   0.12846   0.00000  Uiso   1.00
O88    O     0.45419   0.20419   0.12846   0.00000  Uiso   1.00
O89    O     0.04580   0.29581   0.20487   0.00000  Uiso   1.00
O90    O     0.04580   0.29581   0.12846   0.00000  Uiso   1.00
O91    O     0.45419   0.20419   0.20487   0.00000  Uiso   1.00
O92    O     0.29580   0.45419   0.20487   0.00000  Uiso   1.00
Zn93   Zn   -0.00000   0.25000   0.21771   0.00000  Uiso   1.00
Zn94   Zn   -0.00000   0.25000   0.11563   0.00000  Uiso   1.00
Zn95   Zn    0.25000   0.00000   0.21771   0.00000  Uiso   1.00
Zn96   Zn    0.25000   0.00000   0.11563   0.00000  Uiso   1.00
C97    C     0.56290   0.19321   0.16721   0.00000  Uiso   1.00
C98    C     0.50000   0.21036   0.31108   0.00000  Uiso   1.00
C99    C     0.50000   0.21028   0.02503   0.00000  Uiso   1.00
C100   C     0.50000   0.28972   0.30831   0.00000  Uiso   1.00
C101   C     0.75000   0.03964   0.02226   0.00000  Uiso   1.00
C102   C     0.75000   0.46036   0.31108   0.00000  Uiso   1.00
C103   C     0.75000   0.46028   0.02503   0.00000  Uiso   1.00
C104   C     0.75000   0.03972   0.30831   0.00000  Uiso   1.00
C105   C     0.88160   0.15179   0.12736   0.00000  Uiso   1.00
C106   C     0.61839   0.34822   0.20597   0.00000  Uiso   1.00
C107   C     0.60996   0.36125   0.12483   0.00000  Uiso   1.00
C108   C     0.93710   0.30679   0.16613   0.00000  Uiso   1.00
C109   C     0.89005   0.13875   0.20850   0.00000  Uiso   1.00
C110   C     0.60996   0.13875   0.20850   0.00000  Uiso   1.00
C111   C     0.89005   0.36125   0.12484   0.00000  Uiso   1.00
C112   C     0.88160   0.34821   0.20597   0.00000  Uiso   1.00
C113   C     0.61840   0.15179   0.12736   0.00000  Uiso   1.00
C114   C     0.63160   0.40179   0.12736   0.00000  Uiso   1.00
C115   C     0.86840   0.09821   0.20597   0.00000  Uiso   1.00
C116   C     0.85995   0.11125   0.12484   0.00000  Uiso   1.00
C117   C     0.64004   0.38875   0.20850   0.00000  Uiso   1.00
C118   C     0.85995   0.38875   0.20850   0.00000  Uiso   1.00
C119   C     0.93710   0.19321   0.16721   0.00000  Uiso   1.00
C120   C     0.64004   0.11125   0.12483   0.00000  Uiso   1.00
C121   C     0.63160   0.09821   0.20597   0.00000  Uiso   1.00
C122   C     0.86840   0.40179   0.12736   0.00000  Uiso   1.00
C123   C     0.59951   0.33700   0.16498   0.00000  Uiso   1.00
C124   C     0.90049   0.16300   0.16835   0.00000  Uiso   1.00
C125   C     0.90049   0.33700   0.16498   0.00000  Uiso   1.00
C126   C     0.59951   0.16300   0.16835   0.00000  Uiso   1.00
C127   C     0.84951   0.08700   0.16498   0.00000  Uiso   1.00
C128   C     0.65049   0.41300   0.16835   0.00000  Uiso   1.00
C129   C     0.65048   0.08700   0.16498   0.00000  Uiso   1.00
C130   C     0.56290   0.30679   0.16613   0.00000  Uiso   1.00
C131   C     0.84951   0.41300   0.16835   0.00000  Uiso   1.00
C132   C     0.81290   0.44321   0.16721   0.00000  Uiso   1.00
C133   C     0.68710   0.05679   0.16613   0.00000  Uiso   1.00
C134   C     0.68710   0.44321   0.16721   0.00000  Uiso   1.00
C135   C     0.81290   0.05679   0.16613   0.00000  Uiso   1.00
C136   C     0.50000   0.28964   0.02226   0.00000  Uiso   1.00
H137   H     0.50000   0.32649   0.07414   0.00000  Uiso   1.00
H138   H     0.50000   0.17351   0.25919   0.00000  Uiso   1.00
H139   H     0.50000   0.17234   0.07919   0.00000  Uiso   1.00
H140   H     0.50000   0.32766   0.25414   0.00000  Uiso   1.00
H141   H     0.75000   0.07649   0.07414   0.00000  Uiso   1.00
H142   H     0.75000   0.42351   0.25919   0.00000  Uiso   1.00
H143   H     0.75000   0.42234   0.07919   0.00000  Uiso   1.00
H144   H     0.75000   0.07766   0.25414   0.00000  Uiso   1.00
I145   I     0.87694   0.19954   0.07138   0.00000  Uiso   1.00
I146   I     0.87306   0.05046   0.26195   0.00000  Uiso   1.00
I147   I     0.85484   0.08343   0.05966   0.00000  Uiso   1.00
I148   I     0.64516   0.41658   0.27367   0.00000  Uiso   1.00
I149   I     0.85484   0.41657   0.27367   0.00000  Uiso   1.00
I150   I     0.64516   0.08342   0.05966   0.00000  Uiso   1.00
I151   I     0.62695   0.05047   0.26196   0.00000  Uiso   1.00
I152   I     0.87306   0.44954   0.07138   0.00000  Uiso   1.00
I153   I     0.62305   0.30047   0.26196   0.00000  Uiso   1.00
I154   I     0.60484   0.33342   0.05966   0.00000  Uiso   1.00
I155   I     0.89516   0.16657   0.27367   0.00000  Uiso   1.00
I156   I     0.60484   0.16658   0.27367   0.00000  Uiso   1.00
I157   I     0.89516   0.33344   0.05966   0.00000  Uiso   1.00
I158   I     0.87694   0.30046   0.26195   0.00000  Uiso   1.00
I159   I     0.62305   0.19953   0.07137   0.00000  Uiso   1.00
I160   I     0.62695   0.44953   0.07137   0.00000  Uiso   1.00
N161   N     0.50000   0.25000   0.28573   0.00000  Uiso   1.00
N162   N     0.50000   0.25000   0.04760   0.00000  Uiso   1.00
N163   N     0.75000   0.00000   0.28573   0.00000  Uiso   1.00
N164   N     0.75000   0.00000   0.04760   0.00000  Uiso   1.00
O165   O     0.54580   0.20419   0.20487   0.00000  Uiso   1.00
O166   O     0.70419   0.04581   0.12846   0.00000  Uiso   1.00
O167   O     0.70419   0.04581   0.20487   0.00000  Uiso   1.00
O168   O     0.79580   0.45419   0.12846   0.00000  Uiso   1.00
O169   O     0.70419   0.45419   0.12846   0.00000  Uiso   1.00
O170   O     0.79580   0.04581   0.20487   0.00000  Uiso   1.00
O171   O     0.79580   0.04581   0.12846   0.00000  Uiso   1.00
O172   O     0.70419   0.45419   0.20487   0.00000  Uiso   1.00
O173   O     0.50000   0.33104   0.04144   0.00000  Uiso   1.00
O174   O     0.50000   0.16896   0.29189   0.00000  Uiso   1.00
O175   O     0.50000   0.16857   0.04682   0.00000  Uiso   1.00
O176   O     0.95419   0.29581   0.12846   0.00000  Uiso   1.00
O177   O     0.50000   0.33143   0.28651   0.00000  Uiso   1.00
O178   O     0.75000   0.08104   0.04144   0.00000  Uiso   1.00
O179   O     0.75000   0.41896   0.29189   0.00000  Uiso   1.00
O180   O     0.75000   0.41857   0.04682   0.00000  Uiso   1.00
O181   O     0.75000   0.08143   0.28651   0.00000  Uiso   1.00
O182   O     0.95419   0.29581   0.20487   0.00000  Uiso   1.00
O183   O     0.54580   0.20419   0.12846   0.00000  Uiso   1.00
O184   O     0.95419   0.20419   0.12846   0.00000  Uiso   1.00
O185   O     0.54580   0.29581   0.20487   0.00000  Uiso   1.00
O186   O     0.54580   0.29581   0.12846   0.00000  Uiso   1.00
O187   O     0.95419   0.20419   0.20487   0.00000  Uiso   1.00
O188   O     0.79580   0.45419   0.20487   0.00000  Uiso   1.00
Zn189  Zn    0.50000   0.25000   0.21771   0.00000  Uiso   1.00
Zn190  Zn    0.50000   0.25000   0.11563   0.00000  Uiso   1.00
Zn191  Zn    0.75000   0.00000   0.21771   0.00000  Uiso   1.00
Zn192  Zn    0.75000   0.00000   0.11563   0.00000  Uiso   1.00
C193   C     0.06290   0.69321   0.16721   0.00000  Uiso   1.00
C194   C     0.00000   0.71036   0.31108   0.00000  Uiso   1.00
C195   C    -0.00000   0.71028   0.02503   0.00000  Uiso   1.00
C196   C     0.00000   0.78972   0.30831   0.00000  Uiso   1.00
C197   C     0.25000   0.53964   0.02226   0.00000  Uiso   1.00
C198   C     0.25000   0.96036   0.31108   0.00000  Uiso   1.00
C199   C     0.25000   0.96028   0.02503   0.00000  Uiso   1.00
C200   C     0.25000   0.53972   0.30831   0.00000  Uiso   1.00
C201   C     0.38160   0.65179   0.12736   0.00000  Uiso   1.00
C202   C     0.11839   0.84822   0.20597   0.00000  Uiso   1.00
C203   C     0.10996   0.86125   0.12483   0.00000  Uiso   1.00
C204   C     0.43710   0.80679   0.16613   0.00000  Uiso   1.00
C205   C     0.39005   0.63875   0.20850   0.00000  Uiso   1.00
C206   C     0.10996   0.63875   0.20850   0.00000  Uiso   1.00
C207   C     0.39005   0.86125   0.12484   0.00000  Uiso   1.00
C208   C     0.38160   0.84821   0.20597   0.00000  Uiso   1.00
C209   C     0.11840   0.65179   0.12736   0.00000  Uiso   1.00
C210   C     0.13160   0.90179   0.12736   0.00000  Uiso   1.00
C211   C     0.36840   0.59821   0.20597   0.00000  Uiso   1.00
C212   C     0.35995   0.61125   0.12484   0.00000  Uiso   1.00
C213   C     0.14004   0.88875   0.20850   0.00000  Uiso   1.00
C214   C     0.35995   0.88875   0.20850   0.00000  Uiso   1.00
C215   C     0.43710   0.69321   0.16721   0.00000  Uiso   1.00
C216   C     0.14004   0.61125   0.12483   0.00000  Uiso   1.00
C217   C     0.13160   0.59821   0.20597   0.00000  Uiso   1.00
C218   C     0.36840   0.90179   0.12736   0.00000  Uiso   1.00
C219   C     0.09951   0.83700   0.16498   0.00000  Uiso   1.00
C220   C     0.40049   0.66300   0.16835   0.00000  Uiso   1.00
C221   C     0.40049   0.83700   0.16498   0.00000  Uiso   1.00
C222   C     0.09951   0.66300   0.16835   0.00000  Uiso   1.00
C223   C     0.34951   0.58700   0.16498   0.00000  Uiso   1.00
C224   C     0.15049   0.91300   0.16835   0.00000  Uiso   1.00
C225   C     0.15048   0.58700   0.16498   0.00000  Uiso   1.00
C226   C     0.06290   0.80679   0.16613   0.00000  Uiso   1.00
C227   C     0.34951   0.91300   0.16835   0.00000  Uiso   1.00
C228   C     0.31290   0.94321   0.16721   0.00000  Uiso   1.00
C229   C     0.18710   0.55679   0.16613   0.00000  Uiso   1.00
C230   C     0.18710   0.94321   0.16721   0.00000  Uiso   1.00
C231   C     0.31290   0.55679   0.16613   0.00000  Uiso   1.00
C232   C     0.00000   0.78964   0.02226   0.00000  Uiso   1.00
H233   H     0.00000   0.82649   0.07414   0.00000  Uiso   1.00
H234   H     0.00000   0.67351   0.25919   0.00000  Uiso   1.00
H235   H     0.00000   0.67234   0.07919   0.00000  Uiso   1.00
H236   H    -0.00000   0.82766   0.25414   0.00000  Uiso   1.00
H237   H     0.25000   0.57649   0.07414   0.00000  Uiso   1.00
H238   H     0.25000   0.92351   0.25919   0.00000  Uiso   1.00
H239   H     0.25000   0.92234   0.07919   0.00000  Uiso   1.00
H240   H     0.25000   0.57766   0.25414   0.00000  Uiso   1.00
I241   I     0.37694   0.69954   0.07138   0.00000  Uiso   1.00
I242   I     0.37306   0.55046   0.26195   0.00000  Uiso   1.00
I243   I     0.35484   0.58343   0.05966   0.00000  Uiso   1.00
I244   I     0.14516   0.91658   0.27367   0.00000  Uiso   1.00
I245   I     0.35484   0.91657   0.27367   0.00000  Uiso   1.00
I246   I     0.14516   0.58342   0.05966   0.00000  Uiso   1.00
I247   I     0.12695   0.55047   0.26196   0.00000  Uiso   1.00
I248   I     0.37306   0.94954   0.07138   0.00000  Uiso   1.00
I249   I     0.12305   0.80047   0.26196   0.00000  Uiso   1.00
I250   I     0.10484   0.83342   0.05966   0.00000  Uiso   1.00
I251   I     0.39516   0.66657   0.27367   0.00000  Uiso   1.00
I252   I     0.10484   0.66658   0.27367   0.00000  Uiso   1.00
I253   I     0.39516   0.83344   0.05966   0.00000  Uiso   1.00
I254   I     0.37694   0.80046   0.26195   0.00000  Uiso   1.00
I255   I     0.12305   0.69953   0.07137   0.00000  Uiso   1.00
I256   I     0.12695   0.94953   0.07137   0.00000  Uiso   1.00
N257   N     0.00000   0.75000   0.28573   0.00000  Uiso   1.00
N258   N     0.00000   0.75000   0.04760   0.00000  Uiso   1.00
N259   N     0.25000   0.50000   0.28573   0.00000  Uiso   1.00
N260   N     0.25000   0.50000   0.04760   0.00000  Uiso   1.00
O261   O     0.04580   0.70419   0.20487   0.00000  Uiso   1.00
O262   O     0.20419   0.54581   0.12846   0.00000  Uiso   1.00
O263   O     0.20419   0.54581   0.20487   0.00000  Uiso   1.00
O264   O     0.29580   0.95419   0.12846   0.00000  Uiso   1.00
O265   O     0.20419   0.95419   0.12846   0.00000  Uiso   1.00
O266   O     0.29580   0.54581   0.20487   0.00000  Uiso   1.00
O267   O     0.29580   0.54581   0.12846   0.00000  Uiso   1.00
O268   O     0.20419   0.95419   0.20487   0.00000  Uiso   1.00
O269   O     0.00000   0.83104   0.04144   0.00000  Uiso   1.00
O270   O     0.00000   0.66896   0.29189   0.00000  Uiso   1.00
O271   O    -0.00000   0.66857   0.04682   0.00000  Uiso   1.00
O272   O     0.45419   0.79581   0.12846   0.00000  Uiso   1.00
O273   O     0.00000   0.83143   0.28651   0.00000  Uiso   1.00
O274   O     0.25000   0.58104   0.04144   0.00000  Uiso   1.00
O275   O     0.25000   0.91896   0.29189   0.00000  Uiso   1.00
O276   O     0.25000   0.91857   0.04682   0.00000  Uiso   1.00
O277   O     0.25000   0.58143   0.28651   0.00000  Uiso   1.00
O278   O     0.45419   0.79581   0.20487   0.00000  Uiso   1.00
O279   O     0.04580   0.70419   0.12846   0.00000  Uiso   1.00
O280   O     0.45419   0.70419   0.12846   0.00000  Uiso   1.00
O281   O     0.04580   0.79581   0.20487   0.00000  Uiso   1.00
O282   O     0.04580   0.79581   0.12846   0.00000  Uiso   1.00
O283   O     0.45419   0.70419   0.20487   0.00000  Uiso   1.00
O284   O     0.29580   0.95419   0.20487   0.00000  Uiso   1.00
Zn285  Zn   -0.00000   0.75000   0.21771   0.00000  Uiso   1.00
Zn286  Zn   -0.00000   0.75000   0.11563   0.00000  Uiso   1.00
Zn287  Zn    0.25000   0.50000   0.21771   0.00000  Uiso   1.00
Zn288  Zn    0.25000   0.50000   0.11563   0.00000  Uiso   1.00
C289   C     0.56290   0.69321   0.16721   0.00000  Uiso   1.00
C290   C     0.50000   0.71036   0.31108   0.00000  Uiso   1.00
C291   C     0.50000   0.71028   0.02503   0.00000  Uiso   1.00
C292   C     0.50000   0.78972   0.30831   0.00000  Uiso   1.00
C293   C     0.75000   0.53964   0.02226   0.00000  Uiso   1.00
C294   C     0.75000   0.96036   0.31108   0.00000  Uiso   1.00
C295   C     0.75000   0.96028   0.02503   0.00000  Uiso   1.00
C296   C     0.75000   0.53972   0.30831   0.00000  Uiso   1.00
C297   C     0.88160   0.65179   0.12736   0.00000  Uiso   1.00
C298   C     0.61839   0.84822   0.20597   0.00000  Uiso   1.00
C299   C     0.60996   0.86125   0.12483   0.00000  Uiso   1.00
C300   C     0.93710   0.80679   0.16613   0.00000  Uiso   1.00
C301   C     0.89005   0.63875   0.20850   0.00000  Uiso   1.00
C302   C     0.60996   0.63875   0.20850   0.00000  Uiso   1.00
C303   C     0.89005   0.86125   0.12484   0.00000  Uiso   1.00
C304   C     0.88160   0.84821   0.20597   0.00000  Uiso   1.00
C305   C     0.61840   0.65179   0.12736   0.00000  Uiso   1.00
C306   C     0.63160   0.90179   0.12736   0.00000  Uiso   1.00
C307   C     0.86840   0.59821   0.20597   0.00000  Uiso   1.00
C308   C     0.85995   0.61125   0.12484   0.00000  Uiso   1.00
C309   C     0.64004   0.88875   0.20850   0.00000  Uiso   1.00
C310   C     0.85995   0.88875   0.20850   0.00000  Uiso   1.00
C311   C     0.93710   0.69321   0.16721   0.00000  Uiso   1.00
C312   C     0.64004   0.61125   0.12483   0.00000  Uiso   1.00
C313   C     0.63160   0.59821   0.20597   0.00000  Uiso   1.00
C314   C     0.86840   0.90179   0.12736   0.00000  Uiso   1.00
C315   C     0.59951   0.83700   0.16498   0.00000  Uiso   1.00
C316   C     0.90049   0.66300   0.16835   0.00000  Uiso   1.00
C317   C     0.90049   0.83700   0.16498   0.00000  Uiso   1.00
C318   C     0.59951   0.66300   0.16835   0.00000  Uiso   1.00
C319   C     0.84951   0.58700   0.16498   0.00000  Uiso   1.00
C320   C     0.65049   0.91300   0.16835   0.00000  Uiso   1.00
C321   C     0.65048   0.58700   0.16498   0.00000  Uiso   1.00
C322   C     0.56290   0.80679   0.16613   0.00000  Uiso   1.00
C323   C     0.84951   0.91300   0.16835   0.00000  Uiso   1.00
C324   C     0.81290   0.94321   0.16721   0.00000  Uiso   1.00
C325   C     0.68710   0.55679   0.16613   0.00000  Uiso   1.00
C326   C     0.68710   0.94321   0.16721   0.00000  Uiso   1.00
C327   C     0.81290   0.55679   0.16613   0.00000  Uiso   1.00
C328   C     0.50000   0.78964   0.02226   0.00000  Uiso   1.00
H329   H     0.50000   0.82649   0.07414   0.00000  Uiso   1.00
H330   H     0.50000   0.67351   0.25919   0.00000  Uiso   1.00
H331   H     0.50000   0.67234   0.07919   0.00000  Uiso   1.00
H332   H     0.50000   0.82766   0.25414   0.00000  Uiso   1.00
H333   H     0.75000   0.57649   0.07414   0.00000  Uiso   1.00
H334   H     0.75000   0.92351   0.25919   0.00000  Uiso   1.00
H335   H     0.75000   0.92234   0.07919   0.00000  Uiso   1.00
H336   H     0.75000   0.57766   0.25414   0.00000  Uiso   1.00
I337   I     0.87694   0.69954   0.07138   0.00000  Uiso   1.00
I338   I     0.87306   0.55046   0.26195   0.00000  Uiso   1.00
I339   I     0.85484   0.58343   0.05966   0.00000  Uiso   1.00
I340   I     0.64516   0.91658   0.27367   0.00000  Uiso   1.00
I341   I     0.85484   0.91657   0.27367   0.00000  Uiso   1.00
I342   I     0.64516   0.58342   0.05966   0.00000  Uiso   1.00
I343   I     0.62695   0.55047   0.26196   0.00000  Uiso   1.00
I344   I     0.87306   0.94954   0.07138   0.00000  Uiso   1.00
I345   I     0.62305   0.80047   0.26196   0.00000  Uiso   1.00
I346   I     0.60484   0.83342   0.05966   0.00000  Uiso   1.00
I347   I     0.89516   0.66657   0.27367   0.00000  Uiso   1.00
I348   I     0.60484   0.66658   0.27367   0.00000  Uiso   1.00
I349   I     0.89516   0.83344   0.05966   0.00000  Uiso   1.00
I350   I     0.87694   0.80046   0.26195   0.00000  Uiso   1.00
I351   I     0.62305   0.69953   0.07137   0.00000  Uiso   1.00
I352   I     0.62695   0.94953   0.07137   0.00000  Uiso   1.00
N353   N     0.50000   0.75000   0.28573   0.00000  Uiso   1.00
N354   N     0.50000   0.75000   0.04760   0.00000  Uiso   1.00
N355   N     0.75000   0.50000   0.28573   0.00000  Uiso   1.00
N356   N     0.75000   0.50000   0.04760   0.00000  Uiso   1.00
O357   O     0.54580   0.70419   0.20487   0.00000  Uiso   1.00
O358   O     0.70419   0.54581   0.12846   0.00000  Uiso   1.00
O359   O     0.70419   0.54581   0.20487   0.00000  Uiso   1.00
O360   O     0.79580   0.95419   0.12846   0.00000  Uiso   1.00
O361   O     0.70419   0.95419   0.12846   0.00000  Uiso   1.00
O362   O     0.79580   0.54581   0.20487   0.00000  Uiso   1.00
O363   O     0.79580   0.54581   0.12846   0.00000  Uiso   1.00
O364   O     0.70419   0.95419   0.20487   0.00000  Uiso   1.00
O365   O     0.50000   0.83104   0.04144   0.00000  Uiso   1.00
O366   O     0.50000   0.66896   0.29189   0.00000  Uiso   1.00
O367   O     0.50000   0.66857   0.04682   0.00000  Uiso   1.00
O368   O     0.95419   0.79581   0.12846   0.00000  Uiso   1.00
O369   O     0.50000   0.83143   0.28651   0.00000  Uiso   1.00
O370   O     0.75000   0.58104   0.04144   0.00000  Uiso   1.00
O371   O     0.75000   0.91896   0.29189   0.00000  Uiso   1.00
O372   O     0.75000   0.91857   0.04682   0.00000  Uiso   1.00
O373   O     0.75000   0.58143   0.28651   0.00000  Uiso   1.00
O374   O     0.95419   0.79581   0.20487   0.00000  Uiso   1.00
O375   O     0.54580   0.70419   0.12846   0.00000  Uiso   1.00
O376   O     0.95419   0.70419   0.12846   0.00000  Uiso   1.00
O377   O     0.54580   0.79581   0.20487   0.00000  Uiso   1.00
O378   O     0.54580   0.79581   0.12846   0.00000  Uiso   1.00
O379   O     0.95419   0.70419   0.20487   0.00000  Uiso   1.00
O380   O     0.79580   0.95419   0.20487   0.00000  Uiso   1.00
Zn381  Zn    0.50000   0.75000   0.21771   0.00000  Uiso   1.00
Zn382  Zn    0.50000   0.75000   0.11563   0.00000  Uiso   1.00
Zn383  Zn    0.75000   0.50000   0.21771   0.00000  Uiso   1.00
Zn384  Zn    0.75000   0.50000   0.11563   0.00000  Uiso   1.00
C385   C     0.06290   0.19321   0.50054   0.00000  Uiso   1.00
C386   C     0.00000   0.21036   0.64441   0.00000  Uiso   1.00
C387   C    -0.00000   0.21028   0.35836   0.00000  Uiso   1.00
C388   C     0.00000   0.28972   0.64164   0.00000  Uiso   1.00
C389   C     0.25000   0.03964   0.35559   0.00000  Uiso   1.00
C390   C     0.25000   0.46036   0.64441   0.00000  Uiso   1.00
C391   C     0.25000   0.46028   0.35836   0.00000  Uiso   1.00
C392   C     0.25000   0.03972   0.64164   0.00000  Uiso   1.00
C393   C     0.38160   0.15179   0.46070   0.00000  Uiso   1.00
C394   C     0.11839   0.34822   0.53931   0.00000  Uiso   1.00
C395   C     0.10996   0.36125   0.45817   0.00000  Uiso   1.00
C396   C     0.43710   0.30679   0.49946   0.00000  Uiso   1.00
C397   C     0.39005   0.13875   0.54183   0.00000  Uiso   1.00
C398   C     0.10996   0.13875   0.54183   0.00000  Uiso   1.00
C399   C     0.39005   0.36125   0.45817   0.00000  Uiso   1.00
C400   C     0.38160   0.34821   0.53930   0.00000  Uiso   1.00
C401   C     0.11840   0.15179   0.46069   0.00000  Uiso   1.00
C402   C     0.13160   0.40179   0.46069   0.00000  Uiso   1.00
C403   C     0.36840   0.09821   0.53931   0.00000  Uiso   1.00
C404   C     0.35995   0.11125   0.45817   0.00000  Uiso   1.00
C405   C     0.14004   0.38875   0.54183   0.00000  Uiso   1.00
C406   C     0.35995   0.38875   0.54183   0.00000  Uiso   1.00
C407   C     0.43710   0.19321   0.50054   0.00000  Uiso   1.00
C408   C     0.14004   0.11125   0.45817   0.00000  Uiso   1.00
C409   C     0.13160   0.09821   0.53931   0.00000  Uiso   1.00
C410   C     0.36840   0.40179   0.46070   0.00000  Uiso   1.00
C411   C     0.09951   0.33700   0.49831   0.00000  Uiso   1.00
C412   C     0.40049   0.16300   0.50169   0.00000  Uiso   1.00
C413   C     0.40049   0.33700   0.49831   0.00000  Uiso   1.00
C414   C     0.09951   0.16300   0.50169   0.00000  Uiso   1.00
C415   C     0.34951   0.08700   0.49831   0.00000  Uiso   1.00
C416   C     0.15049   0.41300   0.50169   0.00000  Uiso   1.00
C417   C     0.15048   0.08700   0.49831   0.00000  Uiso   1.00
C418   C     0.06290   0.30679   0.49946   0.00000  Uiso   1.00
C419   C     0.34951   0.41300   0.50169   0.00000  Uiso   1.00
C420   C     0.31290   0.44321   0.50054   0.00000  Uiso   1.00
C421   C     0.18710   0.05679   0.49946   0.00000  Uiso   1.00
C422   C     0.18710   0.44321   0.50054   0.00000  Uiso   1.00
C423   C     0.31290   0.05679   0.49946   0.00000  Uiso   1.00
C424   C     0.00000   0.28964   0.35559   0.00000  Uiso   1.00
H425   H     0.00000   0.32649   0.40747   0.00000  Uiso   1.00
H426   H     0.00000   0.17351   0.59253   0.00000  Uiso   1.00
H427   H     0.00000   0.17234   0.41252   0.00000  Uiso   1.00
H428   H    -0.00000   0.32766   0.58748   0.00000  Uiso   1.00
H429   H     0.25000   0.07649   0.40747   0.00000  Uiso   1.00
H430   H     0.25000   0.42351   0.59253   0.00000  Uiso   1.00
H431   H     0.25000   0.42234   0.41252   0.00000  Uiso   1.00
H432   H     0.25000   0.07766   0.58748   0.00000  Uiso   1.00
I433   I     0.37694   0.19954   0.40471   0.00000  Uiso   1.00
I434   I     0.37306   0.05046   0.59529   0.00000  Uiso   1.00
I435   I     0.35484   0.08343   0.39300   0.00000  Uiso   1.00
I436   I     0.14516   0.41658   0.60700   0.00000  Uiso   1.00
I437   I     0.35484   0.41657   0.60700   0.00000  Uiso   1.00
I438   I     0.14516   0.08342   0.39300   0.00000  Uiso   1.00
I439   I     0.12695   0.05047   0.59530   0.00000  Uiso   1.00
I440   I     0.37306   0.44954   0.40471   0.00000  Uiso   1.00
I441   I     0.12305   0.30047   0.59530   0.00000  Uiso   1.00
I442   I     0.10484   0.33342   0.39300   0.00000  Uiso   1.00
I443   I     0.39516   0.16657   0.60700   0.00000  Uiso   1.00
I444   I     0.10484   0.16658   0.60700   0.00000  Uiso   1.00
I445   I     0.39516   0.33344   0.39300   0.00000  Uiso   1.00
I446   I     0.37694   0.30046   0.59529   0.00000  Uiso   1.00
I447   I     0.12305   0.19953   0.40471   0.00000  Uiso   1.00
I448   I     0.12695   0.44953   0.40470   0.00000  Uiso   1.00
N449   N     0.00000   0.25000   0.61907   0.00000  Uiso   1.00
N450   N     0.00000   0.25000   0.38093   0.00000  Uiso   1.00
N451   N     0.25000   0.00000   0.61907   0.00000  Uiso   1.00
N452   N     0.25000   0.00000   0.38093   0.00000  Uiso   1.00
O453   O     0.04580   0.20419   0.53821   0.00000  Uiso   1.00
O454   O     0.20419   0.04581   0.46179   0.00000  Uiso   1.00
O455   O     0.20419   0.04581   0.53821   0.00000  Uiso   1.00
O456   O     0.29580   0.45419   0.46179   0.00000  Uiso   1.00
O457   O     0.20419   0.45419   0.46179   0.00000  Uiso   1.00
O458   O     0.29580   0.04581   0.53821   0.00000  Uiso   1.00
O459   O     0.29580   0.04581   0.46179   0.00000  Uiso   1.00
O460   O     0.20419   0.45419   0.53821   0.00000  Uiso   1.00
O461   O     0.00000   0.33104   0.37478   0.00000  Uiso   1.00
O462   O     0.00000   0.16896   0.62522   0.00000  Uiso   1.00
O463   O    -0.00000   0.16857   0.38015   0.00000  Uiso   1.00
O464   O     0.45419   0.29581   0.46179   0.00000  Uiso   1.00
O465   O     0.00000   0.33143   0.61985   0.00000  Uiso   1.00
O466   O     0.25000   0.08104   0.37478   0.00000  Uiso   1.00
O467   O     0.25000   0.41896   0.62522   0.00000  Uiso   1.00
O468   O     0.25000   0.41857   0.38015   0.00000  Uiso   1.00
O469   O     0.25000   0.08143   0.61985   0.00000  Uiso   1.00
O470   O     0.45419   0.29581   0.53821   0.00000  Uiso   1.00
O471   O     0.04580   0.20419   0.46179   0.00000  Uiso   1.00
O472   O     0.45419   0.20419   0.46179   0.00000  Uiso   1.00
O473   O     0.04580   0.29581   0.53821   0.00000  Uiso   1.00
O474   O     0.04580   0.29581   0.46179   0.00000  Uiso   1.00
O475   O     0.45419   0.20419   0.53821   0.00000  Uiso   1.00
O476   O     0.29580   0.45419   0.53821   0.00000  Uiso   1.00
Zn477  Zn   -0.00000   0.25000   0.55104   0.00000  Uiso   1.00
Zn478  Zn   -0.00000   0.25000   0.44896   0.00000  Uiso   1.00
Zn479  Zn    0.25000   0.00000   0.55104   0.00000  Uiso   1.00
Zn480  Zn    0.25000   0.00000   0.44896   0.00000  Uiso   1.00
C481   C     0.56290   0.19321   0.50054   0.00000  Uiso   1.00
C482   C     0.50000   0.21036   0.64441   0.00000  Uiso   1.00
C483   C     0.50000   0.21028   0.35836   0.00000  Uiso   1.00
C484   C     0.50000   0.28972   0.64164   0.00000  Uiso   1.00
C485   C     0.75000   0.03964   0.35559   0.00000  Uiso   1.00
C486   C     0.75000   0.46036   0.64441   0.00000  Uiso   1.00
C487   C     0.75000   0.46028   0.35836   0.00000  Uiso   1.00
C488   C     0.75000   0.03972   0.64164   0.00000  Uiso   1.00
C489   C     0.88160   0.15179   0.46070   0.00000  Uiso   1.00
C490   C     0.61839   0.34822   0.53931   0.00000  Uiso   1.00
C491   C     0.60996   0.36125   0.45817   0.00000  Uiso   1.00
C492   C     0.93710   0.30679   0.49946   0.00000  Uiso   1.00
C493   C     0.89005   0.13875   0.54183   0.00000  Uiso   1.00
C494   C     0.60996   0.13875   0.54183   0.00000  Uiso   1.00
C495   C     0.89005   0.36125   0.45817   0.00000  Uiso   1.00
C496   C     0.88160   0.34821   0.53930   0.00000  Uiso   1.00
C497   C     0.61840   0.15179   0.46069   0.00000  Uiso   1.00
C498   C     0.63160   0.40179   0.46069   0.00000  Uiso   1.00
C499   C     0.86840   0.09821   0.53931   0.00000  Uiso   1.00
C500   C     0.85995   0.11125   0.45817   0.00000  Uiso   1.00
C501   C     0.64004   0.38875   0.54183   0.00000  Uiso   1.00
C502   C     0.85995   0.38875   0.54183   0.00000  Uiso   1.00
C503   C     0.93710   0.19321   0.50054   0.00000  Uiso   1.00
C504   C     0.64004   0.11125   0.45817   0.00000  Uiso   1.00
C505   C     0.63160   0.09821   0.53931   0.00000  Uiso   1.00
C506   C     0.86840   0.40179   0.46070   0.00000  Uiso   1.00
C507   C     0.59951   0.33700   0.49831   0.00000  Uiso   1.00
C508   C     0.90049   0.16300   0.50169   0.00000  Uiso   1.00
C509   C     0.90049   0.33700   0.49831   0.00000  Uiso   1.00
C510   C     0.59951   0.16300   0.50169   0.00000  Uiso   1.00
C511   C     0.84951   0.08700   0.49831   0.00000  Uiso   1.00
C512   C     0.65049   0.41300   0.50169   0.00000  Uiso   1.00
C513   C     0.65048   0.08700   0.49831   0.00000  Uiso   1.00
C514   C     0.56290   0.30679   0.49946   0.00000  Uiso   1.00
C515   C     0.84951   0.41300   0.50169   0.00000  Uiso   1.00
C516   C     0.81290   0.44321   0.50054   0.00000  Uiso   1.00
C517   C     0.68710   0.05679   0.49946   0.00000  Uiso   1.00
C518   C     0.68710   0.44321   0.50054   0.00000  Uiso   1.00
C519   C     0.81290   0.05679   0.49946   0.00000  Uiso   1.00
C520   C     0.50000   0.28964   0.35559   0.00000  Uiso   1.00
H521   H     0.50000   0.32649   0.40747   0.00000  Uiso   1.00
H522   H     0.50000   0.17351   0.59253   0.00000  Uiso   1.00
H523   H     0.50000   0.17234   0.41252   0.00000  Uiso   1.00
H524   H     0.50000   0.32766   0.58748   0.00000  Uiso   1.00
H525   H     0.75000   0.07649   0.40747   0.00000  Uiso   1.00
H526   H     0.75000   0.42351   0.59253   0.00000  Uiso   1.00
H527   H     0.75000   0.42234   0.41252   0.00000  Uiso   1.00
H528   H     0.75000   0.07766   0.58748   0.00000  Uiso   1.00
I529   I     0.87694   0.19954   0.40471   0.00000  Uiso   1.00
I530   I     0.87306   0.05046   0.59529   0.00000  Uiso   1.00
I531   I     0.85484   0.08343   0.39300   0.00000  Uiso   1.00
I532   I     0.64516   0.41658   0.60700   0.00000  Uiso   1.00
I533   I     0.85484   0.41657   0.60700   0.00000  Uiso   1.00
I534   I     0.64516   0.08342   0.39300   0.00000  Uiso   1.00
I535   I     0.62695   0.05047   0.59530   0.00000  Uiso   1.00
I536   I     0.87306   0.44954   0.40471   0.00000  Uiso   1.00
I537   I     0.62305   0.30047   0.59530   0.00000  Uiso   1.00
I538   I     0.60484   0.33342   0.39300   0.00000  Uiso   1.00
I539   I     0.89516   0.16657   0.60700   0.00000  Uiso   1.00
I540   I     0.60484   0.16658   0.60700   0.00000  Uiso   1.00
I541   I     0.89516   0.33344   0.39300   0.00000  Uiso   1.00
I542   I     0.87694   0.30046   0.59529   0.00000  Uiso   1.00
I543   I     0.62305   0.19953   0.40471   0.00000  Uiso   1.00
I544   I     0.62695   0.44953   0.40470   0.00000  Uiso   1.00
N545   N     0.50000   0.25000   0.61907   0.00000  Uiso   1.00
N546   N     0.50000   0.25000   0.38093   0.00000  Uiso   1.00
N547   N     0.75000   0.00000   0.61907   0.00000  Uiso   1.00
N548   N     0.75000   0.00000   0.38093   0.00000  Uiso   1.00
O549   O     0.54580   0.20419   0.53821   0.00000  Uiso   1.00
O550   O     0.70419   0.04581   0.46179   0.00000  Uiso   1.00
O551   O     0.70419   0.04581   0.53821   0.00000  Uiso   1.00
O552   O     0.79580   0.45419   0.46179   0.00000  Uiso   1.00
O553   O     0.70419   0.45419   0.46179   0.00000  Uiso   1.00
O554   O     0.79580   0.04581   0.53821   0.00000  Uiso   1.00
O555   O     0.79580   0.04581   0.46179   0.00000  Uiso   1.00
O556   O     0.70419   0.45419   0.53821   0.00000  Uiso   1.00
O557   O     0.50000   0.33104   0.37478   0.00000  Uiso   1.00
O558   O     0.50000   0.16896   0.62522   0.00000  Uiso   1.00
O559   O     0.50000   0.16857   0.38015   0.00000  Uiso   1.00
O560   O     0.95419   0.29581   0.46179   0.00000  Uiso   1.00
O561   O     0.50000   0.33143   0.61985   0.00000  Uiso   1.00
O562   O     0.75000   0.08104   0.37478   0.00000  Uiso   1.00
O563   O     0.75000   0.41896   0.62522   0.00000  Uiso   1.00
O564   O     0.75000   0.41857   0.38015   0.00000  Uiso   1.00
O565   O     0.75000   0.08143   0.61985   0.00000  Uiso   1.00
O566   O     0.95419   0.29581   0.53821   0.00000  Uiso   1.00
O567   O     0.54580   0.20419   0.46179   0.00000  Uiso   1.00
O568   O     0.95419   0.20419   0.46179   0.00000  Uiso   1.00
O569   O     0.54580   0.29581   0.53821   0.00000  Uiso   1.00
O570   O     0.54580   0.29581   0.46179   0.00000  Uiso   1.00
O571   O     0.95419   0.20419   0.53821   0.00000  Uiso   1.00
O572   O     0.79580   0.45419   0.53821   0.00000  Uiso   1.00
Zn573  Zn    0.50000   0.25000   0.55104   0.00000  Uiso   1.00
Zn574  Zn    0.50000   0.25000   0.44896   0.00000  Uiso   1.00
Zn575  Zn    0.75000   0.00000   0.55104   0.00000  Uiso   1.00
Zn576  Zn    0.75000   0.00000   0.44896   0.00000  Uiso   1.00
C577   C     0.06290   0.69321   0.50054   0.00000  Uiso   1.00
C578   C     0.00000   0.71036   0.64441   0.00000  Uiso   1.00
C579   C    -0.00000   0.71028   0.35836   0.00000  Uiso   1.00
C580   C     0.00000   0.78972   0.64164   0.00000  Uiso   1.00
C581   C     0.25000   0.53964   0.35559   0.00000  Uiso   1.00
C582   C     0.25000   0.96036   0.64441   0.00000  Uiso   1.00
C583   C     0.25000   0.96028   0.35836   0.00000  Uiso   1.00
C584   C     0.25000   0.53972   0.64164   0.00000  Uiso   1.00
C585   C     0.38160   0.65179   0.46070   0.00000  Uiso   1.00
C586   C     0.11839   0.84822   0.53931   0.00000  Uiso   1.00
C587   C     0.10996   0.86125   0.45817   0.00000  Uiso   1.00
C588   C     0.43710   0.80679   0.49946   0.00000  Uiso   1.00
C589   C     0.39005   0.63875   0.54183   0.00000  Uiso   1.00
C590   C     0.10996   0.63875   0.54183   0.00000  Uiso   1.00
C591   C     0.39005   0.86125   0.45817   0.00000  Uiso   1.00
C592   C     0.38160   0.84821   0.53930   0.00000  Uiso   1.00
C593   C     0.11840   0.65179   0.46069   0.00000  Uiso   1.00
C594   C     0.13160   0.90179   0.46069   0.00000  Uiso   1.00
C595   C     0.36840   0.59821   0.53931   0.00000  Uiso   1.00
C596   C     0.35995   0.61125   0.45817   0.00000  Uiso   1.00
C597   C     0.14004   0.88875   0.54183   0.00000  Uiso   1.00
C598   C     0.35995   0.88875   0.54183   0.00000  Uiso   1.00
C599   C     0.43710   0.69321   0.50054   0.00000  Uiso   1.00
C600   C     0.14004   0.61125   0.45817   0.00000  Uiso   1.00
C601   C     0.13160   0.59821   0.53931   0.00000  Uiso   1.00
C602   C     0.36840   0.90179   0.46070   0.00000  Uiso   1.00
C603   C     0.09951   0.83700   0.49831   0.00000  Uiso   1.00
C604   C     0.40049   0.66300   0.50169   0.00000  Uiso   1.00
C605   C     0.40049   0.83700   0.49831   0.00000  Uiso   1.00
C606   C     0.09951   0.66300   0.50169   0.00000  Uiso   1.00
C607   C     0.34951   0.58700   0.49831   0.00000  Uiso   1.00
C608   C     0.15049   0.91300   0.50169   0.00000  Uiso   1.00
C609   C     0.15048   0.58700   0.49831   0.00000  Uiso   1.00
C610   C     0.06290   0.80679   0.49946   0.00000  Uiso   1.00
C611   C     0.34951   0.91300   0.50169   0.00000  Uiso   1.00
C612   C     0.31290   0.94321   0.50054   0.00000  Uiso   1.00
C613   C     0.18710   0.55679   0.49946   0.00000  Uiso   1.00
C614   C     0.18710   0.94321   0.50054   0.00000  Uiso   1.00
C615   C     0.31290   0.55679   0.49946   0.00000  Uiso   1.00
C616   C     0.00000   0.78964   0.35559   0.00000  Uiso   1.00
H617   H     0.00000   0.82649   0.40747   0.00000  Uiso   1.00
H618   H     0.00000   0.67351   0.59253   0.00000  Uiso   1.00
H619   H     0.00000   0.67234   0.41252   0.00000  Uiso   1.00
H620   H    -0.00000   0.82766   0.58748   0.00000  Uiso   1.00
H621   H     0.25000   0.57649   0.40747   0.00000  Uiso   1.00
H622   H     0.25000   0.92351   0.59253   0.00000  Uiso   1.00
H623   H     0.25000   0.92234   0.41252   0.00000  Uiso   1.00
H624   H     0.25000   0.57766   0.58748   0.00000  Uiso   1.00
I625   I     0.37694   0.69954   0.40471   0.00000  Uiso   1.00
I626   I     0.37306   0.55046   0.59529   0.00000  Uiso   1.00
I627   I     0.35484   0.58343   0.39300   0.00000  Uiso   1.00
I628   I     0.14516   0.91658   0.60700   0.00000  Uiso   1.00
I629   I     0.35484   0.91657   0.60700   0.00000  Uiso   1.00
I630   I     0.14516   0.58342   0.39300   0.00000  Uiso   1.00
I631   I     0.12695   0.55047   0.59530   0.00000  Uiso   1.00
I632   I     0.37306   0.94954   0.40471   0.00000  Uiso   1.00
I633   I     0.12305   0.80047   0.59530   0.00000  Uiso   1.00
I634   I     0.10484   0.83342   0.39300   0.00000  Uiso   1.00
I635   I     0.39516   0.66657   0.60700   0.00000  Uiso   1.00
I636   I     0.10484   0.66658   0.60700   0.00000  Uiso   1.00
I637   I     0.39516   0.83344   0.39300   0.00000  Uiso   1.00
I638   I     0.37694   0.80046   0.59529   0.00000  Uiso   1.00
I639   I     0.12305   0.69953   0.40471   0.00000  Uiso   1.00
I640   I     0.12695   0.94953   0.40470   0.00000  Uiso   1.00
N641   N     0.00000   0.75000   0.61907   0.00000  Uiso   1.00
N642   N     0.00000   0.75000   0.38093   0.00000  Uiso   1.00
N643   N     0.25000   0.50000   0.61907   0.00000  Uiso   1.00
N644   N     0.25000   0.50000   0.38093   0.00000  Uiso   1.00
O645   O     0.04580   0.70419   0.53821   0.00000  Uiso   1.00
O646   O     0.20419   0.54581   0.46179   0.00000  Uiso   1.00
O647   O     0.20419   0.54581   0.53821   0.00000  Uiso   1.00
O648   O     0.29580   0.95419   0.46179   0.00000  Uiso   1.00
O649   O     0.20419   0.95419   0.46179   0.00000  Uiso   1.00
O650   O     0.29580   0.54581   0.53821   0.00000  Uiso   1.00
O651   O     0.29580   0.54581   0.46179   0.00000  Uiso   1.00
O652   O     0.20419   0.95419   0.53821   0.00000  Uiso   1.00
O653   O     0.00000   0.83104   0.37478   0.00000  Uiso   1.00
O654   O     0.00000   0.66896   0.62522   0.00000  Uiso   1.00
O655   O    -0.00000   0.66857   0.38015   0.00000  Uiso   1.00
O656   O     0.45419   0.79581   0.46179   0.00000  Uiso   1.00
O657   O     0.00000   0.83143   0.61985   0.00000  Uiso   1.00
O658   O     0.25000   0.58104   0.37478   0.00000  Uiso   1.00
O659   O     0.25000   0.91896   0.62522   0.00000  Uiso   1.00
O660   O     0.25000   0.91857   0.38015   0.00000  Uiso   1.00
O661   O     0.25000   0.58143   0.61985   0.00000  Uiso   1.00
O662   O     0.45419   0.79581   0.53821   0.00000  Uiso   1.00
O663   O     0.04580   0.70419   0.46179   0.00000  Uiso   1.00
O664   O     0.45419   0.70419   0.46179   0.00000  Uiso   1.00
O665   O     0.04580   0.79581   0.53821   0.00000  Uiso   1.00
O666   O     0.04580   0.79581   0.46179   0.00000  Uiso   1.00
O667   O     0.45419   0.70419   0.53821   0.00000  Uiso   1.00
O668   O     0.29580   0.95419   0.53821   0.00000  Uiso   1.00
Zn669  Zn   -0.00000   0.75000   0.55104   0.00000  Uiso   1.00
Zn670  Zn   -0.00000   0.75000   0.44896   0.00000  Uiso   1.00
Zn671  Zn    0.25000   0.50000   0.55104   0.00000  Uiso   1.00
Zn672  Zn    0.25000   0.50000   0.44896   0.00000  Uiso   1.00
C673   C     0.56290   0.69321   0.50054   0.00000  Uiso   1.00
C674   C     0.50000   0.71036   0.64441   0.00000  Uiso   1.00
C675   C     0.50000   0.71028   0.35836   0.00000  Uiso   1.00
C676   C     0.50000   0.78972   0.64164   0.00000  Uiso   1.00
C677   C     0.75000   0.53964   0.35559   0.00000  Uiso   1.00
C678   C     0.75000   0.96036   0.64441   0.00000  Uiso   1.00
C679   C     0.75000   0.96028   0.35836   0.00000  Uiso   1.00
C680   C     0.75000   0.53972   0.64164   0.00000  Uiso   1.00
C681   C     0.88160   0.65179   0.46070   0.00000  Uiso   1.00
C682   C     0.61839   0.84822   0.53931   0.00000  Uiso   1.00
C683   C     0.60996   0.86125   0.45817   0.00000  Uiso   1.00
C684   C     0.93710   0.80679   0.49946   0.00000  Uiso   1.00
C685   C     0.89005   0.63875   0.54183   0.00000  Uiso   1.00
C686   C     0.60996   0.63875   0.54183   0.00000  Uiso   1.00
C687   C     0.89005   0.86125   0.45817   0.00000  Uiso   1.00
C688   C     0.88160   0.84821   0.53930   0.00000  Uiso   1.00
C689   C     0.61840   0.65179   0.46069   0.00000  Uiso   1.00
C690   C     0.63160   0.90179   0.46069   0.00000  Uiso   1.00
C691   C     0.86840   0.59821   0.53931   0.00000  Uiso   1.00
C692   C     0.85995   0.61125   0.45817   0.00000  Uiso   1.00
C693   C     0.64004   0.88875   0.54183   0.00000  Uiso   1.00
C694   C     0.85995   0.88875   0.54183   0.00000  Uiso   1.00
C695   C     0.93710   0.69321   0.50054   0.00000  Uiso   1.00
C696   C     0.64004   0.61125   0.45817   0.00000  Uiso   1.00
C697   C     0.63160   0.59821   0.53931   0.00000  Uiso   1.00
C698   C     0.86840   0.90179   0.46070   0.00000  Uiso   1.00
C699   C     0.59951   0.83700   0.49831   0.00000  Uiso   1.00
C700   C     0.90049   0.66300   0.50169   0.00000  Uiso   1.00
C701   C     0.90049   0.83700   0.49831   0.00000  Uiso   1.00
C702   C     0.59951   0.66300   0.50169   0.00000  Uiso   1.00
C703   C     0.84951   0.58700   0.49831   0.00000  Uiso   1.00
C704   C     0.65049   0.91300   0.50169   0.00000  Uiso   1.00
C705   C     0.65048   0.58700   0.49831   0.00000  Uiso   1.00
C706   C     0.56290   0.80679   0.49946   0.00000  Uiso   1.00
C707   C     0.84951   0.91300   0.50169   0.00000  Uiso   1.00
C708   C     0.81290   0.94321   0.50054   0.00000  Uiso   1.00
C709   C     0.68710   0.55679   0.49946   0.00000  Uiso   1.00
C710   C     0.68710   0.94321   0.50054   0.00000  Uiso   1.00
C711   C     0.81290   0.55679   0.49946   0.00000  Uiso   1.00
C712   C     0.50000   0.78964   0.35559   0.00000  Uiso   1.00
H713   H     0.50000   0.82649   0.40747   0.00000  Uiso   1.00
H714   H     0.50000   0.67351   0.59253   0.00000  Uiso   1.00
H715   H     0.50000   0.67234   0.41252   0.00000  Uiso   1.00
H716   H     0.50000   0.82766   0.58748   0.00000  Uiso   1.00
H717   H     0.75000   0.57649   0.40747   0.00000  Uiso   1.00
H718   H     0.75000   0.92351   0.59253   0.00000  Uiso   1.00
H719   H     0.75000   0.92234   0.41252   0.00000  Uiso   1.00
H720   H     0.75000   0.57766   0.58748   0.00000  Uiso   1.00
I721   I     0.87694   0.69954   0.40471   0.00000  Uiso   1.00
I722   I     0.87306   0.55046   0.59529   0.00000  Uiso   1.00
I723   I     0.85484   0.58343   0.39300   0.00000  Uiso   1.00
I724   I     0.64516   0.91658   0.60700   0.00000  Uiso   1.00
I725   I     0.85484   0.91657   0.60700   0.00000  Uiso   1.00
I726   I     0.64516   0.58342   0.39300   0.00000  Uiso   1.00
I727   I     0.62695   0.55047   0.59530   0.00000  Uiso   1.00
I728   I     0.87306   0.94954   0.40471   0.00000  Uiso   1.00
I729   I     0.62305   0.80047   0.59530   0.00000  Uiso   1.00
I730   I     0.60484   0.83342   0.39300   0.00000  Uiso   1.00
I731   I     0.89516   0.66657   0.60700   0.00000  Uiso   1.00
I732   I     0.60484   0.66658   0.60700   0.00000  Uiso   1.00
I733   I     0.89516   0.83344   0.39300   0.00000  Uiso   1.00
I734   I     0.87694   0.80046   0.59529   0.00000  Uiso   1.00
I735   I     0.62305   0.69953   0.40471   0.00000  Uiso   1.00
I736   I     0.62695   0.94953   0.40470   0.00000  Uiso   1.00
N737   N     0.50000   0.75000   0.61907   0.00000  Uiso   1.00
N738   N     0.50000   0.75000   0.38093   0.00000  Uiso   1.00
N739   N     0.75000   0.50000   0.61907   0.00000  Uiso   1.00
N740   N     0.75000   0.50000   0.38093   0.00000  Uiso   1.00
O741   O     0.54580   0.70419   0.53821   0.00000  Uiso   1.00
O742   O     0.70419   0.54581   0.46179   0.00000  Uiso   1.00
O743   O     0.70419   0.54581   0.53821   0.00000  Uiso   1.00
O744   O     0.79580   0.95419   0.46179   0.00000  Uiso   1.00
O745   O     0.70419   0.95419   0.46179   0.00000  Uiso   1.00
O746   O     0.79580   0.54581   0.53821   0.00000  Uiso   1.00
O747   O     0.79580   0.54581   0.46179   0.00000  Uiso   1.00
O748   O     0.70419   0.95419   0.53821   0.00000  Uiso   1.00
O749   O     0.50000   0.83104   0.37478   0.00000  Uiso   1.00
O750   O     0.50000   0.66896   0.62522   0.00000  Uiso   1.00
O751   O     0.50000   0.66857   0.38015   0.00000  Uiso   1.00
O752   O     0.95419   0.79581   0.46179   0.00000  Uiso   1.00
O753   O     0.50000   0.83143   0.61985   0.00000  Uiso   1.00
O754   O     0.75000   0.58104   0.37478   0.00000  Uiso   1.00
O755   O     0.75000   0.91896   0.62522   0.00000  Uiso   1.00
O756   O     0.75000   0.91857   0.38015   0.00000  Uiso   1.00
O757   O     0.75000   0.58143   0.61985   0.00000  Uiso   1.00
O758   O     0.95419   0.79581   0.53821   0.00000  Uiso   1.00
O759   O     0.54580   0.70419   0.46179   0.00000  Uiso   1.00
O760   O     0.95419   0.70419   0.46179   0.00000  Uiso   1.00
O761   O     0.54580   0.79581   0.53821   0.00000  Uiso   1.00
O762   O     0.54580   0.79581   0.46179   0.00000  Uiso   1.00
O763   O     0.95419   0.70419   0.53821   0.00000  Uiso   1.00
O764   O     0.79580   0.95419   0.53821   0.00000  Uiso   1.00
Zn765  Zn    0.50000   0.75000   0.55104   0.00000  Uiso   1.00
Zn766  Zn    0.50000   0.75000   0.44896   0.00000  Uiso   1.00
Zn767  Zn    0.75000   0.50000   0.55104   0.00000  Uiso   1.00
Zn768  Zn    0.75000   0.50000   0.44896   0.00000  Uiso   1.00
C769   C     0.06290   0.19321   0.83387   0.00000  Uiso   1.00
C770   C     0.00000   0.21036   0.97774   0.00000  Uiso   1.00
C771   C    -0.00000   0.21028   0.69169   0.00000  Uiso   1.00
C772   C     0.00000   0.28972   0.97497   0.00000  Uiso   1.00
C773   C     0.25000   0.03964   0.68892   0.00000  Uiso   1.00
C774   C     0.25000   0.46036   0.97774   0.00000  Uiso   1.00
C775   C     0.25000   0.46028   0.69169   0.00000  Uiso   1.00
C776   C     0.25000   0.03972   0.97497   0.00000  Uiso   1.00
C777   C     0.38160   0.15179   0.79403   0.00000  Uiso   1.00
C778   C     0.11839   0.34822   0.87264   0.00000  Uiso   1.00
C779   C     0.10996   0.36125   0.79150   0.00000  Uiso   1.00
C780   C     0.43710   0.30679   0.83279   0.00000  Uiso   1.00
C781   C     0.39005   0.13875   0.87517   0.00000  Uiso   1.00
C782   C     0.10996   0.13875   0.87517   0.00000  Uiso   1.00
C783   C     0.39005   0.36125   0.79150   0.00000  Uiso   1.00
C784   C     0.38160   0.34821   0.87264   0.00000  Uiso   1.00
C785   C     0.11840   0.15179   0.79403   0.00000  Uiso   1.00
C786   C     0.13160   0.40179   0.79403   0.00000  Uiso   1.00
C787   C     0.36840   0.09821   0.87264   0.00000  Uiso   1.00
C788   C     0.35995   0.11125   0.79150   0.00000  Uiso   1.00
C789   C     0.14004   0.38875   0.87517   0.00000  Uiso   1.00
C790   C     0.35995   0.38875   0.87517   0.00000  Uiso   1.00
C791   C     0.43710   0.19321   0.83387   0.00000  Uiso   1.00
C792   C     0.14004   0.11125   0.79150   0.00000  Uiso   1.00
C793   C     0.13160   0.09821   0.87264   0.00000  Uiso   1.00
C794   C     0.36840   0.40179   0.79403   0.00000  Uiso   1.00
C795   C     0.09951   0.33700   0.83165   0.00000  Uiso   1.00
C796   C     0.40049   0.16300   0.83502   0.00000  Uiso   1.00
C797   C     0.40049   0.33700   0.83165   0.00000  Uiso   1.00
C798   C     0.09951   0.16300   0.83502   0.00000  Uiso   1.00
C799   C     0.34951   0.08700   0.83165   0.00000  Uiso   1.00
C800   C     0.15049   0.41300   0.83502   0.00000  Uiso   1.00
C801   C     0.15048   0.08700   0.83165   0.00000  Uiso   1.00
C802   C     0.06290   0.30679   0.83279   0.00000  Uiso   1.00
C803   C     0.34951   0.41300   0.83502   0.00000  Uiso   1.00
C804   C     0.31290   0.44321   0.83387   0.00000  Uiso   1.00
C805   C     0.18710   0.05679   0.83279   0.00000  Uiso   1.00
C806   C     0.18710   0.44321   0.83387   0.00000  Uiso   1.00
C807   C     0.31290   0.05679   0.83279   0.00000  Uiso   1.00
C808   C     0.00000   0.28964   0.68892   0.00000  Uiso   1.00
H809   H     0.00000   0.32649   0.74081   0.00000  Uiso   1.00
H810   H     0.00000   0.17351   0.92586   0.00000  Uiso   1.00
H811   H     0.00000   0.17234   0.74586   0.00000  Uiso   1.00
H812   H    -0.00000   0.32766   0.92081   0.00000  Uiso   1.00
H813   H     0.25000   0.07649   0.74081   0.00000  Uiso   1.00
H814   H     0.25000   0.42351   0.92586   0.00000  Uiso   1.00
H815   H     0.25000   0.42234   0.74586   0.00000  Uiso   1.00
H816   H     0.25000   0.07766   0.92081   0.00000  Uiso   1.00
I817   I     0.37694   0.19954   0.73805   0.00000  Uiso   1.00
I818   I     0.37306   0.05046   0.92862   0.00000  Uiso   1.00
I819   I     0.35484   0.08343   0.72633   0.00000  Uiso   1.00
I820   I     0.14516   0.41658   0.94034   0.00000  Uiso   1.00
I821   I     0.35484   0.41657   0.94034   0.00000  Uiso   1.00
I822   I     0.14516   0.08342   0.72633   0.00000  Uiso   1.00
I823   I     0.12695   0.05047   0.92863   0.00000  Uiso   1.00
I824   I     0.37306   0.44954   0.73805   0.00000  Uiso   1.00
I825   I     0.12305   0.30047   0.92863   0.00000  Uiso   1.00
I826   I     0.10484   0.33342   0.72633   0.00000  Uiso   1.00
I827   I     0.39516   0.16657   0.94034   0.00000  Uiso   1.00
I828   I     0.10484   0.16658   0.94034   0.00000  Uiso   1.00
I829   I     0.39516   0.33344   0.72633   0.00000  Uiso   1.00
I830   I     0.37694   0.30046   0.92862   0.00000  Uiso   1.00
I831   I     0.12305   0.19953   0.73804   0.00000  Uiso   1.00
I832   I     0.12695   0.44953   0.73804   0.00000  Uiso   1.00
N833   N     0.00000   0.25000   0.95240   0.00000  Uiso   1.00
N834   N     0.00000   0.25000   0.71427   0.00000  Uiso   1.00
N835   N     0.25000   0.00000   0.95240   0.00000  Uiso   1.00
N836   N     0.25000   0.00000   0.71427   0.00000  Uiso   1.00
O837   O     0.04580   0.20419   0.87154   0.00000  Uiso   1.00
O838   O     0.20419   0.04581   0.79513   0.00000  Uiso   1.00
O839   O     0.20419   0.04581   0.87154   0.00000  Uiso   1.00
O840   O     0.29580   0.45419   0.79513   0.00000  Uiso   1.00
O841   O     0.20419   0.45419   0.79513   0.00000  Uiso   1.00
O842   O     0.29580   0.04581   0.87154   0.00000  Uiso   1.00
O843   O     0.29580   0.04581   0.79513   0.00000  Uiso   1.00
O844   O     0.20419   0.45419   0.87154   0.00000  Uiso   1.00
O845   O     0.00000   0.33104   0.70811   0.00000  Uiso   1.00
O846   O     0.00000   0.16896   0.95856   0.00000  Uiso   1.00
O847   O    -0.00000   0.16857   0.71349   0.00000  Uiso   1.00
O848   O     0.45419   0.29581   0.79513   0.00000  Uiso   1.00
O849   O     0.00000   0.33143   0.95318   0.00000  Uiso   1.00
O850   O     0.25000   0.08104   0.70811   0.00000  Uiso   1.00
O851   O     0.25000   0.41896   0.95856   0.00000  Uiso   1.00
O852   O     0.25000   0.41857   0.71349   0.00000  Uiso   1.00
O853   O     0.25000   0.08143   0.95318   0.00000  Uiso   1.00
O854   O     0.45419   0.29581   0.87154   0.00000  Uiso   1.00
O855   O     0.04580   0.20419   0.79513   0.00000  Uiso   1.00
O856   O     0.45419   0.20419   0.79513   0.00000  Uiso   1.00
O857   O     0.04580   0.29581   0.87154   0.00000  Uiso   1.00
O858   O     0.04580   0.29581   0.79513   0.00000  Uiso   1.00
O859   O     0.45419   0.20419   0.87154   0.00000  Uiso   1.00
O860   O     0.29580   0.45419   0.87154   0.00000  Uiso   1.00
Zn861  Zn   -0.00000   0.25000   0.88437   0.00000  Uiso   1.00
Zn862  Zn   -0.00000   0.25000   0.78229   0.00000  Uiso   1.00
Zn863  Zn    0.25000   0.00000   0.88437   0.00000  Uiso   1.00
Zn864  Zn    0.25000   0.00000   0.78229   0.00000  Uiso   1.00
C865   C     0.56290   0.19321   0.83387   0.00000  Uiso   1.00
C866   C     0.50000   0.21036   0.97774   0.00000  Uiso   1.00
C867   C     0.50000   0.21028   0.69169   0.00000  Uiso   1.00
C868   C     0.50000   0.28972   0.97497   0.00000  Uiso   1.00
C869   C     0.75000   0.03964   0.68892   0.00000  Uiso   1.00
C870   C     0.75000   0.46036   0.97774   0.00000  Uiso   1.00
C871   C     0.75000   0.46028   0.69169   0.00000  Uiso   1.00
C872   C     0.75000   0.03972   0.97497   0.00000  Uiso   1.00
C873   C     0.88160   0.15179   0.79403   0.00000  Uiso   1.00
C874   C     0.61839   0.34822   0.87264   0.00000  Uiso   1.00
C875   C     0.60996   0.36125   0.79150   0.00000  Uiso   1.00
C876   C     0.93710   0.30679   0.83279   0.00000  Uiso   1.00
C877   C     0.89005   0.13875   0.87517   0.00000  Uiso   1.00
C878   C     0.60996   0.13875   0.87517   0.00000  Uiso   1.00
C879   C     0.89005   0.36125   0.79150   0.00000  Uiso   1.00
C880   C     0.88160   0.34821   0.87264   0.00000  Uiso   1.00
C881   C     0.61840   0.15179   0.79403   0.00000  Uiso   1.00
C882   C     0.63160   0.40179   0.79403   0.00000  Uiso   1.00
C883   C     0.86840   0.09821   0.87264   0.00000  Uiso   1.00
C884   C     0.85995   0.11125   0.79150   0.00000  Uiso   1.00
C885   C     0.64004   0.38875   0.87517   0.00000  Uiso   1.00
C886   C     0.85995   0.38875   0.87517   0.00000  Uiso   1.00
C887   C     0.93710   0.19321   0.83387   0.00000  Uiso   1.00
C888   C     0.64004   0.11125   0.79150   0.00000  Uiso   1.00
C889   C     0.63160   0.09821   0.87264   0.00000  Uiso   1.00
C890   C     0.86840   0.40179   0.79403   0.00000  Uiso   1.00
C891   C     0.59951   0.33700   0.83165   0.00000  Uiso   1.00
C892   C     0.90049   0.16300   0.83502   0.00000  Uiso   1.00
C893   C     0.90049   0.33700   0.83165   0.00000  Uiso   1.00
C894   C     0.59951   0.16300   0.83502   0.00000  Uiso   1.00
C895   C     0.84951   0.08700   0.83165   0.00000  Uiso   1.00
C896   C     0.65049   0.41300   0.83502   0.00000  Uiso   1.00
C897   C     0.65048   0.08700   0.83165   0.00000  Uiso   1.00
C898   C     0.56290   0.30679   0.83279   0.00000  Uiso   1.00
C899   C     0.84951   0.41300   0.83502   0.00000  Uiso   1.00
C900   C     0.81290   0.44321   0.83387   0.00000  Uiso   1.00
C901   C     0.68710   0.05679   0.83279   0.00000  Uiso   1.00
C902   C     0.68710   0.44321   0.83387   0.00000  Uiso   1.00
C903   C     0.81290   0.05679   0.83279   0.00000  Uiso   1.00
C904   C     0.50000   0.28964   0.68892   0.00000  Uiso   1.00
H905   H     0.50000   0.32649   0.74081   0.00000  Uiso   1.00
H906   H     0.50000   0.17351   0.92586   0.00000  Uiso   1.00
H907   H     0.50000   0.17234   0.74586   0.00000  Uiso   1.00
H908   H     0.50000   0.32766   0.92081   0.00000  Uiso   1.00
H909   H     0.75000   0.07649   0.74081   0.00000  Uiso   1.00
H910   H     0.75000   0.42351   0.92586   0.00000  Uiso   1.00
H911   H     0.75000   0.42234   0.74586   0.00000  Uiso   1.00
H912   H     0.75000   0.07766   0.92081   0.00000  Uiso   1.00
I913   I     0.87694   0.19954   0.73805   0.00000  Uiso   1.00
I914   I     0.87306   0.05046   0.92862   0.00000  Uiso   1.00
I915   I     0.85484   0.08343   0.72633   0.00000  Uiso   1.00
I916   I     0.64516   0.41658   0.94034   0.00000  Uiso   1.00
I917   I     0.85484   0.41657   0.94034   0.00000  Uiso   1.00
I918   I     0.64516   0.08342   0.72633   0.00000  Uiso   1.00
I919   I     0.62695   0.05047   0.92863   0.00000  Uiso   1.00
I920   I     0.87306   0.44954   0.73805   0.00000  Uiso   1.00
I921   I     0.62305   0.30047   0.92863   0.00000  Uiso   1.00
I922   I     0.60484   0.33342   0.72633   0.00000  Uiso   1.00
I923   I     0.89516   0.16657   0.94034   0.00000  Uiso   1.00
I924   I     0.60484   0.16658   0.94034   0.00000  Uiso   1.00
I925   I     0.89516   0.33344   0.72633   0.00000  Uiso   1.00
I926   I     0.87694   0.30046   0.92862   0.00000  Uiso   1.00
I927   I     0.62305   0.19953   0.73804   0.00000  Uiso   1.00
I928   I     0.62695   0.44953   0.73804   0.00000  Uiso   1.00
N929   N     0.50000   0.25000   0.95240   0.00000  Uiso   1.00
N930   N     0.50000   0.25000   0.71427   0.00000  Uiso   1.00
N931   N     0.75000   0.00000   0.95240   0.00000  Uiso   1.00
N932   N     0.75000   0.00000   0.71427   0.00000  Uiso   1.00
O933   O     0.54580   0.20419   0.87154   0.00000  Uiso   1.00
O934   O     0.70419   0.04581   0.79513   0.00000  Uiso   1.00
O935   O     0.70419   0.04581   0.87154   0.00000  Uiso   1.00
O936   O     0.79580   0.45419   0.79513   0.00000  Uiso   1.00
O937   O     0.70419   0.45419   0.79513   0.00000  Uiso   1.00
O938   O     0.79580   0.04581   0.87154   0.00000  Uiso   1.00
O939   O     0.79580   0.04581   0.79513   0.00000  Uiso   1.00
O940   O     0.70419   0.45419   0.87154   0.00000  Uiso   1.00
O941   O     0.50000   0.33104   0.70811   0.00000  Uiso   1.00
O942   O     0.50000   0.16896   0.95856   0.00000  Uiso   1.00
O943   O     0.50000   0.16857   0.71349   0.00000  Uiso   1.00
O944   O     0.95419   0.29581   0.79513   0.00000  Uiso   1.00
O945   O     0.50000   0.33143   0.95318   0.00000  Uiso   1.00
O946   O     0.75000   0.08104   0.70811   0.00000  Uiso   1.00
O947   O     0.75000   0.41896   0.95856   0.00000  Uiso   1.00
O948   O     0.75000   0.41857   0.71349   0.00000  Uiso   1.00
O949   O     0.75000   0.08143   0.95318   0.00000  Uiso   1.00
O950   O     0.95419   0.29581   0.87154   0.00000  Uiso   1.00
O951   O     0.54580   0.20419   0.79513   0.00000  Uiso   1.00
O952   O     0.95419   0.20419   0.79513   0.00000  Uiso   1.00
O953   O     0.54580   0.29581   0.87154   0.00000  Uiso   1.00
O954   O     0.54580   0.29581   0.79513   0.00000  Uiso   1.00
O955   O     0.95419   0.20419   0.87154   0.00000  Uiso   1.00
O956   O     0.79580   0.45419   0.87154   0.00000  Uiso   1.00
Zn957  Zn    0.50000   0.25000   0.88437   0.00000  Uiso   1.00
Zn958  Zn    0.50000   0.25000   0.78229   0.00000  Uiso   1.00
Zn959  Zn    0.75000   0.00000   0.88437   0.00000  Uiso   1.00
Zn960  Zn    0.75000   0.00000   0.78229   0.00000  Uiso   1.00
C961   C     0.06290   0.69321   0.83387   0.00000  Uiso   1.00
C962   C     0.00000   0.71036   0.97774   0.00000  Uiso   1.00
C963   C    -0.00000   0.71028   0.69169   0.00000  Uiso   1.00
C964   C     0.00000   0.78972   0.97497   0.00000  Uiso   1.00
C965   C     0.25000   0.53964   0.68892   0.00000  Uiso   1.00
C966   C     0.25000   0.96036   0.97774   0.00000  Uiso   1.00
C967   C     0.25000   0.96028   0.69169   0.00000  Uiso   1.00
C968   C     0.25000   0.53972   0.97497   0.00000  Uiso   1.00
C969   C     0.38160   0.65179   0.79403   0.00000  Uiso   1.00
C970   C     0.11839   0.84822   0.87264   0.00000  Uiso   1.00
C971   C     0.10996   0.86125   0.79150   0.00000  Uiso   1.00
C972   C     0.43710   0.80679   0.83279   0.00000  Uiso   1.00
C973   C     0.39005   0.63875   0.87517   0.00000  Uiso   1.00
C974   C     0.10996   0.63875   0.87517   0.00000  Uiso   1.00
C975   C     0.39005   0.86125   0.79150   0.00000  Uiso   1.00
C976   C     0.38160   0.84821   0.87264   0.00000  Uiso   1.00
C977   C     0.11840   0.65179   0.79403   0.00000  Uiso   1.00
C978   C     0.13160   0.90179   0.79403   0.00000  Uiso   1.00
C979   C     0.36840   0.59821   0.87264   0.00000  Uiso   1.00
C980   C     0.35995   0.61125   0.79150   0.00000  Uiso   1.00
C981   C     0.14004   0.88875   0.87517   0.00000  Uiso   1.00
C982   C     0.35995   0.88875   0.87517   0.00000  Uiso   1.00
C983   C     0.43710   0.69321   0.83387   0.00000  Uiso   1.00
C984   C     0.14004   0.61125   0.79150   0.00000  Uiso   1.00
C985   C     0.13160   0.59821   0.87264   0.00000  Uiso   1.00
C986   C     0.36840   0.90179   0.79403   0.00000  Uiso   1.00
C987   C     0.09951   0.83700   0.83165   0.00000  Uiso   1.00
C988   C     0.40049   0.66300   0.83502   0.00000  Uiso   1.00
C989   C     0.40049   0.83700   0.83165   0.00000  Uiso   1.00
C990   C     0.09951   0.66300   0.83502   0.00000  Uiso   1.00
C991   C     0.34951   0.58700   0.83165   0.00000  Uiso   1.00
C992   C     0.15049   0.91300   0.83502   0.00000  Uiso   1.00
C993   C     0.15048   0.58700   0.83165   0.00000  Uiso   1.00
C994   C     0.06290   0.80679   0.83279   0.00000  Uiso   1.00
C995   C     0.34951   0.91300   0.83502   0.00000  Uiso   1.00
C996   C     0.31290   0.94321   0.83387   0.00000  Uiso   1.00
C997   C     0.18710   0.55679   0.83279   0.00000  Uiso   1.00
C998   C     0.18710   0.94321   0.83387   0.00000  Uiso   1.00
C999   C     0.31290   0.55679   0.83279   0.00000  Uiso   1.00
C1000  C     0.00000   0.78964   0.68892   0.00000  Uiso   1.00
H1001  H     0.00000   0.82649   0.74081   0.00000  Uiso   1.00
H1002  H     0.00000   0.67351   0.92586   0.00000  Uiso   1.00
H1003  H     0.00000   0.67234   0.74586   0.00000  Uiso   1.00
H1004  H    -0.00000   0.82766   0.92081   0.00000  Uiso   1.00
H1005  H     0.25000   0.57649   0.74081   0.00000  Uiso   1.00
H1006  H     0.25000   0.92351   0.92586   0.00000  Uiso   1.00
H1007  H     0.25000   0.92234   0.74586   0.00000  Uiso   1.00
H1008  H     0.25000   0.57766   0.92081   0.00000  Uiso   1.00
I1009  I     0.37694   0.69954   0.73805   0.00000  Uiso   1.00
I1010  I     0.37306   0.55046   0.92862   0.00000  Uiso   1.00
I1011  I     0.35484   0.58343   0.72633   0.00000  Uiso   1.00
I1012  I     0.14516   0.91658   0.94034   0.00000  Uiso   1.00
I1013  I     0.35484   0.91657   0.94034   0.00000  Uiso   1.00
I1014  I     0.14516   0.58342   0.72633   0.00000  Uiso   1.00
I1015  I     0.12695   0.55047   0.92863   0.00000  Uiso   1.00
I1016  I     0.37306   0.94954   0.73805   0.00000  Uiso   1.00
I1017  I     0.12305   0.80047   0.92863   0.00000  Uiso   1.00
I1018  I     0.10484   0.83342   0.72633   0.00000  Uiso   1.00
I1019  I     0.39516   0.66657   0.94034   0.00000  Uiso   1.00
I1020  I     0.10484   0.66658   0.94034   0.00000  Uiso   1.00
I1021  I     0.39516   0.83344   0.72633   0.00000  Uiso   1.00
I1022  I     0.37694   0.80046   0.92862   0.00000  Uiso   1.00
I1023  I     0.12305   0.69953   0.73804   0.00000  Uiso   1.00
I1024  I     0.12695   0.94953   0.73804   0.00000  Uiso   1.00
N1025  N     0.00000   0.75000   0.95240   0.00000  Uiso   1.00
N1026  N     0.00000   0.75000   0.71427   0.00000  Uiso   1.00
N1027  N     0.25000   0.50000   0.95240   0.00000  Uiso   1.00
N1028  N     0.25000   0.50000   0.71427   0.00000  Uiso   1.00
O1029  O     0.04580   0.70419   0.87154   0.00000  Uiso   1.00
O1030  O     0.20419   0.54581   0.79513   0.00000  Uiso   1.00
O1031  O     0.20419   0.54581   0.87154   0.00000  Uiso   1.00
O1032  O     0.29580   0.95419   0.79513   0.00000  Uiso   1.00
O1033  O     0.20419   0.95419   0.79513   0.00000  Uiso   1.00
O1034  O     0.29580   0.54581   0.87154   0.00000  Uiso   1.00
O1035  O     0.29580   0.54581   0.79513   0.00000  Uiso   1.00
O1036  O     0.20419   0.95419   0.87154   0.00000  Uiso   1.00
O1037  O     0.00000   0.83104   0.70811   0.00000  Uiso   1.00
O1038  O     0.00000   0.66896   0.95856   0.00000  Uiso   1.00
O1039  O    -0.00000   0.66857   0.71349   0.00000  Uiso   1.00
O1040  O     0.45419   0.79581   0.79513   0.00000  Uiso   1.00
O1041  O     0.00000   0.83143   0.95318   0.00000  Uiso   1.00
O1042  O     0.25000   0.58104   0.70811   0.00000  Uiso   1.00
O1043  O     0.25000   0.91896   0.95856   0.00000  Uiso   1.00
O1044  O     0.25000   0.91857   0.71349   0.00000  Uiso   1.00
O1045  O     0.25000   0.58143   0.95318   0.00000  Uiso   1.00
O1046  O     0.45419   0.79581   0.87154   0.00000  Uiso   1.00
O1047  O     0.04580   0.70419   0.79513   0.00000  Uiso   1.00
O1048  O     0.45419   0.70419   0.79513   0.00000  Uiso   1.00
O1049  O     0.04580   0.79581   0.87154   0.00000  Uiso   1.00
O1050  O     0.04580   0.79581   0.79513   0.00000  Uiso   1.00
O1051  O     0.45419   0.70419   0.87154   0.00000  Uiso   1.00
O1052  O     0.29580   0.95419   0.87154   0.00000  Uiso   1.00
Zn1053 Zn   -0.00000   0.75000   0.88437   0.00000  Uiso   1.00
Zn1054 Zn   -0.00000   0.75000   0.78229   0.00000  Uiso   1.00
Zn1055 Zn    0.25000   0.50000   0.88437   0.00000  Uiso   1.00
Zn1056 Zn    0.25000   0.50000   0.78229   0.00000  Uiso   1.00
C1057  C     0.56290   0.69321   0.83387   0.00000  Uiso   1.00
C1058  C     0.50000   0.71036   0.97774   0.00000  Uiso   1.00
C1059  C     0.50000   0.71028   0.69169   0.00000  Uiso   1.00
C1060  C     0.50000   0.78972   0.97497   0.00000  Uiso   1.00
C1061  C     0.75000   0.53964   0.68892   0.00000  Uiso   1.00
C1062  C     0.75000   0.96036   0.97774   0.00000  Uiso   1.00
C1063  C     0.75000   0.96028   0.69169   0.00000  Uiso   1.00
C1064  C     0.75000   0.53972   0.97497   0.00000  Uiso   1.00
C1065  C     0.88160   0.65179   0.79403   0.00000  Uiso   1.00
C1066  C     0.61839   0.84822   0.87264   0.00000  Uiso   1.00
C1067  C     0.60996   0.86125   0.79150   0.00000  Uiso   1.00
C1068  C     0.93710   0.80679   0.83279   0.00000  Uiso   1.00
C1069  C     0.89005   0.63875   0.87517   0.00000  Uiso   1.00
C1070  C     0.60996   0.63875   0.87517   0.00000  Uiso   1.00
C1071  C     0.89005   0.86125   0.79150   0.00000  Uiso   1.00
C1072  C     0.88160   0.84821   0.87264   0.00000  Uiso   1.00
C1073  C     0.61840   0.65179   0.79403   0.00000  Uiso   1.00
C1074  C     0.63160   0.90179   0.79403   0.00000  Uiso   1.00
C1075  C     0.86840   0.59821   0.87264   0.00000  Uiso   1.00
C1076  C     0.85995   0.61125   0.79150   0.00000  Uiso   1.00
C1077  C     0.64004   0.88875   0.87517   0.00000  Uiso   1.00
C1078  C     0.85995   0.88875   0.87517   0.00000  Uiso   1.00
C1079  C     0.93710   0.69321   0.83387   0.00000  Uiso   1.00
C1080  C     0.64004   0.61125   0.79150   0.00000  Uiso   1.00
C1081  C     0.63160   0.59821   0.87264   0.00000  Uiso   1.00
C1082  C     0.86840   0.90179   0.79403   0.00000  Uiso   1.00
C1083  C     0.59951   0.83700   0.83165   0.00000  Uiso   1.00
C1084  C     0.90049   0.66300   0.83502   0.00000  Uiso   1.00
C1085  C     0.90049   0.83700   0.83165   0.00000  Uiso   1.00
C1086  C     0.59951   0.66300   0.83502   0.00000  Uiso   1.00
C1087  C     0.84951   0.58700   0.83165   0.00000  Uiso   1.00
C1088  C     0.65049   0.91300   0.83502   0.00000  Uiso   1.00
C1089  C     0.65048   0.58700   0.83165   0.00000  Uiso   1.00
C1090  C     0.56290   0.80679   0.83279   0.00000  Uiso   1.00
C1091  C     0.84951   0.91300   0.83502   0.00000  Uiso   1.00
C1092  C     0.81290   0.94321   0.83387   0.00000  Uiso   1.00
C1093  C     0.68710   0.55679   0.83279   0.00000  Uiso   1.00
C1094  C     0.68710   0.94321   0.83387   0.00000  Uiso   1.00
C1095  C     0.81290   0.55679   0.83279   0.00000  Uiso   1.00
C1096  C     0.50000   0.78964   0.68892   0.00000  Uiso   1.00
H1097  H     0.50000   0.82649   0.74081   0.00000  Uiso   1.00
H1098  H     0.50000   0.67351   0.92586   0.00000  Uiso   1.00
H1099  H     0.50000   0.67234   0.74586   0.00000  Uiso   1.00
H1100  H     0.50000   0.82766   0.92081   0.00000  Uiso   1.00
H1101  H     0.75000   0.57649   0.74081   0.00000  Uiso   1.00
H1102  H     0.75000   0.92351   0.92586   0.00000  Uiso   1.00
H1103  H     0.75000   0.92234   0.74586   0.00000  Uiso   1.00
H1104  H     0.75000   0.57766   0.92081   0.00000  Uiso   1.00
I1105  I     0.87694   0.69954   0.73805   0.00000  Uiso   1.00
I1106  I     0.87306   0.55046   0.92862   0.00000  Uiso   1.00
I1107  I     0.85484   0.58343   0.72633   0.00000  Uiso   1.00
I1108  I     0.64516   0.91658   0.94034   0.00000  Uiso   1.00
I1109  I     0.85484   0.91657   0.94034   0.00000  Uiso   1.00
I1110  I     0.64516   0.58342   0.72633   0.00000  Uiso   1.00
I1111  I     0.62695   0.55047   0.92863   0.00000  Uiso   1.00
I1112  I     0.87306   0.94954   0.73805   0.00000  Uiso   1.00
I1113  I     0.62305   0.80047   0.92863   0.00000  Uiso   1.00
I1114  I     0.60484   0.83342   0.72633   0.00000  Uiso   1.00
I1115  I     0.89516   0.66657   0.94034   0.00000  Uiso   1.00
I1116  I     0.60484   0.66658   0.94034   0.00000  Uiso   1.00
I1117  I     0.89516   0.83344   0.72633   0.00000  Uiso   1.00
I1118  I     0.87694   0.80046   0.92862   0.00000  Uiso   1.00
I1119  I     0.62305   0.69953   0.73804   0.00000  Uiso   1.00
I1120  I     0.62695   0.94953   0.73804   0.00000  Uiso   1.00
N1121  N     0.50000   0.75000   0.95240   0.00000  Uiso   1.00
N1122  N     0.50000   0.75000   0.71427   0.00000  Uiso   1.00
N1123  N     0.75000   0.50000   0.95240   0.00000  Uiso   1.00
N1124  N     0.75000   0.50000   0.71427   0.00000  Uiso   1.00
O1125  O     0.54580   0.70419   0.87154   0.00000  Uiso   1.00
O1126  O     0.70419   0.54581   0.79513   0.00000  Uiso   1.00
O1127  O     0.70419   0.54581   0.87154   0.00000  Uiso   1.00
O1128  O     0.79580   0.95419   0.79513   0.00000  Uiso   1.00
O1129  O     0.70419   0.95419   0.79513   0.00000  Uiso   1.00
O1130  O     0.79580   0.54581   0.87154   0.00000  Uiso   1.00
O1131  O     0.79580   0.54581   0.79513   0.00000  Uiso   1.00
O1132  O     0.70419   0.95419   0.87154   0.00000  Uiso   1.00
O1133  O     0.50000   0.83104   0.70811   0.00000  Uiso   1.00
O1134  O     0.50000   0.66896   0.95856   0.00000  Uiso   1.00
O1135  O     0.50000   0.66857   0.71349   0.00000  Uiso   1.00
O1136  O     0.95419   0.79581   0.79513   0.00000  Uiso   1.00
O1137  O     0.50000   0.83143   0.95318   0.00000  Uiso   1.00
O1138  O     0.75000   0.58104   0.70811   0.00000  Uiso   1.00
O1139  O     0.75000   0.91896   0.95856   0.00000  Uiso   1.00
O1140  O     0.75000   0.91857   0.71349   0.00000  Uiso   1.00
O1141  O     0.75000   0.58143   0.95318   0.00000  Uiso   1.00
O1142  O     0.95419   0.79581   0.87154   0.00000  Uiso   1.00
O1143  O     0.54580   0.70419   0.79513   0.00000  Uiso   1.00
O1144  O     0.95419   0.70419   0.79513   0.00000  Uiso   1.00
O1145  O     0.54580   0.79581   0.87154   0.00000  Uiso   1.00
O1146  O     0.54580   0.79581   0.79513   0.00000  Uiso   1.00
O1147  O     0.95419   0.70419   0.87154   0.00000  Uiso   1.00
O1148  O     0.79580   0.95419   0.87154   0.00000  Uiso   1.00
Zn1149 Zn    0.50000   0.75000   0.88437   0.00000  Uiso   1.00
Zn1150 Zn    0.50000   0.75000   0.78229   0.00000  Uiso   1.00
Zn1151 Zn    0.75000   0.50000   0.88437   0.00000  Uiso   1.00
Zn1152 Zn    0.75000   0.50000   0.78229   0.00000  Uiso   1.00
loop_
_geom_bond_atom_site_label_1
_geom_bond_atom_site_label_2
_geom_bond_distance
_geom_bond_site_symmetry_2
_ccdc_geom_bond_type
C1     O87     1.300   .     A
C1     O69     1.294   .     A
C1     C30     1.446   .     S
C2     N65     1.374   .     A
C2     O78     1.376   .     S
C2     C387    1.409   .     S
C3     O79     1.376   .     S
C3     C770    1.409   1_554 S
C3     N66     1.380   .     S
C4     N65     1.380   .     A
C4     O81     1.376   .     S
C4     C424    1.409   .     S
C5     N68     1.374   .     A
C5     O82     1.376   .     S
C5     C776    1.409   1_554 S
C6     N259    1.374   .     A
C6     O83     1.376   .     S
C6     C391    1.409   .     S
C7     O84     1.376   .     S
C7     C774    1.409   1_554 S
C7     N260    1.380   .     S
C8     O85     1.376   .     S
C8     C389    1.409   .     S
C8     N67     1.380   .     S
C9     I49     2.152   .     S
C9     C20     1.383   .     A
C9     C28     1.406   .     A
C10    C27     1.406   .     A
C10    C21     1.383   .     A
C10    I57     2.152   .     S
C11    C18     1.383   .     A
C11    I58     2.145   .     S
C11    C27     1.410   .     A
C12    C29     1.446   .     S
C12    O86     1.300   .     A
C12    O80     1.294   .     A
C13    C28     1.410   .     A
C13    C19     1.383   .     A
C13    I59     2.145   .     S
C14    C30     1.410   .     A
C14    I60     2.145   .     S
C14    C25     1.383   .     A
C15    C29     1.410   .     A
C15    C26     1.383   .     A
C15    I61     2.145   .     S
C16    I62     2.152   .     S
C16    C29     1.406   .     A
C16    C22     1.383   .     A
C17    C30     1.406   .     A
C17    C24     1.383   .     A
C17    I63     2.152   .     S
C18    C32     1.406   .     A
C18    I64     2.152   .     S
C19    C31     1.406   .     A
C19    I50     2.152   .     S
C20    I51     2.145   .     S
C20    C31     1.410   .     A
C21    C32     1.410   .     A
C21    I52     2.145   .     S
C22    C35     1.410   .     A
C22    I53     2.145   .     S
C23    C28     1.446   .     S
C23    O88     1.300   .     A
C23    O91     1.294   .     A
C24    I54     2.145   .     S
C24    C33     1.410   .     A
C25    I55     2.152   .     S
C25    C33     1.406   .     A
C26    I56     2.152   .     S
C26    C35     1.406   .     A
C27    C34     1.446   .     S
C31    C39     1.446   .     S
C32    C38     1.446   .     S
C33    C37     1.446   .     S
C34    O90     1.294   .     A
C34    O89     1.300   .     A
C35    C36     1.446   .     S
C36    O92     1.294   .     A
C36    O72     1.300   .     A
C37    O70     1.294   .     A
C37    O71     1.300   .     A
C38    O76     1.294   .     A
C38    O73     1.300   .     A
C39    O74     1.300   .     A
C39    O75     1.294   .     A
C40    N66     1.374   .     A
C40    O77     1.376   .     S
C40    C772    1.409   1_554 S
H41    O77     0.978   .     S
H42    O78     0.978   .     S
H43    O79     0.975   .     S
H44    O81     0.975   .     S
H45    O82     0.978   .     S
H46    O83     0.978   .     S
H47    O84     0.975   .     S
H48    O85     0.975   .     S
N65    Zn93    2.027   .     S
N66    Zn94    2.027   .     S
N67    C198    1.374   1_545 A
N67    Zn95    2.027   .     S
N68    Zn96    2.027   .     S
N68    C199    1.380   1_545 S
O69    Zn93    2.013   .     S
O70    Zn96    2.013   .     S
O71    Zn95    1.993   .     S
O72    Zn288   1.993   .     S
O73    Zn288   1.993   .     S
O74    Zn95    1.993   .     S
O75    Zn96    2.013   .     S
O76    Zn287   2.013   .     S
O80    Zn190   2.013   .     S
O86    Zn189   1.993   .     S
O87    Zn94    1.993   .     S
O88    Zn190   1.993   .     S
O89    Zn93    1.993   .     S
O90    Zn94    2.013   .     S
O91    Zn189   2.013   .     S
O92    Zn287   2.013   .     S
Zn93   O182    1.993   1_455 S
Zn93   O187    2.013   1_455 S
Zn94   O184    1.993   1_455 S
Zn94   O176    2.013   1_455 S
Zn95   O268    2.013   1_545 S
Zn95   O284    2.013   1_545 S
Zn96   O264    1.993   1_545 S
Zn96   O265    1.993   1_545 S
C97    O183    1.300   .     A
C97    O165    1.294   .     A
C97    C126    1.446   .     S
C98    N161    1.374   .     A
C98    O174    1.376   .     S
C98    C483    1.409   .     S
C99    O175    1.376   .     S
C99    C866    1.409   1_554 S
C99    N162    1.380   .     S
C100   N161    1.380   .     A
C100   O177    1.376   .     S
C100   C520    1.409   .     S
C101   N164    1.374   .     A
C101   O178    1.376   .     S
C101   C872    1.409   1_554 S
C102   N355    1.374   .     A
C102   O179    1.376   .     S
C102   C487    1.409   .     S
C103   O180    1.376   .     S
C103   C870    1.409   1_554 S
C103   N356    1.380   .     S
C104   O181    1.376   .     S
C104   C485    1.409   .     S
C104   N163    1.380   .     S
C105   I145    2.152   .     S
C105   C116    1.383   .     A
C105   C124    1.406   .     A
C106   C123    1.406   .     A
C106   C117    1.383   .     A
C106   I153    2.152   .     S
C107   C114    1.383   .     A
C107   I154    2.145   .     S
C107   C123    1.410   .     A
C108   C125    1.446   .     S
C108   O182    1.300   .     A
C108   O176    1.294   .     A
C109   C124    1.410   .     A
C109   C115    1.383   .     A
C109   I155    2.145   .     S
C110   C126    1.410   .     A
C110   I156    2.145   .     S
C110   C121    1.383   .     A
C111   C125    1.410   .     A
C111   C122    1.383   .     A
C111   I157    2.145   .     S
C112   I158    2.152   .     S
C112   C125    1.406   .     A
C112   C118    1.383   .     A
C113   C126    1.406   .     A
C113   C120    1.383   .     A
C113   I159    2.152   .     S
C114   C128    1.406   .     A
C114   I160    2.152   .     S
C115   C127    1.406   .     A
C115   I146    2.152   .     S
C116   I147    2.145   .     S
C116   C127    1.410   .     A
C117   C128    1.410   .     A
C117   I148    2.145   .     S
C118   C131    1.410   .     A
C118   I149    2.145   .     S
C119   C124    1.446   .     S
C119   O184    1.300   .     A
C119   O187    1.294   .     A
C120   I150    2.145   .     S
C120   C129    1.410   .     A
C121   I151    2.152   .     S
C121   C129    1.406   .     A
C122   I152    2.152   .     S
C122   C131    1.406   .     A
C123   C130    1.446   .     S
C127   C135    1.446   .     S
C128   C134    1.446   .     S
C129   C133    1.446   .     S
C130   O186    1.294   .     A
C130   O185    1.300   .     A
C131   C132    1.446   .     S
C132   O188    1.294   .     A
C132   O168    1.300   .     A
C133   O166    1.294   .     A
C133   O167    1.300   .     A
C134   O172    1.294   .     A
C134   O169    1.300   .     A
C135   O170    1.300   .     A
C135   O171    1.294   .     A
C136   N162    1.374   .     A
C136   O173    1.376   .     S
C136   C868    1.409   1_554 S
H137   O173    0.978   .     S
H138   O174    0.978   .     S
H139   O175    0.975   .     S
H140   O177    0.975   .     S
H141   O178    0.978   .     S
H142   O179    0.978   .     S
H143   O180    0.975   .     S
H144   O181    0.975   .     S
N161   Zn189   2.027   .     S
N162   Zn190   2.027   .     S
N163   C294    1.374   1_545 A
N163   Zn191   2.027   .     S
N164   Zn192   2.027   .     S
N164   C295    1.380   1_545 S
O165   Zn189   2.013   .     S
O166   Zn192   2.013   .     S
O167   Zn191   1.993   .     S
O168   Zn384   1.993   .     S
O169   Zn384   1.993   .     S
O170   Zn191   1.993   .     S
O171   Zn192   2.013   .     S
O172   Zn383   2.013   .     S
O176   Zn94    2.013   1_655 S
O182   Zn93    1.993   1_655 S
O183   Zn190   1.993   .     S
O184   Zn94    1.993   1_655 S
O185   Zn189   1.993   .     S
O186   Zn190   2.013   .     S
O187   Zn93    2.013   1_655 S
O188   Zn383   2.013   .     S
Zn191  O364    2.013   1_545 S
Zn191  O380    2.013   1_545 S
Zn192  O360    1.993   1_545 S
Zn192  O361    1.993   1_545 S
C193   O279    1.300   .     A
C193   O261    1.294   .     A
C193   C222    1.446   .     S
C194   N257    1.374   .     A
C194   O270    1.376   .     S
C194   C579    1.409   .     S
C195   O271    1.376   .     S
C195   C962    1.409   1_554 S
C195   N258    1.380   .     S
C196   N257    1.380   .     A
C196   O273    1.376   .     S
C196   C616    1.409   .     S
C197   N260    1.374   .     A
C197   O274    1.376   .     S
C197   C968    1.409   1_554 S
C198   N67     1.374   1_565 A
C198   O275    1.376   .     S
C198   C583    1.409   .     S
C199   O276    1.376   .     S
C199   C966    1.409   1_554 S
C199   N68     1.380   1_565 S
C200   O277    1.376   .     S
C200   C581    1.409   .     S
C200   N259    1.380   .     S
C201   I241    2.152   .     S
C201   C212    1.383   .     A
C201   C220    1.406   .     A
C202   C219    1.406   .     A
C202   C213    1.383   .     A
C202   I249    2.152   .     S
C203   C210    1.383   .     A
C203   I250    2.145   .     S
C203   C219    1.410   .     A
C204   C221    1.446   .     S
C204   O278    1.300   .     A
C204   O272    1.294   .     A
C205   C220    1.410   .     A
C205   C211    1.383   .     A
C205   I251    2.145   .     S
C206   C222    1.410   .     A
C206   I252    2.145   .     S
C206   C217    1.383   .     A
C207   C221    1.410   .     A
C207   C218    1.383   .     A
C207   I253    2.145   .     S
C208   I254    2.152   .     S
C208   C221    1.406   .     A
C208   C214    1.383   .     A
C209   C222    1.406   .     A
C209   C216    1.383   .     A
C209   I255    2.152   .     S
C210   C224    1.406   .     A
C210   I256    2.152   .     S
C211   C223    1.406   .     A
C211   I242    2.152   .     S
C212   I243    2.145   .     S
C212   C223    1.410   .     A
C213   C224    1.410   .     A
C213   I244    2.145   .     S
C214   C227    1.410   .     A
C214   I245    2.145   .     S
C215   C220    1.446   .     S
C215   O280    1.300   .     A
C215   O283    1.294   .     A
C216   I246    2.145   .     S
C216   C225    1.410   .     A
C217   I247    2.152   .     S
C217   C225    1.406   .     A
C218   I248    2.152   .     S
C218   C227    1.406   .     A
C219   C226    1.446   .     S
C223   C231    1.446   .     S
C224   C230    1.446   .     S
C225   C229    1.446   .     S
C226   O282    1.294   .     A
C226   O281    1.300   .     A
C227   C228    1.446   .     S
C228   O284    1.294   .     A
C228   O264    1.300   .     A
C229   O262    1.294   .     A
C229   O263    1.300   .     A
C230   O268    1.294   .     A
C230   O265    1.300   .     A
C231   O266    1.300   .     A
C231   O267    1.294   .     A
C232   N258    1.374   .     A
C232   O269    1.376   .     S
C232   C964    1.409   1_554 S
H233   O269    0.978   .     S
H234   O270    0.978   .     S
H235   O271    0.975   .     S
H236   O273    0.975   .     S
H237   O274    0.978   .     S
H238   O275    0.978   .     S
H239   O276    0.975   .     S
H240   O277    0.975   .     S
N257   Zn285   2.027   .     S
N258   Zn286   2.027   .     S
N259   Zn287   2.027   .     S
N260   Zn288   2.027   .     S
O261   Zn285   2.013   .     S
O262   Zn288   2.013   .     S
O263   Zn287   1.993   .     S
O264   Zn96    1.993   1_565 S
O265   Zn96    1.993   1_565 S
O266   Zn287   1.993   .     S
O267   Zn288   2.013   .     S
O268   Zn95    2.013   1_565 S
O272   Zn382   2.013   .     S
O278   Zn381   1.993   .     S
O279   Zn286   1.993   .     S
O280   Zn382   1.993   .     S
O281   Zn285   1.993   .     S
O282   Zn286   2.013   .     S
O283   Zn381   2.013   .     S
O284   Zn95    2.013   1_565 S
Zn285  O374    1.993   1_455 S
Zn285  O379    2.013   1_455 S
Zn286  O376    1.993   1_455 S
Zn286  O368    2.013   1_455 S
C289   O375    1.300   .     A
C289   O357    1.294   .     A
C289   C318    1.446   .     S
C290   N353    1.374   .     A
C290   O366    1.376   .     S
C290   C675    1.409   .     S
C291   O367    1.376   .     S
C291   C1058   1.409   1_554 S
C291   N354    1.380   .     S
C292   N353    1.380   .     A
C292   O369    1.376   .     S
C292   C712    1.409   .     S
C293   N356    1.374   .     A
C293   O370    1.376   .     S
C293   C1064   1.409   1_554 S
C294   N163    1.374   1_565 A
C294   O371    1.376   .     S
C294   C679    1.409   .     S
C295   O372    1.376   .     S
C295   C1062   1.409   1_554 S
C295   N164    1.380   1_565 S
C296   O373    1.376   .     S
C296   C677    1.409   .     S
C296   N355    1.380   .     S
C297   I337    2.152   .     S
C297   C308    1.383   .     A
C297   C316    1.406   .     A
C298   C315    1.406   .     A
C298   C309    1.383   .     A
C298   I345    2.152   .     S
C299   C306    1.383   .     A
C299   I346    2.145   .     S
C299   C315    1.410   .     A
C300   C317    1.446   .     S
C300   O374    1.300   .     A
C300   O368    1.294   .     A
C301   C316    1.410   .     A
C301   C307    1.383   .     A
C301   I347    2.145   .     S
C302   C318    1.410   .     A
C302   I348    2.145   .     S
C302   C313    1.383   .     A
C303   C317    1.410   .     A
C303   C314    1.383   .     A
C303   I349    2.145   .     S
C304   I350    2.152   .     S
C304   C317    1.406   .     A
C304   C310    1.383   .     A
C305   C318    1.406   .     A
C305   C312    1.383   .     A
C305   I351    2.152   .     S
C306   C320    1.406   .     A
C306   I352    2.152   .     S
C307   C319    1.406   .     A
C307   I338    2.152   .     S
C308   I339    2.145   .     S
C308   C319    1.410   .     A
C309   C320    1.410   .     A
C309   I340    2.145   .     S
C310   C323    1.410   .     A
C310   I341    2.145   .     S
C311   C316    1.446   .     S
C311   O376    1.300   .     A
C311   O379    1.294   .     A
C312   I342    2.145   .     S
C312   C321    1.410   .     A
C313   I343    2.152   .     S
C313   C321    1.406   .     A
C314   I344    2.152   .     S
C314   C323    1.406   .     A
C315   C322    1.446   .     S
C319   C327    1.446   .     S
C320   C326    1.446   .     S
C321   C325    1.446   .     S
C322   O378    1.294   .     A
C322   O377    1.300   .     A
C323   C324    1.446   .     S
C324   O380    1.294   .     A
C324   O360    1.300   .     A
C325   O358    1.294   .     A
C325   O359    1.300   .     A
C326   O364    1.294   .     A
C326   O361    1.300   .     A
C327   O362    1.300   .     A
C327   O363    1.294   .     A
C328   N354    1.374   .     A
C328   O365    1.376   .     S
C328   C1060   1.409   1_554 S
H329   O365    0.978   .     S
H330   O366    0.978   .     S
H331   O367    0.975   .     S
H332   O369    0.975   .     S
H333   O370    0.978   .     S
H334   O371    0.978   .     S
H335   O372    0.975   .     S
H336   O373    0.975   .     S
N353   Zn381   2.027   .     S
N354   Zn382   2.027   .     S
N355   Zn383   2.027   .     S
N356   Zn384   2.027   .     S
O357   Zn381   2.013   .     S
O358   Zn384   2.013   .     S
O359   Zn383   1.993   .     S
O360   Zn192   1.993   1_565 S
O361   Zn192   1.993   1_565 S
O362   Zn383   1.993   .     S
O363   Zn384   2.013   .     S
O364   Zn191   2.013   1_565 S
O368   Zn286   2.013   1_655 S
O374   Zn285   1.993   1_655 S
O375   Zn382   1.993   .     S
O376   Zn286   1.993   1_655 S
O377   Zn381   1.993   .     S
O378   Zn382   2.013   .     S
O379   Zn285   2.013   1_655 S
O380   Zn191   2.013   1_565 S
C385   O471    1.300   .     A
C385   O453    1.294   .     A
C385   C414    1.446   .     S
C386   N449    1.374   .     A
C386   O462    1.376   .     S
C386   C771    1.409   .     S
C387   O463    1.376   .     S
C387   N450    1.380   .     S
C388   N449    1.380   .     A
C388   O465    1.376   .     S
C388   C808    1.409   .     S
C389   N452    1.374   .     A
C389   O466    1.376   .     S
C390   N643    1.374   .     A
C390   O467    1.376   .     S
C390   C775    1.409   .     S
C391   O468    1.376   .     S
C391   N644    1.380   .     S
C392   O469    1.376   .     S
C392   C773    1.409   .     S
C392   N451    1.380   .     S
C393   I433    2.152   .     S
C393   C404    1.383   .     A
C393   C412    1.406   .     A
C394   C411    1.406   .     A
C394   C405    1.383   .     A
C394   I441    2.152   .     S
C395   C402    1.383   .     A
C395   I442    2.145   .     S
C395   C411    1.410   .     A
C396   C413    1.446   .     S
C396   O470    1.300   .     A
C396   O464    1.294   .     A
C397   C412    1.410   .     A
C397   C403    1.383   .     A
C397   I443    2.145   .     S
C398   C414    1.410   .     A
C398   I444    2.145   .     S
C398   C409    1.383   .     A
C399   C413    1.410   .     A
C399   C410    1.383   .     A
C399   I445    2.145   .     S
C400   I446    2.152   .     S
C400   C413    1.406   .     A
C400   C406    1.383   .     A
C401   C414    1.406   .     A
C401   C408    1.383   .     A
C401   I447    2.152   .     S
C402   C416    1.406   .     A
C402   I448    2.152   .     S
C403   C415    1.406   .     A
C403   I434    2.152   .     S
C404   I435    2.145   .     S
C404   C415    1.410   .     A
C405   C416    1.410   .     A
C405   I436    2.145   .     S
C406   C419    1.410   .     A
C406   I437    2.145   .     S
C407   C412    1.446   .     S
C407   O472    1.300   .     A
C407   O475    1.294   .     A
C408   I438    2.145   .     S
C408   C417    1.410   .     A
C409   I439    2.152   .     S
C409   C417    1.406   .     A
C410   I440    2.152   .     S
C410   C419    1.406   .     A
C411   C418    1.446   .     S
C415   C423    1.446   .     S
C416   C422    1.446   .     S
C417   C421    1.446   .     S
C418   O474    1.294   .     A
C418   O473    1.300   .     A
C419   C420    1.446   .     S
C420   O476    1.294   .     A
C420   O456    1.300   .     A
C421   O454    1.294   .     A
C421   O455    1.300   .     A
C422   O460    1.294   .     A
C422   O457    1.300   .     A
C423   O458    1.300   .     A
C423   O459    1.294   .     A
C424   N450    1.374   .     A
C424   O461    1.376   .     S
H425   O461    0.978   .     S
H426   O462    0.978   .     S
H427   O463    0.975   .     S
H428   O465    0.975   .     S
H429   O466    0.978   .     S
H430   O467    0.978   .     S
H431   O468    0.975   .     S
H432   O469    0.975   .     S
N449   Zn477   2.027   .     S
N450   Zn478   2.027   .     S
N451   C582    1.374   1_545 A
N451   Zn479   2.027   .     S
N452   Zn480   2.027   .     S
N452   C583    1.380   1_545 S
O453   Zn477   2.013   .     S
O454   Zn480   2.013   .     S
O455   Zn479   1.993   .     S
O456   Zn672   1.993   .     S
O457   Zn672   1.993   .     S
O458   Zn479   1.993   .     S
O459   Zn480   2.013   .     S
O460   Zn671   2.013   .     S
O464   Zn574   2.013   .     S
O470   Zn573   1.993   .     S
O471   Zn478   1.993   .     S
O472   Zn574   1.993   .     S
O473   Zn477   1.993   .     S
O474   Zn478   2.013   .     S
O475   Zn573   2.013   .     S
O476   Zn671   2.013   .     S
Zn477  O566    1.993   1_455 S
Zn477  O571    2.013   1_455 S
Zn478  O568    1.993   1_455 S
Zn478  O560    2.013   1_455 S
Zn479  O652    2.013   1_545 S
Zn479  O668    2.013   1_545 S
Zn480  O648    1.993   1_545 S
Zn480  O649    1.993   1_545 S
C481   O567    1.300   .     A
C481   O549    1.294   .     A
C481   C510    1.446   .     S
C482   N545    1.374   .     A
C482   O558    1.376   .     S
C482   C867    1.409   .     S
C483   O559    1.376   .     S
C483   N546    1.380   .     S
C484   N545    1.380   .     A
C484   O561    1.376   .     S
C484   C904    1.409   .     S
C485   N548    1.374   .     A
C485   O562    1.376   .     S
C486   N739    1.374   .     A
C486   O563    1.376   .     S
C486   C871    1.409   .     S
C487   O564    1.376   .     S
C487   N740    1.380   .     S
C488   O565    1.376   .     S
C488   C869    1.409   .     S
C488   N547    1.380   .     S
C489   I529    2.152   .     S
C489   C500    1.383   .     A
C489   C508    1.406   .     A
C490   C507    1.406   .     A
C490   C501    1.383   .     A
C490   I537    2.152   .     S
C491   C498    1.383   .     A
C491   I538    2.145   .     S
C491   C507    1.410   .     A
C492   C509    1.446   .     S
C492   O566    1.300   .     A
C492   O560    1.294   .     A
C493   C508    1.410   .     A
C493   C499    1.383   .     A
C493   I539    2.145   .     S
C494   C510    1.410   .     A
C494   I540    2.145   .     S
C494   C505    1.383   .     A
C495   C509    1.410   .     A
C495   C506    1.383   .     A
C495   I541    2.145   .     S
C496   I542    2.152   .     S
C496   C509    1.406   .     A
C496   C502    1.383   .     A
C497   C510    1.406   .     A
C497   C504    1.383   .     A
C497   I543    2.152   .     S
C498   C512    1.406   .     A
C498   I544    2.152   .     S
C499   C511    1.406   .     A
C499   I530    2.152   .     S
C500   I531    2.145   .     S
C500   C511    1.410   .     A
C501   C512    1.410   .     A
C501   I532    2.145   .     S
C502   C515    1.410   .     A
C502   I533    2.145   .     S
C503   C508    1.446   .     S
C503   O568    1.300   .     A
C503   O571    1.294   .     A
C504   I534    2.145   .     S
C504   C513    1.410   .     A
C505   I535    2.152   .     S
C505   C513    1.406   .     A
C506   I536    2.152   .     S
C506   C515    1.406   .     A
C507   C514    1.446   .     S
C511   C519    1.446   .     S
C512   C518    1.446   .     S
C513   C517    1.446   .     S
C514   O570    1.294   .     A
C514   O569    1.300   .     A
C515   C516    1.446   .     S
C516   O572    1.294   .     A
C516   O552    1.300   .     A
C517   O550    1.294   .     A
C517   O551    1.300   .     A
C518   O556    1.294   .     A
C518   O553    1.300   .     A
C519   O554    1.300   .     A
C519   O555    1.294   .     A
C520   N546    1.374   .     A
C520   O557    1.376   .     S
H521   O557    0.978   .     S
H522   O558    0.978   .     S
H523   O559    0.975   .     S
H524   O561    0.975   .     S
H525   O562    0.978   .     S
H526   O563    0.978   .     S
H527   O564    0.975   .     S
H528   O565    0.975   .     S
N545   Zn573   2.027   .     S
N546   Zn574   2.027   .     S
N547   C678    1.374   1_545 A
N547   Zn575   2.027   .     S
N548   Zn576   2.027   .     S
N548   C679    1.380   1_545 S
O549   Zn573   2.013   .     S
O550   Zn576   2.013   .     S
O551   Zn575   1.993   .     S
O552   Zn768   1.993   .     S
O553   Zn768   1.993   .     S
O554   Zn575   1.993   .     S
O555   Zn576   2.013   .     S
O556   Zn767   2.013   .     S
O560   Zn478   2.013   1_655 S
O566   Zn477   1.993   1_655 S
O567   Zn574   1.993   .     S
O568   Zn478   1.993   1_655 S
O569   Zn573   1.993   .     S
O570   Zn574   2.013   .     S
O571   Zn477   2.013   1_655 S
O572   Zn767   2.013   .     S
Zn575  O748    2.013   1_545 S
Zn575  O764    2.013   1_545 S
Zn576  O744    1.993   1_545 S
Zn576  O745    1.993   1_545 S
C577   O663    1.300   .     A
C577   O645    1.294   .     A
C577   C606    1.446   .     S
C578   N641    1.374   .     A
C578   O654    1.376   .     S
C578   C963    1.409   .     S
C579   O655    1.376   .     S
C579   N642    1.380   .     S
C580   N641    1.380   .     A
C580   O657    1.376   .     S
C580   C1000   1.409   .     S
C581   N644    1.374   .     A
C581   O658    1.376   .     S
C582   N451    1.374   1_565 A
C582   O659    1.376   .     S
C582   C967    1.409   .     S
C583   O660    1.376   .     S
C583   N452    1.380   1_565 S
C584   O661    1.376   .     S
C584   C965    1.409   .     S
C584   N643    1.380   .     S
C585   I625    2.152   .     S
C585   C596    1.383   .     A
C585   C604    1.406   .     A
C586   C603    1.406   .     A
C586   C597    1.383   .     A
C586   I633    2.152   .     S
C587   C594    1.383   .     A
C587   I634    2.145   .     S
C587   C603    1.410   .     A
C588   C605    1.446   .     S
C588   O662    1.300   .     A
C588   O656    1.294   .     A
C589   C604    1.410   .     A
C589   C595    1.383   .     A
C589   I635    2.145   .     S
C590   C606    1.410   .     A
C590   I636    2.145   .     S
C590   C601    1.383   .     A
C591   C605    1.410   .     A
C591   C602    1.383   .     A
C591   I637    2.145   .     S
C592   I638    2.152   .     S
C592   C605    1.406   .     A
C592   C598    1.383   .     A
C593   C606    1.406   .     A
C593   C600    1.383   .     A
C593   I639    2.152   .     S
C594   C608    1.406   .     A
C594   I640    2.152   .     S
C595   C607    1.406   .     A
C595   I626    2.152   .     S
C596   I627    2.145   .     S
C596   C607    1.410   .     A
C597   C608    1.410   .     A
C597   I628    2.145   .     S
C598   C611    1.410   .     A
C598   I629    2.145   .     S
C599   C604    1.446   .     S
C599   O664    1.300   .     A
C599   O667    1.294   .     A
C600   I630    2.145   .     S
C600   C609    1.410   .     A
C601   I631    2.152   .     S
C601   C609    1.406   .     A
C602   I632    2.152   .     S
C602   C611    1.406   .     A
C603   C610    1.446   .     S
C607   C615    1.446   .     S
C608   C614    1.446   .     S
C609   C613    1.446   .     S
C610   O666    1.294   .     A
C610   O665    1.300   .     A
C611   C612    1.446   .     S
C612   O668    1.294   .     A
C612   O648    1.300   .     A
C613   O646    1.294   .     A
C613   O647    1.300   .     A
C614   O652    1.294   .     A
C614   O649    1.300   .     A
C615   O650    1.300   .     A
C615   O651    1.294   .     A
C616   N642    1.374   .     A
C616   O653    1.376   .     S
H617   O653    0.978   .     S
H618   O654    0.978   .     S
H619   O655    0.975   .     S
H620   O657    0.975   .     S
H621   O658    0.978   .     S
H622   O659    0.978   .     S
H623   O660    0.975   .     S
H624   O661    0.975   .     S
N641   Zn669   2.027   .     S
N642   Zn670   2.027   .     S
N643   Zn671   2.027   .     S
N644   Zn672   2.027   .     S
O645   Zn669   2.013   .     S
O646   Zn672   2.013   .     S
O647   Zn671   1.993   .     S
O648   Zn480   1.993   1_565 S
O649   Zn480   1.993   1_565 S
O650   Zn671   1.993   .     S
O651   Zn672   2.013   .     S
O652   Zn479   2.013   1_565 S
O656   Zn766   2.013   .     S
O662   Zn765   1.993   .     S
O663   Zn670   1.993   .     S
O664   Zn766   1.993   .     S
O665   Zn669   1.993   .     S
O666   Zn670   2.013   .     S
O667   Zn765   2.013   .     S
O668   Zn479   2.013   1_565 S
Zn669  O758    1.993   1_455 S
Zn669  O763    2.013   1_455 S
Zn670  O760    1.993   1_455 S
Zn670  O752    2.013   1_455 S
C673   O759    1.300   .     A
C673   O741    1.294   .     A
C673   C702    1.446   .     S
C674   N737    1.374   .     A
C674   O750    1.376   .     S
C674   C1059   1.409   .     S
C675   O751    1.376   .     S
C675   N738    1.380   .     S
C676   N737    1.380   .     A
C676   O753    1.376   .     S
C676   C1096   1.409   .     S
C677   N740    1.374   .     A
C677   O754    1.376   .     S
C678   N547    1.374   1_565 A
C678   O755    1.376   .     S
C678   C1063   1.409   .     S
C679   O756    1.376   .     S
C679   N548    1.380   1_565 S
C680   O757    1.376   .     S
C680   C1061   1.409   .     S
C680   N739    1.380   .     S
C681   I721    2.152   .     S
C681   C692    1.383   .     A
C681   C700    1.406   .     A
C682   C699    1.406   .     A
C682   C693    1.383   .     A
C682   I729    2.152   .     S
C683   C690    1.383   .     A
C683   I730    2.145   .     S
C683   C699    1.410   .     A
C684   C701    1.446   .     S
C684   O758    1.300   .     A
C684   O752    1.294   .     A
C685   C700    1.410   .     A
C685   C691    1.383   .     A
C685   I731    2.145   .     S
C686   C702    1.410   .     A
C686   I732    2.145   .     S
C686   C697    1.383   .     A
C687   C701    1.410   .     A
C687   C698    1.383   .     A
C687   I733    2.145   .     S
C688   I734    2.152   .     S
C688   C701    1.406   .     A
C688   C694    1.383   .     A
C689   C702    1.406   .     A
C689   C696    1.383   .     A
C689   I735    2.152   .     S
C690   C704    1.406   .     A
C690   I736    2.152   .     S
C691   C703    1.406   .     A
C691   I722    2.152   .     S
C692   I723    2.145   .     S
C692   C703    1.410   .     A
C693   C704    1.410   .     A
C693   I724    2.145   .     S
C694   C707    1.410   .     A
C694   I725    2.145   .     S
C695   C700    1.446   .     S
C695   O760    1.300   .     A
C695   O763    1.294   .     A
C696   I726    2.145   .     S
C696   C705    1.410   .     A
C697   I727    2.152   .     S
C697   C705    1.406   .     A
C698   I728    2.152   .     S
C698   C707    1.406   .     A
C699   C706    1.446   .     S
C703   C711    1.446   .     S
C704   C710    1.446   .     S
C705   C709    1.446   .     S
C706   O762    1.294   .     A
C706   O761    1.300   .     A
C707   C708    1.446   .     S
C708   O764    1.294   .     A
C708   O744    1.300   .     A
C709   O742    1.294   .     A
C709   O743    1.300   .     A
C710   O748    1.294   .     A
C710   O745    1.300   .     A
C711   O746    1.300   .     A
C711   O747    1.294   .     A
C712   N738    1.374   .     A
C712   O749    1.376   .     S
H713   O749    0.978   .     S
H714   O750    0.978   .     S
H715   O751    0.975   .     S
H716   O753    0.975   .     S
H717   O754    0.978   .     S
H718   O755    0.978   .     S
H719   O756    0.975   .     S
H720   O757    0.975   .     S
N737   Zn765   2.027   .     S
N738   Zn766   2.027   .     S
N739   Zn767   2.027   .     S
N740   Zn768   2.027   .     S
O741   Zn765   2.013   .     S
O742   Zn768   2.013   .     S
O743   Zn767   1.993   .     S
O744   Zn576   1.993   1_565 S
O745   Zn576   1.993   1_565 S
O746   Zn767   1.993   .     S
O747   Zn768   2.013   .     S
O748   Zn575   2.013   1_565 S
O752   Zn670   2.013   1_655 S
O758   Zn669   1.993   1_655 S
O759   Zn766   1.993   .     S
O760   Zn670   1.993   1_655 S
O761   Zn765   1.993   .     S
O762   Zn766   2.013   .     S
O763   Zn669   2.013   1_655 S
O764   Zn575   2.013   1_565 S
C769   O855    1.300   .     A
C769   O837    1.294   .     A
C769   C798    1.446   .     S
C770   N833    1.374   .     A
C770   O846    1.376   .     S
C770   C3      1.409   1_556 S
C771   O847    1.376   .     S
C771   N834    1.380   .     S
C772   N833    1.380   .     A
C772   O849    1.376   .     S
C772   C40     1.409   1_556 S
C773   N836    1.374   .     A
C773   O850    1.376   .     S
C774   N1027   1.374   .     A
C774   O851    1.376   .     S
C774   C7      1.409   1_556 S
C775   O852    1.376   .     S
C775   N1028   1.380   .     S
C776   O853    1.376   .     S
C776   C5      1.409   1_556 S
C776   N835    1.380   .     S
C777   I817    2.152   .     S
C777   C788    1.383   .     A
C777   C796    1.406   .     A
C778   C795    1.406   .     A
C778   C789    1.383   .     A
C778   I825    2.152   .     S
C779   C786    1.383   .     A
C779   I826    2.145   .     S
C779   C795    1.410   .     A
C780   C797    1.446   .     S
C780   O854    1.300   .     A
C780   O848    1.294   .     A
C781   C796    1.410   .     A
C781   C787    1.383   .     A
C781   I827    2.145   .     S
C782   C798    1.410   .     A
C782   I828    2.145   .     S
C782   C793    1.383   .     A
C783   C797    1.410   .     A
C783   C794    1.383   .     A
C783   I829    2.145   .     S
C784   I830    2.152   .     S
C784   C797    1.406   .     A
C784   C790    1.383   .     A
C785   C798    1.406   .     A
C785   C792    1.383   .     A
C785   I831    2.152   .     S
C786   C800    1.406   .     A
C786   I832    2.152   .     S
C787   C799    1.406   .     A
C787   I818    2.152   .     S
C788   I819    2.145   .     S
C788   C799    1.410   .     A
C789   C800    1.410   .     A
C789   I820    2.145   .     S
C790   C803    1.410   .     A
C790   I821    2.145   .     S
C791   C796    1.446   .     S
C791   O856    1.300   .     A
C791   O859    1.294   .     A
C792   I822    2.145   .     S
C792   C801    1.410   .     A
C793   I823    2.152   .     S
C793   C801    1.406   .     A
C794   I824    2.152   .     S
C794   C803    1.406   .     A
C795   C802    1.446   .     S
C799   C807    1.446   .     S
C800   C806    1.446   .     S
C801   C805    1.446   .     S
C802   O858    1.294   .     A
C802   O857    1.300   .     A
C803   C804    1.446   .     S
C804   O860    1.294   .     A
C804   O840    1.300   .     A
C805   O838    1.294   .     A
C805   O839    1.300   .     A
C806   O844    1.294   .     A
C806   O841    1.300   .     A
C807   O842    1.300   .     A
C807   O843    1.294   .     A
C808   N834    1.374   .     A
C808   O845    1.376   .     S
H809   O845    0.978   .     S
H810   O846    0.978   .     S
H811   O847    0.975   .     S
H812   O849    0.975   .     S
H813   O850    0.978   .     S
H814   O851    0.978   .     S
H815   O852    0.975   .     S
H816   O853    0.975   .     S
N833   Zn861   2.027   .     S
N834   Zn862   2.027   .     S
N835   C966    1.374   1_545 A
N835   Zn863   2.027   .     S
N836   Zn864   2.027   .     S
N836   C967    1.380   1_545 S
O837   Zn861   2.013   .     S
O838   Zn864   2.013   .     S
O839   Zn863   1.993   .     S
O840   Zn1056  1.993   .     S
O841   Zn1056  1.993   .     S
O842   Zn863   1.993   .     S
O843   Zn864   2.013   .     S
O844   Zn1055  2.013   .     S
O848   Zn958   2.013   .     S
O854   Zn957   1.993   .     S
O855   Zn862   1.993   .     S
O856   Zn958   1.993   .     S
O857   Zn861   1.993   .     S
O858   Zn862   2.013   .     S
O859   Zn957   2.013   .     S
O860   Zn1055  2.013   .     S
Zn861  O950    1.993   1_455 S
Zn861  O955    2.013   1_455 S
Zn862  O952    1.993   1_455 S
Zn862  O944    2.013   1_455 S
Zn863  O1036   2.013   1_545 S
Zn863  O1052   2.013   1_545 S
Zn864  O1032   1.993   1_545 S
Zn864  O1033   1.993   1_545 S
C865   O951    1.300   .     A
C865   O933    1.294   .     A
C865   C894    1.446   .     S
C866   N929    1.374   .     A
C866   O942    1.376   .     S
C866   C99     1.409   1_556 S
C867   O943    1.376   .     S
C867   N930    1.380   .     S
C868   N929    1.380   .     A
C868   O945    1.376   .     S
C868   C136    1.409   1_556 S
C869   N932    1.374   .     A
C869   O946    1.376   .     S
C870   N1123   1.374   .     A
C870   O947    1.376   .     S
C870   C103    1.409   1_556 S
C871   O948    1.376   .     S
C871   N1124   1.380   .     S
C872   O949    1.376   .     S
C872   C101    1.409   1_556 S
C872   N931    1.380   .     S
C873   I913    2.152   .     S
C873   C884    1.383   .     A
C873   C892    1.406   .     A
C874   C891    1.406   .     A
C874   C885    1.383   .     A
C874   I921    2.152   .     S
C875   C882    1.383   .     A
C875   I922    2.145   .     S
C875   C891    1.410   .     A
C876   C893    1.446   .     S
C876   O950    1.300   .     A
C876   O944    1.294   .     A
C877   C892    1.410   .     A
C877   C883    1.383   .     A
C877   I923    2.145   .     S
C878   C894    1.410   .     A
C878   I924    2.145   .     S
C878   C889    1.383   .     A
C879   C893    1.410   .     A
C879   C890    1.383   .     A
C879   I925    2.145   .     S
C880   I926    2.152   .     S
C880   C893    1.406   .     A
C880   C886    1.383   .     A
C881   C894    1.406   .     A
C881   C888    1.383   .     A
C881   I927    2.152   .     S
C882   C896    1.406   .     A
C882   I928    2.152   .     S
C883   C895    1.406   .     A
C883   I914    2.152   .     S
C884   I915    2.145   .     S
C884   C895    1.410   .     A
C885   C896    1.410   .     A
C885   I916    2.145   .     S
C886   C899    1.410   .     A
C886   I917    2.145   .     S
C887   C892    1.446   .     S
C887   O952    1.300   .     A
C887   O955    1.294   .     A
C888   I918    2.145   .     S
C888   C897    1.410   .     A
C889   I919    2.152   .     S
C889   C897    1.406   .     A
C890   I920    2.152   .     S
C890   C899    1.406   .     A
C891   C898    1.446   .     S
C895   C903    1.446   .     S
C896   C902    1.446   .     S
C897   C901    1.446   .     S
C898   O954    1.294   .     A
C898   O953    1.300   .     A
C899   C900    1.446   .     S
C900   O956    1.294   .     A
C900   O936    1.300   .     A
C901   O934    1.294   .     A
C901   O935    1.300   .     A
C902   O940    1.294   .     A
C902   O937    1.300   .     A
C903   O938    1.300   .     A
C903   O939    1.294   .     A
C904   N930    1.374   .     A
C904   O941    1.376   .     S
H905   O941    0.978   .     S
H906   O942    0.978   .     S
H907   O943    0.975   .     S
H908   O945    0.975   .     S
H909   O946    0.978   .     S
H910   O947    0.978   .     S
H911   O948    0.975   .     S
H912   O949    0.975   .     S
N929   Zn957   2.027   .     S
N930   Zn958   2.027   .     S
N931   C1062   1.374   1_545 A
N931   Zn959   2.027   .     S
N932   Zn960   2.027   .     S
N932   C1063   1.380   1_545 S
O933   Zn957   2.013   .     S
O934   Zn960   2.013   .     S
O935   Zn959   1.993   .     S
O936   Zn1152  1.993   .     S
O937   Zn1152  1.993   .     S
O938   Zn959   1.993   .     S
O939   Zn960   2.013   .     S
O940   Zn1151  2.013   .     S
O944   Zn862   2.013   1_655 S
O950   Zn861   1.993   1_655 S
O951   Zn958   1.993   .     S
O952   Zn862   1.993   1_655 S
O953   Zn957   1.993   .     S
O954   Zn958   2.013   .     S
O955   Zn861   2.013   1_655 S
O956   Zn1151  2.013   .     S
Zn959  O1132   2.013   1_545 S
Zn959  O1148   2.013   1_545 S
Zn960  O1128   1.993   1_545 S
Zn960  O1129   1.993   1_545 S
C961   O1047   1.300   .     A
C961   O1029   1.294   .     A
C961   C990    1.446   .     S
C962   N1025   1.374   .     A
C962   O1038   1.376   .     S
C962   C195    1.409   1_556 S
C963   O1039   1.376   .     S
C963   N1026   1.380   .     S
C964   N1025   1.380   .     A
C964   O1041   1.376   .     S
C964   C232    1.409   1_556 S
C965   N1028   1.374   .     A
C965   O1042   1.376   .     S
C966   N835    1.374   1_565 A
C966   O1043   1.376   .     S
C966   C199    1.409   1_556 S
C967   O1044   1.376   .     S
C967   N836    1.380   1_565 S
C968   O1045   1.376   .     S
C968   C197    1.409   1_556 S
C968   N1027   1.380   .     S
C969   I1009   2.152   .     S
C969   C980    1.383   .     A
C969   C988    1.406   .     A
C970   C987    1.406   .     A
C970   C981    1.383   .     A
C970   I1017   2.152   .     S
C971   C978    1.383   .     A
C971   I1018   2.145   .     S
C971   C987    1.410   .     A
C972   C989    1.446   .     S
C972   O1046   1.300   .     A
C972   O1040   1.294   .     A
C973   C988    1.410   .     A
C973   C979    1.383   .     A
C973   I1019   2.145   .     S
C974   C990    1.410   .     A
C974   I1020   2.145   .     S
C974   C985    1.383   .     A
C975   C989    1.410   .     A
C975   C986    1.383   .     A
C975   I1021   2.145   .     S
C976   I1022   2.152   .     S
C976   C989    1.406   .     A
C976   C982    1.383   .     A
C977   C990    1.406   .     A
C977   C984    1.383   .     A
C977   I1023   2.152   .     S
C978   C992    1.406   .     A
C978   I1024   2.152   .     S
C979   C991    1.406   .     A
C979   I1010   2.152   .     S
C980   I1011   2.145   .     S
C980   C991    1.410   .     A
C981   C992    1.410   .     A
C981   I1012   2.145   .     S
C982   C995    1.410   .     A
C982   I1013   2.145   .     S
C983   C988    1.446   .     S
C983   O1048   1.300   .     A
C983   O1051   1.294   .     A
C984   I1014   2.145   .     S
C984   C993    1.410   .     A
C985   I1015   2.152   .     S
C985   C993    1.406   .     A
C986   I1016   2.152   .     S
C986   C995    1.406   .     A
C987   C994    1.446   .     S
C991   C999    1.446   .     S
C992   C998    1.446   .     S
C993   C997    1.446   .     S
C994   O1050   1.294   .     A
C994   O1049   1.300   .     A
C995   C996    1.446   .     S
C996   O1052   1.294   .     A
C996   O1032   1.300   .     A
C997   O1030   1.294   .     A
C997   O1031   1.300   .     A
C998   O1036   1.294   .     A
C998   O1033   1.300   .     A
C999   O1034   1.300   .     A
C999   O1035   1.294   .     A
C1000  N1026   1.374   .     A
C1000  O1037   1.376   .     S
H1001  O1037   0.978   .     S
H1002  O1038   0.978   .     S
H1003  O1039   0.975   .     S
H1004  O1041   0.975   .     S
H1005  O1042   0.978   .     S
H1006  O1043   0.978   .     S
H1007  O1044   0.975   .     S
H1008  O1045   0.975   .     S
N1025  Zn1053  2.027   .     S
N1026  Zn1054  2.027   .     S
N1027  Zn1055  2.027   .     S
N1028  Zn1056  2.027   .     S
O1029  Zn1053  2.013   .     S
O1030  Zn1056  2.013   .     S
O1031  Zn1055  1.993   .     S
O1032  Zn864   1.993   1_565 S
O1033  Zn864   1.993   1_565 S
O1034  Zn1055  1.993   .     S
O1035  Zn1056  2.013   .     S
O1036  Zn863   2.013   1_565 S
O1040  Zn1150  2.013   .     S
O1046  Zn1149  1.993   .     S
O1047  Zn1054  1.993   .     S
O1048  Zn1150  1.993   .     S
O1049  Zn1053  1.993   .     S
O1050  Zn1054  2.013   .     S
O1051  Zn1149  2.013   .     S
O1052  Zn863   2.013   1_565 S
Zn1053 O1142   1.993   1_455 S
Zn1053 O1147   2.013   1_455 S
Zn1054 O1144   1.993   1_455 S
Zn1054 O1136   2.013   1_455 S
C1057  O1143   1.300   .     A
C1057  O1125   1.294   .     A
C1057  C1086   1.446   .     S
C1058  N1121   1.374   .     A
C1058  O1134   1.376   .     S
C1058  C291    1.409   1_556 S
C1059  O1135   1.376   .     S
C1059  N1122   1.380   .     S
C1060  N1121   1.380   .     A
C1060  O1137   1.376   .     S
C1060  C328    1.409   1_556 S
C1061  N1124   1.374   .     A
C1061  O1138   1.376   .     S
C1062  N931    1.374   1_565 A
C1062  O1139   1.376   .     S
C1062  C295    1.409   1_556 S
C1063  O1140   1.376   .     S
C1063  N932    1.380   1_565 S
C1064  O1141   1.376   .     S
C1064  C293    1.409   1_556 S
C1064  N1123   1.380   .     S
C1065  I1105   2.152   .     S
C1065  C1076   1.383   .     A
C1065  C1084   1.406   .     A
C1066  C1083   1.406   .     A
C1066  C1077   1.383   .     A
C1066  I1113   2.152   .     S
C1067  C1074   1.383   .     A
C1067  I1114   2.145   .     S
C1067  C1083   1.410   .     A
C1068  C1085   1.446   .     S
C1068  O1142   1.300   .     A
C1068  O1136   1.294   .     A
C1069  C1084   1.410   .     A
C1069  C1075   1.383   .     A
C1069  I1115   2.145   .     S
C1070  C1086   1.410   .     A
C1070  I1116   2.145   .     S
C1070  C1081   1.383   .     A
C1071  C1085   1.410   .     A
C1071  C1082   1.383   .     A
C1071  I1117   2.145   .     S
C1072  I1118   2.152   .     S
C1072  C1085   1.406   .     A
C1072  C1078   1.383   .     A
C1073  C1086   1.406   .     A
C1073  C1080   1.383   .     A
C1073  I1119   2.152   .     S
C1074  C1088   1.406   .     A
C1074  I1120   2.152   .     S
C1075  C1087   1.406   .     A
C1075  I1106   2.152   .     S
C1076  I1107   2.145   .     S
C1076  C1087   1.410   .     A
C1077  C1088   1.410   .     A
C1077  I1108   2.145   .     S
C1078  C1091   1.410   .     A
C1078  I1109   2.145   .     S
C1079  C1084   1.446   .     S
C1079  O1144   1.300   .     A
C1079  O1147   1.294   .     A
C1080  I1110   2.145   .     S
C1080  C1089   1.410   .     A
C1081  I1111   2.152   .     S
C1081  C1089   1.406   .     A
C1082  I1112   2.152   .     S
C1082  C1091   1.406   .     A
C1083  C1090   1.446   .     S
C1087  C1095   1.446   .     S
C1088  C1094   1.446   .     S
C1089  C1093   1.446   .     S
C1090  O1146   1.294   .     A
C1090  O1145   1.300   .     A
C1091  C1092   1.446   .     S
C1092  O1148   1.294   .     A
C1092  O1128   1.300   .     A
C1093  O1126   1.294   .     A
C1093  O1127   1.300   .     A
C1094  O1132   1.294   .     A
C1094  O1129   1.300   .     A
C1095  O1130   1.300   .     A
C1095  O1131   1.294   .     A
C1096  N1122   1.374   .     A
C1096  O1133   1.376   .     S
H1097  O1133   0.978   .     S
H1098  O1134   0.978   .     S
H1099  O1135   0.975   .     S
H1100  O1137   0.975   .     S
H1101  O1138   0.978   .     S
H1102  O1139   0.978   .     S
H1103  O1140   0.975   .     S
H1104  O1141   0.975   .     S
N1121  Zn1149  2.027   .     S
N1122  Zn1150  2.027   .     S
N1123  Zn1151  2.027   .     S
N1124  Zn1152  2.027   .     S
O1125  Zn1149  2.013   .     S
O1126  Zn1152  2.013   .     S
O1127  Zn1151  1.993   .     S
O1128  Zn960   1.993   1_565 S
O1129  Zn960   1.993   1_565 S
O1130  Zn1151  1.993   .     S
O1131  Zn1152  2.013   .     S
O1132  Zn959   2.013   1_565 S
O1136  Zn1054  2.013   1_655 S
O1142  Zn1053  1.993   1_655 S
O1143  Zn1150  1.993   .     S
O1144  Zn1054  1.993   1_655 S
O1145  Zn1149  1.993   .     S
O1146  Zn1150  2.013   .     S
O1147  Zn1053  2.013   1_655 S
O1148  Zn959   2.013   1_565 S
