data_str_m3_o1_o2_pcu_sym.89
_audit_creation_date              2020-01-03
_audit_creation_method            'Materials Studio'
_symmetry_space_group_name_H-M    'P1'
_symmetry_Int_Tables_number       1
_symmetry_cell_setting            triclinic
loop_
_symmetry_equiv_pos_as_xyz
  x,y,z
_cell_length_a                    32.1800
_cell_length_b                    29.9006
_cell_length_c                    29.6541
_cell_angle_alpha                 89.4860
_cell_angle_beta                  92.2054
_cell_angle_gamma                 90.1272
loop_
_atom_site_label
_atom_site_type_symbol
_atom_site_fract_x
_atom_site_fract_y
_atom_site_fract_z
_atom_site_U_iso_or_equiv
_atom_site_adp_type
_atom_site_occupancy
C1     C     0.08677   0.16660   0.25079   0.00000  Uiso   1.00
C2     C     0.31228   0.20720   0.25288   0.00000  Uiso   1.00
C3     C     0.31193   0.12579   0.25005   0.00000  Uiso   1.00
C4     C     0.02149   0.20706   0.25462   0.00000  Uiso   1.00
C5     C     0.19177   0.21028   0.04880   0.00000  Uiso   1.00
C6     C     0.21489   0.14721   0.45025   0.00000  Uiso   1.00
C7     C     0.15445   0.19543   0.45572   0.00000  Uiso   1.00
C8     C     0.18942   0.12915   0.04683   0.00000  Uiso   1.00
C9     C     0.18579   0.20894   0.09468   0.00000  Uiso   1.00
C10    C     0.20784   0.14535   0.40396   0.00000  Uiso   1.00
C11    C     0.14717   0.19302   0.40956   0.00000  Uiso   1.00
C12    C     0.24659   0.16668   0.25008   0.00000  Uiso   1.00
C13    C     0.18314   0.12789   0.09274   0.00000  Uiso   1.00
C14    C     0.17876   0.16786   0.11636   0.00000  Uiso   1.00
C15    C     0.17334   0.16711   0.38404   0.00000  Uiso   1.00
C16    C     0.19190   0.17046   0.02467   0.00000  Uiso   1.00
C17    C     0.18798   0.17204   0.47607   0.00000  Uiso   1.00
C18    C     0.29084   0.16658   0.25078   0.00000  Uiso   1.00
C19    C     0.04260   0.16643   0.25232   0.00000  Uiso   1.00
C20    C     0.20936   0.04666   0.32113   0.00000  Uiso   1.00
C21    C     0.11775   0.28580   0.18411   0.00000  Uiso   1.00
C22    C     0.12049   0.04753   0.18095   0.00000  Uiso   1.00
C23    C     0.16933   0.16691   0.16391   0.00000  Uiso   1.00
C24    C     0.21044   0.28475   0.31994   0.00000  Uiso   1.00
C25    C     0.16738   0.16661   0.33603   0.00000  Uiso   1.00
C26    C     0.18757   0.02357   0.28345   0.00000  Uiso   1.00
C27    C     0.14466   0.30954   0.21740   0.00000  Uiso   1.00
C28    C     0.14496   0.02401   0.21703   0.00000  Uiso   1.00
C29    C     0.18771   0.30911   0.28330   0.00000  Uiso   1.00
C30    C     0.02119   0.12572   0.25087   0.00000  Uiso   1.00
H31    H     0.19466   0.24231   0.03179   0.00000  Uiso   1.00
H32    H     0.29643   0.23904   0.25305   0.00000  Uiso   1.00
H33    H     0.29573   0.09401   0.24852   0.00000  Uiso   1.00
H34    H     0.03762   0.23872   0.25752   0.00000  Uiso   1.00
H35    H     0.21522   0.05281   0.38883   0.00000  Uiso   1.00
H36    H     0.06163   0.25863   0.16922   0.00000  Uiso   1.00
H37    H     0.11017   0.05744   0.11413   0.00000  Uiso   1.00
H38    H     0.26296   0.25319   0.34109   0.00000  Uiso   1.00
H39    H     0.24105   0.12947   0.46593   0.00000  Uiso   1.00
H40    H     0.13330   0.21436   0.47573   0.00000  Uiso   1.00
H41    H     0.18996   0.09813   0.02824   0.00000  Uiso   1.00
H42    H     0.18625   0.24006   0.11281   0.00000  Uiso   1.00
H43    H     0.22966   0.12792   0.38358   0.00000  Uiso   1.00
H44    H     0.12110   0.21088   0.39380   0.00000  Uiso   1.00
H45    H     0.18112   0.09582   0.10942   0.00000  Uiso   1.00
H46    H     0.03711   0.09390   0.25017   0.00000  Uiso   1.00
N47    N     0.16667   0.28573   0.25000   0.00000  Uiso   1.00
N48    N     0.16667   0.04760   0.25000   0.00000  Uiso   1.00
O49    O     0.10559   0.20487   0.24999   0.00000  Uiso   1.00
O50    O     0.19492   0.04128   0.36471   0.00000  Uiso   1.00
O51    O     0.12932   0.28047   0.14583   0.00000  Uiso   1.00
O52    O     0.07754   0.27359   0.19514   0.00000  Uiso   1.00
O53    O     0.08986   0.06909   0.18999   0.00000  Uiso   1.00
O54    O     0.13013   0.04127   0.13594   0.00000  Uiso   1.00
O55    O     0.19489   0.28046   0.35671   0.00000  Uiso   1.00
O56    O     0.25049   0.26901   0.31339   0.00000  Uiso   1.00
O57    O     0.22774   0.12846   0.25000   0.00000  Uiso   1.00
O58    O     0.22774   0.20487   0.25000   0.00000  Uiso   1.00
O59    O     0.10559   0.12846   0.24999   0.00000  Uiso   1.00
O60    O     0.16666   0.20489   0.18453   0.00000  Uiso   1.00
O61    O     0.16667   0.12845   0.31547   0.00000  Uiso   1.00
O62    O     0.16667   0.20489   0.31547   0.00000  Uiso   1.00
O63    O     0.16666   0.12845   0.18453   0.00000  Uiso   1.00
O64    O     0.24131   0.06749   0.31486   0.00000  Uiso   1.00
Zn65   Zn    0.16667   0.21771   0.25000   0.00000  Uiso   1.00
Zn66   Zn    0.16667   0.11563   0.25000   0.00000  Uiso   1.00
C67    C     0.42011   0.16660   0.25079   0.00000  Uiso   1.00
C68    C     0.64561   0.20720   0.25288   0.00000  Uiso   1.00
C69    C     0.64527   0.12579   0.25005   0.00000  Uiso   1.00
C70    C     0.35483   0.20706   0.25462   0.00000  Uiso   1.00
C71    C     0.52511   0.21028   0.04880   0.00000  Uiso   1.00
C72    C     0.54822   0.14721   0.45025   0.00000  Uiso   1.00
C73    C     0.48779   0.19543   0.45572   0.00000  Uiso   1.00
C74    C     0.52275   0.12915   0.04683   0.00000  Uiso   1.00
C75    C     0.51913   0.20894   0.09468   0.00000  Uiso   1.00
C76    C     0.54118   0.14535   0.40396   0.00000  Uiso   1.00
C77    C     0.48050   0.19302   0.40956   0.00000  Uiso   1.00
C78    C     0.57993   0.16668   0.25008   0.00000  Uiso   1.00
C79    C     0.51647   0.12789   0.09274   0.00000  Uiso   1.00
C80    C     0.51209   0.16786   0.11636   0.00000  Uiso   1.00
C81    C     0.50667   0.16711   0.38404   0.00000  Uiso   1.00
C82    C     0.52523   0.17046   0.02467   0.00000  Uiso   1.00
C83    C     0.52132   0.17204   0.47607   0.00000  Uiso   1.00
C84    C     0.62417   0.16658   0.25078   0.00000  Uiso   1.00
C85    C     0.37593   0.16643   0.25232   0.00000  Uiso   1.00
C86    C     0.54269   0.04666   0.32113   0.00000  Uiso   1.00
C87    C     0.45109   0.28580   0.18411   0.00000  Uiso   1.00
C88    C     0.45382   0.04753   0.18095   0.00000  Uiso   1.00
C89    C     0.50266   0.16691   0.16391   0.00000  Uiso   1.00
C90    C     0.54378   0.28475   0.31994   0.00000  Uiso   1.00
C91    C     0.50072   0.16661   0.33603   0.00000  Uiso   1.00
C92    C     0.52090   0.02357   0.28345   0.00000  Uiso   1.00
C93    C     0.47799   0.30954   0.21740   0.00000  Uiso   1.00
C94    C     0.47829   0.02401   0.21703   0.00000  Uiso   1.00
C95    C     0.52104   0.30911   0.28330   0.00000  Uiso   1.00
C96    C     0.35453   0.12572   0.25087   0.00000  Uiso   1.00
H97    H     0.52799   0.24231   0.03179   0.00000  Uiso   1.00
H98    H     0.62976   0.23904   0.25305   0.00000  Uiso   1.00
H99    H     0.62906   0.09401   0.24852   0.00000  Uiso   1.00
H100   H     0.37095   0.23872   0.25752   0.00000  Uiso   1.00
H101   H     0.54855   0.05281   0.38883   0.00000  Uiso   1.00
H102   H     0.39496   0.25863   0.16922   0.00000  Uiso   1.00
H103   H     0.44350   0.05744   0.11413   0.00000  Uiso   1.00
H104   H     0.59629   0.25319   0.34109   0.00000  Uiso   1.00
H105   H     0.57438   0.12947   0.46593   0.00000  Uiso   1.00
H106   H     0.46664   0.21436   0.47573   0.00000  Uiso   1.00
H107   H     0.52329   0.09813   0.02824   0.00000  Uiso   1.00
H108   H     0.51958   0.24006   0.11281   0.00000  Uiso   1.00
H109   H     0.56299   0.12792   0.38358   0.00000  Uiso   1.00
H110   H     0.45443   0.21088   0.39380   0.00000  Uiso   1.00
H111   H     0.51445   0.09582   0.10942   0.00000  Uiso   1.00
H112   H     0.37044   0.09390   0.25017   0.00000  Uiso   1.00
N113   N     0.50000   0.28573   0.25000   0.00000  Uiso   1.00
N114   N     0.50000   0.04760   0.25000   0.00000  Uiso   1.00
O115   O     0.43892   0.20487   0.24999   0.00000  Uiso   1.00
O116   O     0.52826   0.04128   0.36471   0.00000  Uiso   1.00
O117   O     0.46265   0.28047   0.14583   0.00000  Uiso   1.00
O118   O     0.41088   0.27359   0.19514   0.00000  Uiso   1.00
O119   O     0.42320   0.06909   0.18999   0.00000  Uiso   1.00
O120   O     0.46347   0.04127   0.13594   0.00000  Uiso   1.00
O121   O     0.52822   0.28046   0.35671   0.00000  Uiso   1.00
O122   O     0.58382   0.26901   0.31339   0.00000  Uiso   1.00
O123   O     0.56108   0.12846   0.25000   0.00000  Uiso   1.00
O124   O     0.56108   0.20487   0.25000   0.00000  Uiso   1.00
O125   O     0.43892   0.12846   0.24999   0.00000  Uiso   1.00
O126   O     0.50000   0.20489   0.18453   0.00000  Uiso   1.00
O127   O     0.50000   0.12845   0.31547   0.00000  Uiso   1.00
O128   O     0.50000   0.20489   0.31547   0.00000  Uiso   1.00
O129   O     0.50000   0.12845   0.18453   0.00000  Uiso   1.00
O130   O     0.57464   0.06749   0.31486   0.00000  Uiso   1.00
Zn131  Zn    0.50000   0.21771   0.25000   0.00000  Uiso   1.00
Zn132  Zn    0.50000   0.11563   0.25000   0.00000  Uiso   1.00
C133   C     0.75344   0.16660   0.25079   0.00000  Uiso   1.00
C134   C     0.97894   0.20720   0.25288   0.00000  Uiso   1.00
C135   C     0.97860   0.12579   0.25005   0.00000  Uiso   1.00
C136   C     0.68816   0.20706   0.25462   0.00000  Uiso   1.00
C137   C     0.85844   0.21028   0.04880   0.00000  Uiso   1.00
C138   C     0.88156   0.14721   0.45025   0.00000  Uiso   1.00
C139   C     0.82112   0.19543   0.45572   0.00000  Uiso   1.00
C140   C     0.85608   0.12915   0.04683   0.00000  Uiso   1.00
C141   C     0.85246   0.20894   0.09468   0.00000  Uiso   1.00
C142   C     0.87451   0.14535   0.40396   0.00000  Uiso   1.00
C143   C     0.81384   0.19302   0.40956   0.00000  Uiso   1.00
C144   C     0.91326   0.16668   0.25008   0.00000  Uiso   1.00
C145   C     0.84980   0.12789   0.09274   0.00000  Uiso   1.00
C146   C     0.84542   0.16786   0.11636   0.00000  Uiso   1.00
C147   C     0.84000   0.16711   0.38404   0.00000  Uiso   1.00
C148   C     0.85856   0.17046   0.02467   0.00000  Uiso   1.00
C149   C     0.85465   0.17204   0.47607   0.00000  Uiso   1.00
C150   C     0.95750   0.16658   0.25078   0.00000  Uiso   1.00
C151   C     0.70926   0.16643   0.25232   0.00000  Uiso   1.00
C152   C     0.87603   0.04666   0.32113   0.00000  Uiso   1.00
C153   C     0.78442   0.28580   0.18411   0.00000  Uiso   1.00
C154   C     0.78716   0.04753   0.18095   0.00000  Uiso   1.00
C155   C     0.83599   0.16691   0.16391   0.00000  Uiso   1.00
C156   C     0.87711   0.28475   0.31994   0.00000  Uiso   1.00
C157   C     0.83405   0.16661   0.33603   0.00000  Uiso   1.00
C158   C     0.85423   0.02357   0.28345   0.00000  Uiso   1.00
C159   C     0.81132   0.30954   0.21740   0.00000  Uiso   1.00
C160   C     0.81163   0.02401   0.21703   0.00000  Uiso   1.00
C161   C     0.85437   0.30911   0.28330   0.00000  Uiso   1.00
C162   C     0.68786   0.12572   0.25087   0.00000  Uiso   1.00
H163   H     0.86132   0.24231   0.03179   0.00000  Uiso   1.00
H164   H     0.96310   0.23904   0.25305   0.00000  Uiso   1.00
H165   H     0.96240   0.09401   0.24852   0.00000  Uiso   1.00
H166   H     0.70429   0.23872   0.25752   0.00000  Uiso   1.00
H167   H     0.88188   0.05281   0.38883   0.00000  Uiso   1.00
H168   H     0.72830   0.25863   0.16922   0.00000  Uiso   1.00
H169   H     0.77684   0.05744   0.11413   0.00000  Uiso   1.00
H170   H     0.92962   0.25319   0.34109   0.00000  Uiso   1.00
H171   H     0.90772   0.12947   0.46593   0.00000  Uiso   1.00
H172   H     0.79997   0.21436   0.47573   0.00000  Uiso   1.00
H173   H     0.85663   0.09813   0.02824   0.00000  Uiso   1.00
H174   H     0.85292   0.24006   0.11281   0.00000  Uiso   1.00
H175   H     0.89633   0.12792   0.38358   0.00000  Uiso   1.00
H176   H     0.78777   0.21088   0.39380   0.00000  Uiso   1.00
H177   H     0.84779   0.09582   0.10942   0.00000  Uiso   1.00
H178   H     0.70378   0.09390   0.25017   0.00000  Uiso   1.00
N179   N     0.83333   0.28573   0.25000   0.00000  Uiso   1.00
N180   N     0.83333   0.04760   0.25000   0.00000  Uiso   1.00
O181   O     0.77226   0.20487   0.24999   0.00000  Uiso   1.00
O182   O     0.86159   0.04128   0.36471   0.00000  Uiso   1.00
O183   O     0.79598   0.28047   0.14583   0.00000  Uiso   1.00
O184   O     0.74421   0.27359   0.19514   0.00000  Uiso   1.00
O185   O     0.75653   0.06909   0.18999   0.00000  Uiso   1.00
O186   O     0.79680   0.04127   0.13594   0.00000  Uiso   1.00
O187   O     0.86155   0.28046   0.35671   0.00000  Uiso   1.00
O188   O     0.91715   0.26901   0.31339   0.00000  Uiso   1.00
O189   O     0.89441   0.12846   0.25000   0.00000  Uiso   1.00
O190   O     0.89441   0.20487   0.25000   0.00000  Uiso   1.00
O191   O     0.77226   0.12846   0.24999   0.00000  Uiso   1.00
O192   O     0.83333   0.20489   0.18453   0.00000  Uiso   1.00
O193   O     0.83334   0.12845   0.31547   0.00000  Uiso   1.00
O194   O     0.83334   0.20489   0.31547   0.00000  Uiso   1.00
O195   O     0.83333   0.12845   0.18453   0.00000  Uiso   1.00
O196   O     0.90798   0.06749   0.31486   0.00000  Uiso   1.00
Zn197  Zn    0.83333   0.21771   0.25000   0.00000  Uiso   1.00
Zn198  Zn    0.83333   0.11563   0.25000   0.00000  Uiso   1.00
C199   C     0.08677   0.49993   0.25079   0.00000  Uiso   1.00
C200   C     0.31228   0.54053   0.25288   0.00000  Uiso   1.00
C201   C     0.31193   0.45912   0.25005   0.00000  Uiso   1.00
C202   C     0.02149   0.54039   0.25462   0.00000  Uiso   1.00
C203   C     0.19177   0.54362   0.04880   0.00000  Uiso   1.00
C204   C     0.21489   0.48055   0.45025   0.00000  Uiso   1.00
C205   C     0.15445   0.52877   0.45572   0.00000  Uiso   1.00
C206   C     0.18942   0.46248   0.04683   0.00000  Uiso   1.00
C207   C     0.18579   0.54227   0.09468   0.00000  Uiso   1.00
C208   C     0.20784   0.47869   0.40396   0.00000  Uiso   1.00
C209   C     0.14717   0.52636   0.40956   0.00000  Uiso   1.00
C210   C     0.24659   0.50001   0.25008   0.00000  Uiso   1.00
C211   C     0.18314   0.46122   0.09274   0.00000  Uiso   1.00
C212   C     0.17876   0.50119   0.11636   0.00000  Uiso   1.00
C213   C     0.17334   0.50045   0.38404   0.00000  Uiso   1.00
C214   C     0.19190   0.50379   0.02467   0.00000  Uiso   1.00
C215   C     0.18798   0.50537   0.47607   0.00000  Uiso   1.00
C216   C     0.29084   0.49991   0.25078   0.00000  Uiso   1.00
C217   C     0.04260   0.49976   0.25232   0.00000  Uiso   1.00
C218   C     0.20936   0.37999   0.32113   0.00000  Uiso   1.00
C219   C     0.11775   0.61913   0.18411   0.00000  Uiso   1.00
C220   C     0.12049   0.38086   0.18095   0.00000  Uiso   1.00
C221   C     0.16933   0.50025   0.16391   0.00000  Uiso   1.00
C222   C     0.21044   0.61809   0.31994   0.00000  Uiso   1.00
C223   C     0.16738   0.49994   0.33603   0.00000  Uiso   1.00
C224   C     0.18757   0.35690   0.28345   0.00000  Uiso   1.00
C225   C     0.14466   0.64287   0.21740   0.00000  Uiso   1.00
C226   C     0.14496   0.35735   0.21703   0.00000  Uiso   1.00
C227   C     0.18771   0.64244   0.28330   0.00000  Uiso   1.00
C228   C     0.02119   0.45905   0.25087   0.00000  Uiso   1.00
H229   H     0.19466   0.57564   0.03179   0.00000  Uiso   1.00
H230   H     0.29643   0.57238   0.25305   0.00000  Uiso   1.00
H231   H     0.29573   0.42735   0.24852   0.00000  Uiso   1.00
H232   H     0.03762   0.57206   0.25752   0.00000  Uiso   1.00
H233   H     0.21522   0.38614   0.38883   0.00000  Uiso   1.00
H234   H     0.06163   0.59196   0.16922   0.00000  Uiso   1.00
H235   H     0.11017   0.39077   0.11413   0.00000  Uiso   1.00
H236   H     0.26296   0.58653   0.34109   0.00000  Uiso   1.00
H237   H     0.24105   0.46280   0.46593   0.00000  Uiso   1.00
H238   H     0.13330   0.54769   0.47573   0.00000  Uiso   1.00
H239   H     0.18996   0.43146   0.02824   0.00000  Uiso   1.00
H240   H     0.18625   0.57340   0.11281   0.00000  Uiso   1.00
H241   H     0.22966   0.46125   0.38358   0.00000  Uiso   1.00
H242   H     0.12110   0.54421   0.39380   0.00000  Uiso   1.00
H243   H     0.18112   0.42915   0.10942   0.00000  Uiso   1.00
H244   H     0.03711   0.42724   0.25017   0.00000  Uiso   1.00
N245   N     0.16667   0.61907   0.25000   0.00000  Uiso   1.00
N246   N     0.16667   0.38093   0.25000   0.00000  Uiso   1.00
O247   O     0.10559   0.53821   0.24999   0.00000  Uiso   1.00
O248   O     0.19492   0.37461   0.36471   0.00000  Uiso   1.00
O249   O     0.12932   0.61381   0.14583   0.00000  Uiso   1.00
O250   O     0.07754   0.60692   0.19514   0.00000  Uiso   1.00
O251   O     0.08986   0.40242   0.18999   0.00000  Uiso   1.00
O252   O     0.13013   0.37460   0.13594   0.00000  Uiso   1.00
O253   O     0.19489   0.61379   0.35671   0.00000  Uiso   1.00
O254   O     0.25049   0.60235   0.31339   0.00000  Uiso   1.00
O255   O     0.22774   0.46179   0.25000   0.00000  Uiso   1.00
O256   O     0.22774   0.53821   0.25000   0.00000  Uiso   1.00
O257   O     0.10559   0.46179   0.24999   0.00000  Uiso   1.00
O258   O     0.16666   0.53822   0.18453   0.00000  Uiso   1.00
O259   O     0.16667   0.46178   0.31547   0.00000  Uiso   1.00
O260   O     0.16667   0.53822   0.31547   0.00000  Uiso   1.00
O261   O     0.16666   0.46178   0.18453   0.00000  Uiso   1.00
O262   O     0.24131   0.40083   0.31486   0.00000  Uiso   1.00
Zn263  Zn    0.16667   0.55104   0.25000   0.00000  Uiso   1.00
Zn264  Zn    0.16667   0.44896   0.25000   0.00000  Uiso   1.00
C265   C     0.42011   0.49993   0.25079   0.00000  Uiso   1.00
C266   C     0.64561   0.54053   0.25288   0.00000  Uiso   1.00
C267   C     0.64527   0.45912   0.25005   0.00000  Uiso   1.00
C268   C     0.35483   0.54039   0.25462   0.00000  Uiso   1.00
C269   C     0.52511   0.54362   0.04880   0.00000  Uiso   1.00
C270   C     0.54822   0.48055   0.45025   0.00000  Uiso   1.00
C271   C     0.48779   0.52877   0.45572   0.00000  Uiso   1.00
C272   C     0.52275   0.46248   0.04683   0.00000  Uiso   1.00
C273   C     0.51913   0.54227   0.09468   0.00000  Uiso   1.00
C274   C     0.54118   0.47869   0.40396   0.00000  Uiso   1.00
C275   C     0.48050   0.52636   0.40956   0.00000  Uiso   1.00
C276   C     0.57993   0.50001   0.25008   0.00000  Uiso   1.00
C277   C     0.51647   0.46122   0.09274   0.00000  Uiso   1.00
C278   C     0.51209   0.50119   0.11636   0.00000  Uiso   1.00
C279   C     0.50667   0.50045   0.38404   0.00000  Uiso   1.00
C280   C     0.52523   0.50379   0.02467   0.00000  Uiso   1.00
C281   C     0.52132   0.50537   0.47607   0.00000  Uiso   1.00
C282   C     0.62417   0.49991   0.25078   0.00000  Uiso   1.00
C283   C     0.37593   0.49976   0.25232   0.00000  Uiso   1.00
C284   C     0.54269   0.37999   0.32113   0.00000  Uiso   1.00
C285   C     0.45109   0.61913   0.18411   0.00000  Uiso   1.00
C286   C     0.45382   0.38086   0.18095   0.00000  Uiso   1.00
C287   C     0.50266   0.50025   0.16391   0.00000  Uiso   1.00
C288   C     0.54378   0.61809   0.31994   0.00000  Uiso   1.00
C289   C     0.50072   0.49994   0.33603   0.00000  Uiso   1.00
C290   C     0.52090   0.35690   0.28345   0.00000  Uiso   1.00
C291   C     0.47799   0.64287   0.21740   0.00000  Uiso   1.00
C292   C     0.47829   0.35735   0.21703   0.00000  Uiso   1.00
C293   C     0.52104   0.64244   0.28330   0.00000  Uiso   1.00
C294   C     0.35453   0.45905   0.25087   0.00000  Uiso   1.00
H295   H     0.52799   0.57564   0.03179   0.00000  Uiso   1.00
H296   H     0.62976   0.57238   0.25305   0.00000  Uiso   1.00
H297   H     0.62906   0.42735   0.24852   0.00000  Uiso   1.00
H298   H     0.37095   0.57206   0.25752   0.00000  Uiso   1.00
H299   H     0.54855   0.38614   0.38883   0.00000  Uiso   1.00
H300   H     0.39496   0.59196   0.16922   0.00000  Uiso   1.00
H301   H     0.44350   0.39077   0.11413   0.00000  Uiso   1.00
H302   H     0.59629   0.58653   0.34109   0.00000  Uiso   1.00
H303   H     0.57438   0.46280   0.46593   0.00000  Uiso   1.00
H304   H     0.46664   0.54769   0.47573   0.00000  Uiso   1.00
H305   H     0.52329   0.43146   0.02824   0.00000  Uiso   1.00
H306   H     0.51958   0.57340   0.11281   0.00000  Uiso   1.00
H307   H     0.56299   0.46125   0.38358   0.00000  Uiso   1.00
H308   H     0.45443   0.54421   0.39380   0.00000  Uiso   1.00
H309   H     0.51445   0.42915   0.10942   0.00000  Uiso   1.00
H310   H     0.37044   0.42724   0.25017   0.00000  Uiso   1.00
N311   N     0.50000   0.61907   0.25000   0.00000  Uiso   1.00
N312   N     0.50000   0.38093   0.25000   0.00000  Uiso   1.00
O313   O     0.43892   0.53821   0.24999   0.00000  Uiso   1.00
O314   O     0.52826   0.37461   0.36471   0.00000  Uiso   1.00
O315   O     0.46265   0.61381   0.14583   0.00000  Uiso   1.00
O316   O     0.41088   0.60692   0.19514   0.00000  Uiso   1.00
O317   O     0.42320   0.40242   0.18999   0.00000  Uiso   1.00
O318   O     0.46347   0.37460   0.13594   0.00000  Uiso   1.00
O319   O     0.52822   0.61379   0.35671   0.00000  Uiso   1.00
O320   O     0.58382   0.60235   0.31339   0.00000  Uiso   1.00
O321   O     0.56108   0.46179   0.25000   0.00000  Uiso   1.00
O322   O     0.56108   0.53821   0.25000   0.00000  Uiso   1.00
O323   O     0.43892   0.46179   0.24999   0.00000  Uiso   1.00
O324   O     0.50000   0.53822   0.18453   0.00000  Uiso   1.00
O325   O     0.50000   0.46178   0.31547   0.00000  Uiso   1.00
O326   O     0.50000   0.53822   0.31547   0.00000  Uiso   1.00
O327   O     0.50000   0.46178   0.18453   0.00000  Uiso   1.00
O328   O     0.57464   0.40083   0.31486   0.00000  Uiso   1.00
Zn329  Zn    0.50000   0.55104   0.25000   0.00000  Uiso   1.00
Zn330  Zn    0.50000   0.44896   0.25000   0.00000  Uiso   1.00
C331   C     0.75344   0.49993   0.25079   0.00000  Uiso   1.00
C332   C     0.97894   0.54053   0.25288   0.00000  Uiso   1.00
C333   C     0.97860   0.45912   0.25005   0.00000  Uiso   1.00
C334   C     0.68816   0.54039   0.25462   0.00000  Uiso   1.00
C335   C     0.85844   0.54362   0.04880   0.00000  Uiso   1.00
C336   C     0.88156   0.48055   0.45025   0.00000  Uiso   1.00
C337   C     0.82112   0.52877   0.45572   0.00000  Uiso   1.00
C338   C     0.85608   0.46248   0.04683   0.00000  Uiso   1.00
C339   C     0.85246   0.54227   0.09468   0.00000  Uiso   1.00
C340   C     0.87451   0.47869   0.40396   0.00000  Uiso   1.00
C341   C     0.81384   0.52636   0.40956   0.00000  Uiso   1.00
C342   C     0.91326   0.50001   0.25008   0.00000  Uiso   1.00
C343   C     0.84980   0.46122   0.09274   0.00000  Uiso   1.00
C344   C     0.84542   0.50119   0.11636   0.00000  Uiso   1.00
C345   C     0.84000   0.50045   0.38404   0.00000  Uiso   1.00
C346   C     0.85856   0.50379   0.02467   0.00000  Uiso   1.00
C347   C     0.85465   0.50537   0.47607   0.00000  Uiso   1.00
C348   C     0.95750   0.49991   0.25078   0.00000  Uiso   1.00
C349   C     0.70926   0.49976   0.25232   0.00000  Uiso   1.00
C350   C     0.87603   0.37999   0.32113   0.00000  Uiso   1.00
C351   C     0.78442   0.61913   0.18411   0.00000  Uiso   1.00
C352   C     0.78716   0.38086   0.18095   0.00000  Uiso   1.00
C353   C     0.83599   0.50025   0.16391   0.00000  Uiso   1.00
C354   C     0.87711   0.61809   0.31994   0.00000  Uiso   1.00
C355   C     0.83405   0.49994   0.33603   0.00000  Uiso   1.00
C356   C     0.85423   0.35690   0.28345   0.00000  Uiso   1.00
C357   C     0.81132   0.64287   0.21740   0.00000  Uiso   1.00
C358   C     0.81163   0.35735   0.21703   0.00000  Uiso   1.00
C359   C     0.85437   0.64244   0.28330   0.00000  Uiso   1.00
C360   C     0.68786   0.45905   0.25087   0.00000  Uiso   1.00
H361   H     0.86132   0.57564   0.03179   0.00000  Uiso   1.00
H362   H     0.96310   0.57238   0.25305   0.00000  Uiso   1.00
H363   H     0.96240   0.42735   0.24852   0.00000  Uiso   1.00
H364   H     0.70429   0.57206   0.25752   0.00000  Uiso   1.00
H365   H     0.88188   0.38614   0.38883   0.00000  Uiso   1.00
H366   H     0.72830   0.59196   0.16922   0.00000  Uiso   1.00
H367   H     0.77684   0.39077   0.11413   0.00000  Uiso   1.00
H368   H     0.92962   0.58653   0.34109   0.00000  Uiso   1.00
H369   H     0.90772   0.46280   0.46593   0.00000  Uiso   1.00
H370   H     0.79997   0.54769   0.47573   0.00000  Uiso   1.00
H371   H     0.85663   0.43146   0.02824   0.00000  Uiso   1.00
H372   H     0.85292   0.57340   0.11281   0.00000  Uiso   1.00
H373   H     0.89633   0.46125   0.38358   0.00000  Uiso   1.00
H374   H     0.78777   0.54421   0.39380   0.00000  Uiso   1.00
H375   H     0.84779   0.42915   0.10942   0.00000  Uiso   1.00
H376   H     0.70378   0.42724   0.25017   0.00000  Uiso   1.00
N377   N     0.83333   0.61907   0.25000   0.00000  Uiso   1.00
N378   N     0.83333   0.38093   0.25000   0.00000  Uiso   1.00
O379   O     0.77226   0.53821   0.24999   0.00000  Uiso   1.00
O380   O     0.86159   0.37461   0.36471   0.00000  Uiso   1.00
O381   O     0.79598   0.61381   0.14583   0.00000  Uiso   1.00
O382   O     0.74421   0.60692   0.19514   0.00000  Uiso   1.00
O383   O     0.75653   0.40242   0.18999   0.00000  Uiso   1.00
O384   O     0.79680   0.37460   0.13594   0.00000  Uiso   1.00
O385   O     0.86155   0.61379   0.35671   0.00000  Uiso   1.00
O386   O     0.91715   0.60235   0.31339   0.00000  Uiso   1.00
O387   O     0.89441   0.46179   0.25000   0.00000  Uiso   1.00
O388   O     0.89441   0.53821   0.25000   0.00000  Uiso   1.00
O389   O     0.77226   0.46179   0.24999   0.00000  Uiso   1.00
O390   O     0.83333   0.53822   0.18453   0.00000  Uiso   1.00
O391   O     0.83334   0.46178   0.31547   0.00000  Uiso   1.00
O392   O     0.83334   0.53822   0.31547   0.00000  Uiso   1.00
O393   O     0.83333   0.46178   0.18453   0.00000  Uiso   1.00
O394   O     0.90798   0.40083   0.31486   0.00000  Uiso   1.00
Zn395  Zn    0.83333   0.55104   0.25000   0.00000  Uiso   1.00
Zn396  Zn    0.83333   0.44896   0.25000   0.00000  Uiso   1.00
C397   C     0.08677   0.83327   0.25079   0.00000  Uiso   1.00
C398   C     0.31228   0.87386   0.25288   0.00000  Uiso   1.00
C399   C     0.31193   0.79245   0.25005   0.00000  Uiso   1.00
C400   C     0.02149   0.87373   0.25462   0.00000  Uiso   1.00
C401   C     0.19177   0.87695   0.04880   0.00000  Uiso   1.00
C402   C     0.21489   0.81388   0.45025   0.00000  Uiso   1.00
C403   C     0.15445   0.86210   0.45572   0.00000  Uiso   1.00
C404   C     0.18942   0.79582   0.04683   0.00000  Uiso   1.00
C405   C     0.18579   0.87560   0.09468   0.00000  Uiso   1.00
C406   C     0.20784   0.81202   0.40396   0.00000  Uiso   1.00
C407   C     0.14717   0.85969   0.40956   0.00000  Uiso   1.00
C408   C     0.24659   0.83334   0.25008   0.00000  Uiso   1.00
C409   C     0.18314   0.79455   0.09274   0.00000  Uiso   1.00
C410   C     0.17876   0.83453   0.11636   0.00000  Uiso   1.00
C411   C     0.17334   0.83378   0.38404   0.00000  Uiso   1.00
C412   C     0.19190   0.83713   0.02467   0.00000  Uiso   1.00
C413   C     0.18798   0.83871   0.47607   0.00000  Uiso   1.00
C414   C     0.29084   0.83324   0.25078   0.00000  Uiso   1.00
C415   C     0.04260   0.83310   0.25232   0.00000  Uiso   1.00
C416   C     0.20936   0.71332   0.32113   0.00000  Uiso   1.00
C417   C     0.11775   0.95247   0.18411   0.00000  Uiso   1.00
C418   C     0.12049   0.71419   0.18095   0.00000  Uiso   1.00
C419   C     0.16933   0.83358   0.16391   0.00000  Uiso   1.00
C420   C     0.21044   0.95142   0.31994   0.00000  Uiso   1.00
C421   C     0.16738   0.83327   0.33603   0.00000  Uiso   1.00
C422   C     0.18757   0.69023   0.28345   0.00000  Uiso   1.00
C423   C     0.14466   0.97620   0.21740   0.00000  Uiso   1.00
C424   C     0.14496   0.69068   0.21703   0.00000  Uiso   1.00
C425   C     0.18771   0.97577   0.28330   0.00000  Uiso   1.00
C426   C     0.02119   0.79239   0.25087   0.00000  Uiso   1.00
H427   H     0.19466   0.90898   0.03179   0.00000  Uiso   1.00
H428   H     0.29643   0.90571   0.25305   0.00000  Uiso   1.00
H429   H     0.29573   0.76068   0.24852   0.00000  Uiso   1.00
H430   H     0.03762   0.90539   0.25752   0.00000  Uiso   1.00
H431   H     0.21522   0.71947   0.38883   0.00000  Uiso   1.00
H432   H     0.06163   0.92529   0.16922   0.00000  Uiso   1.00
H433   H     0.11017   0.72410   0.11413   0.00000  Uiso   1.00
H434   H     0.26296   0.91986   0.34109   0.00000  Uiso   1.00
H435   H     0.24105   0.79613   0.46593   0.00000  Uiso   1.00
H436   H     0.13330   0.88102   0.47573   0.00000  Uiso   1.00
H437   H     0.18996   0.76480   0.02824   0.00000  Uiso   1.00
H438   H     0.18625   0.90673   0.11281   0.00000  Uiso   1.00
H439   H     0.22966   0.79458   0.38358   0.00000  Uiso   1.00
H440   H     0.12110   0.87755   0.39380   0.00000  Uiso   1.00
H441   H     0.18112   0.76248   0.10942   0.00000  Uiso   1.00
H442   H     0.03711   0.76057   0.25017   0.00000  Uiso   1.00
N443   N     0.16667   0.95240   0.25000   0.00000  Uiso   1.00
N444   N     0.16667   0.71427   0.25000   0.00000  Uiso   1.00
O445   O     0.10559   0.87154   0.24999   0.00000  Uiso   1.00
O446   O     0.19492   0.70794   0.36471   0.00000  Uiso   1.00
O447   O     0.12932   0.94714   0.14583   0.00000  Uiso   1.00
O448   O     0.07754   0.94025   0.19514   0.00000  Uiso   1.00
O449   O     0.08986   0.73576   0.18999   0.00000  Uiso   1.00
O450   O     0.13013   0.70794   0.13594   0.00000  Uiso   1.00
O451   O     0.19489   0.94713   0.35671   0.00000  Uiso   1.00
O452   O     0.25049   0.93568   0.31339   0.00000  Uiso   1.00
O453   O     0.22774   0.79513   0.25000   0.00000  Uiso   1.00
O454   O     0.22774   0.87154   0.25000   0.00000  Uiso   1.00
O455   O     0.10559   0.79513   0.24999   0.00000  Uiso   1.00
O456   O     0.16666   0.87155   0.18453   0.00000  Uiso   1.00
O457   O     0.16667   0.79511   0.31547   0.00000  Uiso   1.00
O458   O     0.16667   0.87155   0.31547   0.00000  Uiso   1.00
O459   O     0.16666   0.79511   0.18453   0.00000  Uiso   1.00
O460   O     0.24131   0.73416   0.31486   0.00000  Uiso   1.00
Zn461  Zn    0.16667   0.88437   0.25000   0.00000  Uiso   1.00
Zn462  Zn    0.16667   0.78229   0.25000   0.00000  Uiso   1.00
C463   C     0.42011   0.83327   0.25079   0.00000  Uiso   1.00
C464   C     0.64561   0.87386   0.25288   0.00000  Uiso   1.00
C465   C     0.64527   0.79245   0.25005   0.00000  Uiso   1.00
C466   C     0.35483   0.87373   0.25462   0.00000  Uiso   1.00
C467   C     0.52511   0.87695   0.04880   0.00000  Uiso   1.00
C468   C     0.54822   0.81388   0.45025   0.00000  Uiso   1.00
C469   C     0.48779   0.86210   0.45572   0.00000  Uiso   1.00
C470   C     0.52275   0.79582   0.04683   0.00000  Uiso   1.00
C471   C     0.51913   0.87560   0.09468   0.00000  Uiso   1.00
C472   C     0.54118   0.81202   0.40396   0.00000  Uiso   1.00
C473   C     0.48050   0.85969   0.40956   0.00000  Uiso   1.00
C474   C     0.57993   0.83334   0.25008   0.00000  Uiso   1.00
C475   C     0.51647   0.79455   0.09274   0.00000  Uiso   1.00
C476   C     0.51209   0.83453   0.11636   0.00000  Uiso   1.00
C477   C     0.50667   0.83378   0.38404   0.00000  Uiso   1.00
C478   C     0.52523   0.83713   0.02467   0.00000  Uiso   1.00
C479   C     0.52132   0.83871   0.47607   0.00000  Uiso   1.00
C480   C     0.62417   0.83324   0.25078   0.00000  Uiso   1.00
C481   C     0.37593   0.83310   0.25232   0.00000  Uiso   1.00
C482   C     0.54269   0.71332   0.32113   0.00000  Uiso   1.00
C483   C     0.45109   0.95247   0.18411   0.00000  Uiso   1.00
C484   C     0.45382   0.71419   0.18095   0.00000  Uiso   1.00
C485   C     0.50266   0.83358   0.16391   0.00000  Uiso   1.00
C486   C     0.54378   0.95142   0.31994   0.00000  Uiso   1.00
C487   C     0.50072   0.83327   0.33603   0.00000  Uiso   1.00
C488   C     0.52090   0.69023   0.28345   0.00000  Uiso   1.00
C489   C     0.47799   0.97620   0.21740   0.00000  Uiso   1.00
C490   C     0.47829   0.69068   0.21703   0.00000  Uiso   1.00
C491   C     0.52104   0.97577   0.28330   0.00000  Uiso   1.00
C492   C     0.35453   0.79239   0.25087   0.00000  Uiso   1.00
H493   H     0.52799   0.90898   0.03179   0.00000  Uiso   1.00
H494   H     0.62976   0.90571   0.25305   0.00000  Uiso   1.00
H495   H     0.62906   0.76068   0.24852   0.00000  Uiso   1.00
H496   H     0.37095   0.90539   0.25752   0.00000  Uiso   1.00
H497   H     0.54855   0.71947   0.38883   0.00000  Uiso   1.00
H498   H     0.39496   0.92529   0.16922   0.00000  Uiso   1.00
H499   H     0.44350   0.72410   0.11413   0.00000  Uiso   1.00
H500   H     0.59629   0.91986   0.34109   0.00000  Uiso   1.00
H501   H     0.57438   0.79613   0.46593   0.00000  Uiso   1.00
H502   H     0.46664   0.88102   0.47573   0.00000  Uiso   1.00
H503   H     0.52329   0.76480   0.02824   0.00000  Uiso   1.00
H504   H     0.51958   0.90673   0.11281   0.00000  Uiso   1.00
H505   H     0.56299   0.79458   0.38358   0.00000  Uiso   1.00
H506   H     0.45443   0.87755   0.39380   0.00000  Uiso   1.00
H507   H     0.51445   0.76248   0.10942   0.00000  Uiso   1.00
H508   H     0.37044   0.76057   0.25017   0.00000  Uiso   1.00
N509   N     0.50000   0.95240   0.25000   0.00000  Uiso   1.00
N510   N     0.50000   0.71427   0.25000   0.00000  Uiso   1.00
O511   O     0.43892   0.87154   0.24999   0.00000  Uiso   1.00
O512   O     0.52826   0.70794   0.36471   0.00000  Uiso   1.00
O513   O     0.46265   0.94714   0.14583   0.00000  Uiso   1.00
O514   O     0.41088   0.94025   0.19514   0.00000  Uiso   1.00
O515   O     0.42320   0.73576   0.18999   0.00000  Uiso   1.00
O516   O     0.46347   0.70794   0.13594   0.00000  Uiso   1.00
O517   O     0.52822   0.94713   0.35671   0.00000  Uiso   1.00
O518   O     0.58382   0.93568   0.31339   0.00000  Uiso   1.00
O519   O     0.56108   0.79513   0.25000   0.00000  Uiso   1.00
O520   O     0.56108   0.87154   0.25000   0.00000  Uiso   1.00
O521   O     0.43892   0.79513   0.24999   0.00000  Uiso   1.00
O522   O     0.50000   0.87155   0.18453   0.00000  Uiso   1.00
O523   O     0.50000   0.79511   0.31547   0.00000  Uiso   1.00
O524   O     0.50000   0.87155   0.31547   0.00000  Uiso   1.00
O525   O     0.50000   0.79511   0.18453   0.00000  Uiso   1.00
O526   O     0.57464   0.73416   0.31486   0.00000  Uiso   1.00
Zn527  Zn    0.50000   0.88437   0.25000   0.00000  Uiso   1.00
Zn528  Zn    0.50000   0.78229   0.25000   0.00000  Uiso   1.00
C529   C     0.75344   0.83327   0.25079   0.00000  Uiso   1.00
C530   C     0.97894   0.87386   0.25288   0.00000  Uiso   1.00
C531   C     0.97860   0.79245   0.25005   0.00000  Uiso   1.00
C532   C     0.68816   0.87373   0.25462   0.00000  Uiso   1.00
C533   C     0.85844   0.87695   0.04880   0.00000  Uiso   1.00
C534   C     0.88156   0.81388   0.45025   0.00000  Uiso   1.00
C535   C     0.82112   0.86210   0.45572   0.00000  Uiso   1.00
C536   C     0.85608   0.79582   0.04683   0.00000  Uiso   1.00
C537   C     0.85246   0.87560   0.09468   0.00000  Uiso   1.00
C538   C     0.87451   0.81202   0.40396   0.00000  Uiso   1.00
C539   C     0.81384   0.85969   0.40956   0.00000  Uiso   1.00
C540   C     0.91326   0.83334   0.25008   0.00000  Uiso   1.00
C541   C     0.84980   0.79455   0.09274   0.00000  Uiso   1.00
C542   C     0.84542   0.83453   0.11636   0.00000  Uiso   1.00
C543   C     0.84000   0.83378   0.38404   0.00000  Uiso   1.00
C544   C     0.85856   0.83713   0.02467   0.00000  Uiso   1.00
C545   C     0.85465   0.83871   0.47607   0.00000  Uiso   1.00
C546   C     0.95750   0.83324   0.25078   0.00000  Uiso   1.00
C547   C     0.70926   0.83310   0.25232   0.00000  Uiso   1.00
C548   C     0.87603   0.71332   0.32113   0.00000  Uiso   1.00
C549   C     0.78442   0.95247   0.18411   0.00000  Uiso   1.00
C550   C     0.78716   0.71419   0.18095   0.00000  Uiso   1.00
C551   C     0.83599   0.83358   0.16391   0.00000  Uiso   1.00
C552   C     0.87711   0.95142   0.31994   0.00000  Uiso   1.00
C553   C     0.83405   0.83327   0.33603   0.00000  Uiso   1.00
C554   C     0.85423   0.69023   0.28345   0.00000  Uiso   1.00
C555   C     0.81132   0.97620   0.21740   0.00000  Uiso   1.00
C556   C     0.81163   0.69068   0.21703   0.00000  Uiso   1.00
C557   C     0.85437   0.97577   0.28330   0.00000  Uiso   1.00
C558   C     0.68786   0.79239   0.25087   0.00000  Uiso   1.00
H559   H     0.86132   0.90898   0.03179   0.00000  Uiso   1.00
H560   H     0.96310   0.90571   0.25305   0.00000  Uiso   1.00
H561   H     0.96240   0.76068   0.24852   0.00000  Uiso   1.00
H562   H     0.70429   0.90539   0.25752   0.00000  Uiso   1.00
H563   H     0.88188   0.71947   0.38883   0.00000  Uiso   1.00
H564   H     0.72830   0.92529   0.16922   0.00000  Uiso   1.00
H565   H     0.77684   0.72410   0.11413   0.00000  Uiso   1.00
H566   H     0.92962   0.91986   0.34109   0.00000  Uiso   1.00
H567   H     0.90772   0.79613   0.46593   0.00000  Uiso   1.00
H568   H     0.79997   0.88102   0.47573   0.00000  Uiso   1.00
H569   H     0.85663   0.76480   0.02824   0.00000  Uiso   1.00
H570   H     0.85292   0.90673   0.11281   0.00000  Uiso   1.00
H571   H     0.89633   0.79458   0.38358   0.00000  Uiso   1.00
H572   H     0.78777   0.87755   0.39380   0.00000  Uiso   1.00
H573   H     0.84779   0.76248   0.10942   0.00000  Uiso   1.00
H574   H     0.70378   0.76057   0.25017   0.00000  Uiso   1.00
N575   N     0.83333   0.95240   0.25000   0.00000  Uiso   1.00
N576   N     0.83333   0.71427   0.25000   0.00000  Uiso   1.00
O577   O     0.77226   0.87154   0.24999   0.00000  Uiso   1.00
O578   O     0.86159   0.70794   0.36471   0.00000  Uiso   1.00
O579   O     0.79598   0.94714   0.14583   0.00000  Uiso   1.00
O580   O     0.74421   0.94025   0.19514   0.00000  Uiso   1.00
O581   O     0.75653   0.73576   0.18999   0.00000  Uiso   1.00
O582   O     0.79680   0.70794   0.13594   0.00000  Uiso   1.00
O583   O     0.86155   0.94713   0.35671   0.00000  Uiso   1.00
O584   O     0.91715   0.93568   0.31339   0.00000  Uiso   1.00
O585   O     0.89441   0.79513   0.25000   0.00000  Uiso   1.00
O586   O     0.89441   0.87154   0.25000   0.00000  Uiso   1.00
O587   O     0.77226   0.79513   0.24999   0.00000  Uiso   1.00
O588   O     0.83333   0.87155   0.18453   0.00000  Uiso   1.00
O589   O     0.83334   0.79511   0.31547   0.00000  Uiso   1.00
O590   O     0.83334   0.87155   0.31547   0.00000  Uiso   1.00
O591   O     0.83333   0.79511   0.18453   0.00000  Uiso   1.00
O592   O     0.90798   0.73416   0.31486   0.00000  Uiso   1.00
Zn593  Zn    0.83333   0.88437   0.25000   0.00000  Uiso   1.00
Zn594  Zn    0.83333   0.78229   0.25000   0.00000  Uiso   1.00
C595   C     0.08677   0.16660   0.75079   0.00000  Uiso   1.00
C596   C     0.31228   0.20720   0.75288   0.00000  Uiso   1.00
C597   C     0.31193   0.12579   0.75005   0.00000  Uiso   1.00
C598   C     0.02149   0.20706   0.75462   0.00000  Uiso   1.00
C599   C     0.19177   0.21028   0.54880   0.00000  Uiso   1.00
C600   C     0.21489   0.14721   0.95025   0.00000  Uiso   1.00
C601   C     0.15445   0.19543   0.95572   0.00000  Uiso   1.00
C602   C     0.18942   0.12915   0.54683   0.00000  Uiso   1.00
C603   C     0.18579   0.20894   0.59468   0.00000  Uiso   1.00
C604   C     0.20784   0.14535   0.90396   0.00000  Uiso   1.00
C605   C     0.14717   0.19302   0.90956   0.00000  Uiso   1.00
C606   C     0.24659   0.16668   0.75008   0.00000  Uiso   1.00
C607   C     0.18314   0.12789   0.59274   0.00000  Uiso   1.00
C608   C     0.17876   0.16786   0.61636   0.00000  Uiso   1.00
C609   C     0.17334   0.16711   0.88404   0.00000  Uiso   1.00
C610   C     0.19190   0.17046   0.52467   0.00000  Uiso   1.00
C611   C     0.18798   0.17204   0.97607   0.00000  Uiso   1.00
C612   C     0.29084   0.16658   0.75078   0.00000  Uiso   1.00
C613   C     0.04260   0.16643   0.75232   0.00000  Uiso   1.00
C614   C     0.20936   0.04666   0.82113   0.00000  Uiso   1.00
C615   C     0.11775   0.28580   0.68411   0.00000  Uiso   1.00
C616   C     0.12049   0.04753   0.68095   0.00000  Uiso   1.00
C617   C     0.16933   0.16691   0.66391   0.00000  Uiso   1.00
C618   C     0.21044   0.28475   0.81994   0.00000  Uiso   1.00
C619   C     0.16738   0.16661   0.83603   0.00000  Uiso   1.00
C620   C     0.18757   0.02357   0.78345   0.00000  Uiso   1.00
C621   C     0.14466   0.30954   0.71740   0.00000  Uiso   1.00
C622   C     0.14496   0.02401   0.71703   0.00000  Uiso   1.00
C623   C     0.18771   0.30911   0.78330   0.00000  Uiso   1.00
C624   C     0.02119   0.12572   0.75087   0.00000  Uiso   1.00
H625   H     0.19466   0.24231   0.53179   0.00000  Uiso   1.00
H626   H     0.29643   0.23904   0.75305   0.00000  Uiso   1.00
H627   H     0.29573   0.09401   0.74852   0.00000  Uiso   1.00
H628   H     0.03762   0.23872   0.75752   0.00000  Uiso   1.00
H629   H     0.21522   0.05281   0.88883   0.00000  Uiso   1.00
H630   H     0.06163   0.25863   0.66922   0.00000  Uiso   1.00
H631   H     0.11017   0.05744   0.61413   0.00000  Uiso   1.00
H632   H     0.26296   0.25319   0.84109   0.00000  Uiso   1.00
H633   H     0.24105   0.12947   0.96593   0.00000  Uiso   1.00
H634   H     0.13330   0.21436   0.97573   0.00000  Uiso   1.00
H635   H     0.18996   0.09813   0.52824   0.00000  Uiso   1.00
H636   H     0.18625   0.24006   0.61281   0.00000  Uiso   1.00
H637   H     0.22966   0.12792   0.88358   0.00000  Uiso   1.00
H638   H     0.12110   0.21088   0.89380   0.00000  Uiso   1.00
H639   H     0.18112   0.09582   0.60942   0.00000  Uiso   1.00
H640   H     0.03711   0.09390   0.75017   0.00000  Uiso   1.00
N641   N     0.16667   0.28573   0.75000   0.00000  Uiso   1.00
N642   N     0.16667   0.04760   0.75000   0.00000  Uiso   1.00
O643   O     0.10559   0.20487   0.74999   0.00000  Uiso   1.00
O644   O     0.19492   0.04128   0.86471   0.00000  Uiso   1.00
O645   O     0.12932   0.28047   0.64583   0.00000  Uiso   1.00
O646   O     0.07754   0.27359   0.69514   0.00000  Uiso   1.00
O647   O     0.08986   0.06909   0.68999   0.00000  Uiso   1.00
O648   O     0.13013   0.04127   0.63594   0.00000  Uiso   1.00
O649   O     0.19489   0.28046   0.85671   0.00000  Uiso   1.00
O650   O     0.25049   0.26901   0.81339   0.00000  Uiso   1.00
O651   O     0.22774   0.12846   0.75000   0.00000  Uiso   1.00
O652   O     0.22774   0.20487   0.75000   0.00000  Uiso   1.00
O653   O     0.10559   0.12846   0.74999   0.00000  Uiso   1.00
O654   O     0.16666   0.20489   0.68453   0.00000  Uiso   1.00
O655   O     0.16667   0.12845   0.81547   0.00000  Uiso   1.00
O656   O     0.16667   0.20489   0.81547   0.00000  Uiso   1.00
O657   O     0.16666   0.12845   0.68453   0.00000  Uiso   1.00
O658   O     0.24131   0.06749   0.81486   0.00000  Uiso   1.00
Zn659  Zn    0.16667   0.21771   0.75000   0.00000  Uiso   1.00
Zn660  Zn    0.16667   0.11563   0.75000   0.00000  Uiso   1.00
C661   C     0.42011   0.16660   0.75079   0.00000  Uiso   1.00
C662   C     0.64561   0.20720   0.75288   0.00000  Uiso   1.00
C663   C     0.64527   0.12579   0.75005   0.00000  Uiso   1.00
C664   C     0.35483   0.20706   0.75462   0.00000  Uiso   1.00
C665   C     0.52511   0.21028   0.54880   0.00000  Uiso   1.00
C666   C     0.54822   0.14721   0.95025   0.00000  Uiso   1.00
C667   C     0.48779   0.19543   0.95572   0.00000  Uiso   1.00
C668   C     0.52275   0.12915   0.54683   0.00000  Uiso   1.00
C669   C     0.51913   0.20894   0.59468   0.00000  Uiso   1.00
C670   C     0.54118   0.14535   0.90396   0.00000  Uiso   1.00
C671   C     0.48050   0.19302   0.90956   0.00000  Uiso   1.00
C672   C     0.57993   0.16668   0.75008   0.00000  Uiso   1.00
C673   C     0.51647   0.12789   0.59274   0.00000  Uiso   1.00
C674   C     0.51209   0.16786   0.61636   0.00000  Uiso   1.00
C675   C     0.50667   0.16711   0.88404   0.00000  Uiso   1.00
C676   C     0.52523   0.17046   0.52467   0.00000  Uiso   1.00
C677   C     0.52132   0.17204   0.97607   0.00000  Uiso   1.00
C678   C     0.62417   0.16658   0.75078   0.00000  Uiso   1.00
C679   C     0.37593   0.16643   0.75232   0.00000  Uiso   1.00
C680   C     0.54269   0.04666   0.82113   0.00000  Uiso   1.00
C681   C     0.45109   0.28580   0.68411   0.00000  Uiso   1.00
C682   C     0.45382   0.04753   0.68095   0.00000  Uiso   1.00
C683   C     0.50266   0.16691   0.66391   0.00000  Uiso   1.00
C684   C     0.54378   0.28475   0.81994   0.00000  Uiso   1.00
C685   C     0.50072   0.16661   0.83603   0.00000  Uiso   1.00
C686   C     0.52090   0.02357   0.78345   0.00000  Uiso   1.00
C687   C     0.47799   0.30954   0.71740   0.00000  Uiso   1.00
C688   C     0.47829   0.02401   0.71703   0.00000  Uiso   1.00
C689   C     0.52104   0.30911   0.78330   0.00000  Uiso   1.00
C690   C     0.35453   0.12572   0.75087   0.00000  Uiso   1.00
H691   H     0.52799   0.24231   0.53179   0.00000  Uiso   1.00
H692   H     0.62976   0.23904   0.75305   0.00000  Uiso   1.00
H693   H     0.62906   0.09401   0.74852   0.00000  Uiso   1.00
H694   H     0.37095   0.23872   0.75752   0.00000  Uiso   1.00
H695   H     0.54855   0.05281   0.88883   0.00000  Uiso   1.00
H696   H     0.39496   0.25863   0.66922   0.00000  Uiso   1.00
H697   H     0.44350   0.05744   0.61413   0.00000  Uiso   1.00
H698   H     0.59629   0.25319   0.84109   0.00000  Uiso   1.00
H699   H     0.57438   0.12947   0.96593   0.00000  Uiso   1.00
H700   H     0.46664   0.21436   0.97573   0.00000  Uiso   1.00
H701   H     0.52329   0.09813   0.52824   0.00000  Uiso   1.00
H702   H     0.51958   0.24006   0.61281   0.00000  Uiso   1.00
H703   H     0.56299   0.12792   0.88358   0.00000  Uiso   1.00
H704   H     0.45443   0.21088   0.89380   0.00000  Uiso   1.00
H705   H     0.51445   0.09582   0.60942   0.00000  Uiso   1.00
H706   H     0.37044   0.09390   0.75017   0.00000  Uiso   1.00
N707   N     0.50000   0.28573   0.75000   0.00000  Uiso   1.00
N708   N     0.50000   0.04760   0.75000   0.00000  Uiso   1.00
O709   O     0.43892   0.20487   0.74999   0.00000  Uiso   1.00
O710   O     0.52826   0.04128   0.86471   0.00000  Uiso   1.00
O711   O     0.46265   0.28047   0.64583   0.00000  Uiso   1.00
O712   O     0.41088   0.27359   0.69514   0.00000  Uiso   1.00
O713   O     0.42320   0.06909   0.68999   0.00000  Uiso   1.00
O714   O     0.46347   0.04127   0.63594   0.00000  Uiso   1.00
O715   O     0.52822   0.28046   0.85671   0.00000  Uiso   1.00
O716   O     0.58382   0.26901   0.81339   0.00000  Uiso   1.00
O717   O     0.56108   0.12846   0.75000   0.00000  Uiso   1.00
O718   O     0.56108   0.20487   0.75000   0.00000  Uiso   1.00
O719   O     0.43892   0.12846   0.74999   0.00000  Uiso   1.00
O720   O     0.50000   0.20489   0.68453   0.00000  Uiso   1.00
O721   O     0.50000   0.12845   0.81547   0.00000  Uiso   1.00
O722   O     0.50000   0.20489   0.81547   0.00000  Uiso   1.00
O723   O     0.50000   0.12845   0.68453   0.00000  Uiso   1.00
O724   O     0.57464   0.06749   0.81486   0.00000  Uiso   1.00
Zn725  Zn    0.50000   0.21771   0.75000   0.00000  Uiso   1.00
Zn726  Zn    0.50000   0.11563   0.75000   0.00000  Uiso   1.00
C727   C     0.75344   0.16660   0.75079   0.00000  Uiso   1.00
C728   C     0.97894   0.20720   0.75288   0.00000  Uiso   1.00
C729   C     0.97860   0.12579   0.75005   0.00000  Uiso   1.00
C730   C     0.68816   0.20706   0.75462   0.00000  Uiso   1.00
C731   C     0.85844   0.21028   0.54880   0.00000  Uiso   1.00
C732   C     0.88156   0.14721   0.95025   0.00000  Uiso   1.00
C733   C     0.82112   0.19543   0.95572   0.00000  Uiso   1.00
C734   C     0.85608   0.12915   0.54683   0.00000  Uiso   1.00
C735   C     0.85246   0.20894   0.59468   0.00000  Uiso   1.00
C736   C     0.87451   0.14535   0.90396   0.00000  Uiso   1.00
C737   C     0.81384   0.19302   0.90956   0.00000  Uiso   1.00
C738   C     0.91326   0.16668   0.75008   0.00000  Uiso   1.00
C739   C     0.84980   0.12789   0.59274   0.00000  Uiso   1.00
C740   C     0.84542   0.16786   0.61636   0.00000  Uiso   1.00
C741   C     0.84000   0.16711   0.88404   0.00000  Uiso   1.00
C742   C     0.85856   0.17046   0.52467   0.00000  Uiso   1.00
C743   C     0.85465   0.17204   0.97607   0.00000  Uiso   1.00
C744   C     0.95750   0.16658   0.75078   0.00000  Uiso   1.00
C745   C     0.70926   0.16643   0.75232   0.00000  Uiso   1.00
C746   C     0.87603   0.04666   0.82113   0.00000  Uiso   1.00
C747   C     0.78442   0.28580   0.68411   0.00000  Uiso   1.00
C748   C     0.78716   0.04753   0.68095   0.00000  Uiso   1.00
C749   C     0.83599   0.16691   0.66391   0.00000  Uiso   1.00
C750   C     0.87711   0.28475   0.81994   0.00000  Uiso   1.00
C751   C     0.83405   0.16661   0.83603   0.00000  Uiso   1.00
C752   C     0.85423   0.02357   0.78345   0.00000  Uiso   1.00
C753   C     0.81132   0.30954   0.71740   0.00000  Uiso   1.00
C754   C     0.81163   0.02401   0.71703   0.00000  Uiso   1.00
C755   C     0.85437   0.30911   0.78330   0.00000  Uiso   1.00
C756   C     0.68786   0.12572   0.75087   0.00000  Uiso   1.00
H757   H     0.86132   0.24231   0.53179   0.00000  Uiso   1.00
H758   H     0.96310   0.23904   0.75305   0.00000  Uiso   1.00
H759   H     0.96240   0.09401   0.74852   0.00000  Uiso   1.00
H760   H     0.70429   0.23872   0.75752   0.00000  Uiso   1.00
H761   H     0.88188   0.05281   0.88883   0.00000  Uiso   1.00
H762   H     0.72830   0.25863   0.66922   0.00000  Uiso   1.00
H763   H     0.77684   0.05744   0.61413   0.00000  Uiso   1.00
H764   H     0.92962   0.25319   0.84109   0.00000  Uiso   1.00
H765   H     0.90772   0.12947   0.96593   0.00000  Uiso   1.00
H766   H     0.79997   0.21436   0.97573   0.00000  Uiso   1.00
H767   H     0.85663   0.09813   0.52824   0.00000  Uiso   1.00
H768   H     0.85292   0.24006   0.61281   0.00000  Uiso   1.00
H769   H     0.89633   0.12792   0.88358   0.00000  Uiso   1.00
H770   H     0.78777   0.21088   0.89380   0.00000  Uiso   1.00
H771   H     0.84779   0.09582   0.60942   0.00000  Uiso   1.00
H772   H     0.70378   0.09390   0.75017   0.00000  Uiso   1.00
N773   N     0.83333   0.28573   0.75000   0.00000  Uiso   1.00
N774   N     0.83333   0.04760   0.75000   0.00000  Uiso   1.00
O775   O     0.77226   0.20487   0.74999   0.00000  Uiso   1.00
O776   O     0.86159   0.04128   0.86471   0.00000  Uiso   1.00
O777   O     0.79598   0.28047   0.64583   0.00000  Uiso   1.00
O778   O     0.74421   0.27359   0.69514   0.00000  Uiso   1.00
O779   O     0.75653   0.06909   0.68999   0.00000  Uiso   1.00
O780   O     0.79680   0.04127   0.63594   0.00000  Uiso   1.00
O781   O     0.86155   0.28046   0.85671   0.00000  Uiso   1.00
O782   O     0.91715   0.26901   0.81339   0.00000  Uiso   1.00
O783   O     0.89441   0.12846   0.75000   0.00000  Uiso   1.00
O784   O     0.89441   0.20487   0.75000   0.00000  Uiso   1.00
O785   O     0.77226   0.12846   0.74999   0.00000  Uiso   1.00
O786   O     0.83333   0.20489   0.68453   0.00000  Uiso   1.00
O787   O     0.83334   0.12845   0.81547   0.00000  Uiso   1.00
O788   O     0.83334   0.20489   0.81547   0.00000  Uiso   1.00
O789   O     0.83333   0.12845   0.68453   0.00000  Uiso   1.00
O790   O     0.90798   0.06749   0.81486   0.00000  Uiso   1.00
Zn791  Zn    0.83333   0.21771   0.75000   0.00000  Uiso   1.00
Zn792  Zn    0.83333   0.11563   0.75000   0.00000  Uiso   1.00
C793   C     0.08677   0.49993   0.75079   0.00000  Uiso   1.00
C794   C     0.31228   0.54053   0.75288   0.00000  Uiso   1.00
C795   C     0.31193   0.45912   0.75005   0.00000  Uiso   1.00
C796   C     0.02149   0.54039   0.75462   0.00000  Uiso   1.00
C797   C     0.19177   0.54362   0.54880   0.00000  Uiso   1.00
C798   C     0.21489   0.48055   0.95025   0.00000  Uiso   1.00
C799   C     0.15445   0.52877   0.95572   0.00000  Uiso   1.00
C800   C     0.18942   0.46248   0.54683   0.00000  Uiso   1.00
C801   C     0.18579   0.54227   0.59468   0.00000  Uiso   1.00
C802   C     0.20784   0.47869   0.90396   0.00000  Uiso   1.00
C803   C     0.14717   0.52636   0.90956   0.00000  Uiso   1.00
C804   C     0.24659   0.50001   0.75008   0.00000  Uiso   1.00
C805   C     0.18314   0.46122   0.59274   0.00000  Uiso   1.00
C806   C     0.17876   0.50119   0.61636   0.00000  Uiso   1.00
C807   C     0.17334   0.50045   0.88404   0.00000  Uiso   1.00
C808   C     0.19190   0.50379   0.52467   0.00000  Uiso   1.00
C809   C     0.18798   0.50537   0.97607   0.00000  Uiso   1.00
C810   C     0.29084   0.49991   0.75078   0.00000  Uiso   1.00
C811   C     0.04260   0.49976   0.75232   0.00000  Uiso   1.00
C812   C     0.20936   0.37999   0.82113   0.00000  Uiso   1.00
C813   C     0.11775   0.61913   0.68411   0.00000  Uiso   1.00
C814   C     0.12049   0.38086   0.68095   0.00000  Uiso   1.00
C815   C     0.16933   0.50025   0.66391   0.00000  Uiso   1.00
C816   C     0.21044   0.61809   0.81994   0.00000  Uiso   1.00
C817   C     0.16738   0.49994   0.83603   0.00000  Uiso   1.00
C818   C     0.18757   0.35690   0.78345   0.00000  Uiso   1.00
C819   C     0.14466   0.64287   0.71740   0.00000  Uiso   1.00
C820   C     0.14496   0.35735   0.71703   0.00000  Uiso   1.00
C821   C     0.18771   0.64244   0.78330   0.00000  Uiso   1.00
C822   C     0.02119   0.45905   0.75087   0.00000  Uiso   1.00
H823   H     0.19466   0.57564   0.53179   0.00000  Uiso   1.00
H824   H     0.29643   0.57238   0.75305   0.00000  Uiso   1.00
H825   H     0.29573   0.42735   0.74852   0.00000  Uiso   1.00
H826   H     0.03762   0.57206   0.75752   0.00000  Uiso   1.00
H827   H     0.21522   0.38614   0.88883   0.00000  Uiso   1.00
H828   H     0.06163   0.59196   0.66922   0.00000  Uiso   1.00
H829   H     0.11017   0.39077   0.61413   0.00000  Uiso   1.00
H830   H     0.26296   0.58653   0.84109   0.00000  Uiso   1.00
H831   H     0.24105   0.46280   0.96593   0.00000  Uiso   1.00
H832   H     0.13330   0.54769   0.97573   0.00000  Uiso   1.00
H833   H     0.18996   0.43146   0.52824   0.00000  Uiso   1.00
H834   H     0.18625   0.57340   0.61281   0.00000  Uiso   1.00
H835   H     0.22966   0.46125   0.88358   0.00000  Uiso   1.00
H836   H     0.12110   0.54421   0.89380   0.00000  Uiso   1.00
H837   H     0.18112   0.42915   0.60942   0.00000  Uiso   1.00
H838   H     0.03711   0.42724   0.75017   0.00000  Uiso   1.00
N839   N     0.16667   0.61907   0.75000   0.00000  Uiso   1.00
N840   N     0.16667   0.38093   0.75000   0.00000  Uiso   1.00
O841   O     0.10559   0.53821   0.74999   0.00000  Uiso   1.00
O842   O     0.19492   0.37461   0.86471   0.00000  Uiso   1.00
O843   O     0.12932   0.61381   0.64583   0.00000  Uiso   1.00
O844   O     0.07754   0.60692   0.69514   0.00000  Uiso   1.00
O845   O     0.08986   0.40242   0.68999   0.00000  Uiso   1.00
O846   O     0.13013   0.37460   0.63594   0.00000  Uiso   1.00
O847   O     0.19489   0.61379   0.85671   0.00000  Uiso   1.00
O848   O     0.25049   0.60235   0.81339   0.00000  Uiso   1.00
O849   O     0.22774   0.46179   0.75000   0.00000  Uiso   1.00
O850   O     0.22774   0.53821   0.75000   0.00000  Uiso   1.00
O851   O     0.10559   0.46179   0.74999   0.00000  Uiso   1.00
O852   O     0.16666   0.53822   0.68453   0.00000  Uiso   1.00
O853   O     0.16667   0.46178   0.81547   0.00000  Uiso   1.00
O854   O     0.16667   0.53822   0.81547   0.00000  Uiso   1.00
O855   O     0.16666   0.46178   0.68453   0.00000  Uiso   1.00
O856   O     0.24131   0.40083   0.81486   0.00000  Uiso   1.00
Zn857  Zn    0.16667   0.55104   0.75000   0.00000  Uiso   1.00
Zn858  Zn    0.16667   0.44896   0.75000   0.00000  Uiso   1.00
C859   C     0.42011   0.49993   0.75079   0.00000  Uiso   1.00
C860   C     0.64561   0.54053   0.75288   0.00000  Uiso   1.00
C861   C     0.64527   0.45912   0.75005   0.00000  Uiso   1.00
C862   C     0.35483   0.54039   0.75462   0.00000  Uiso   1.00
C863   C     0.52511   0.54362   0.54880   0.00000  Uiso   1.00
C864   C     0.54822   0.48055   0.95025   0.00000  Uiso   1.00
C865   C     0.48779   0.52877   0.95572   0.00000  Uiso   1.00
C866   C     0.52275   0.46248   0.54683   0.00000  Uiso   1.00
C867   C     0.51913   0.54227   0.59468   0.00000  Uiso   1.00
C868   C     0.54118   0.47869   0.90396   0.00000  Uiso   1.00
C869   C     0.48050   0.52636   0.90956   0.00000  Uiso   1.00
C870   C     0.57993   0.50001   0.75008   0.00000  Uiso   1.00
C871   C     0.51647   0.46122   0.59274   0.00000  Uiso   1.00
C872   C     0.51209   0.50119   0.61636   0.00000  Uiso   1.00
C873   C     0.50667   0.50045   0.88404   0.00000  Uiso   1.00
C874   C     0.52523   0.50379   0.52467   0.00000  Uiso   1.00
C875   C     0.52132   0.50537   0.97607   0.00000  Uiso   1.00
C876   C     0.62417   0.49991   0.75078   0.00000  Uiso   1.00
C877   C     0.37593   0.49976   0.75232   0.00000  Uiso   1.00
C878   C     0.54269   0.37999   0.82113   0.00000  Uiso   1.00
C879   C     0.45109   0.61913   0.68411   0.00000  Uiso   1.00
C880   C     0.45382   0.38086   0.68095   0.00000  Uiso   1.00
C881   C     0.50266   0.50025   0.66391   0.00000  Uiso   1.00
C882   C     0.54378   0.61809   0.81994   0.00000  Uiso   1.00
C883   C     0.50072   0.49994   0.83603   0.00000  Uiso   1.00
C884   C     0.52090   0.35690   0.78345   0.00000  Uiso   1.00
C885   C     0.47799   0.64287   0.71740   0.00000  Uiso   1.00
C886   C     0.47829   0.35735   0.71703   0.00000  Uiso   1.00
C887   C     0.52104   0.64244   0.78330   0.00000  Uiso   1.00
C888   C     0.35453   0.45905   0.75087   0.00000  Uiso   1.00
H889   H     0.52799   0.57564   0.53179   0.00000  Uiso   1.00
H890   H     0.62976   0.57238   0.75305   0.00000  Uiso   1.00
H891   H     0.62906   0.42735   0.74852   0.00000  Uiso   1.00
H892   H     0.37095   0.57206   0.75752   0.00000  Uiso   1.00
H893   H     0.54855   0.38614   0.88883   0.00000  Uiso   1.00
H894   H     0.39496   0.59196   0.66922   0.00000  Uiso   1.00
H895   H     0.44350   0.39077   0.61413   0.00000  Uiso   1.00
H896   H     0.59629   0.58653   0.84109   0.00000  Uiso   1.00
H897   H     0.57438   0.46280   0.96593   0.00000  Uiso   1.00
H898   H     0.46664   0.54769   0.97573   0.00000  Uiso   1.00
H899   H     0.52329   0.43146   0.52824   0.00000  Uiso   1.00
H900   H     0.51958   0.57340   0.61281   0.00000  Uiso   1.00
H901   H     0.56299   0.46125   0.88358   0.00000  Uiso   1.00
H902   H     0.45443   0.54421   0.89380   0.00000  Uiso   1.00
H903   H     0.51445   0.42915   0.60942   0.00000  Uiso   1.00
H904   H     0.37044   0.42724   0.75017   0.00000  Uiso   1.00
N905   N     0.50000   0.61907   0.75000   0.00000  Uiso   1.00
N906   N     0.50000   0.38093   0.75000   0.00000  Uiso   1.00
O907   O     0.43892   0.53821   0.74999   0.00000  Uiso   1.00
O908   O     0.52826   0.37461   0.86471   0.00000  Uiso   1.00
O909   O     0.46265   0.61381   0.64583   0.00000  Uiso   1.00
O910   O     0.41088   0.60692   0.69514   0.00000  Uiso   1.00
O911   O     0.42320   0.40242   0.68999   0.00000  Uiso   1.00
O912   O     0.46347   0.37460   0.63594   0.00000  Uiso   1.00
O913   O     0.52822   0.61379   0.85671   0.00000  Uiso   1.00
O914   O     0.58382   0.60235   0.81339   0.00000  Uiso   1.00
O915   O     0.56108   0.46179   0.75000   0.00000  Uiso   1.00
O916   O     0.56108   0.53821   0.75000   0.00000  Uiso   1.00
O917   O     0.43892   0.46179   0.74999   0.00000  Uiso   1.00
O918   O     0.50000   0.53822   0.68453   0.00000  Uiso   1.00
O919   O     0.50000   0.46178   0.81547   0.00000  Uiso   1.00
O920   O     0.50000   0.53822   0.81547   0.00000  Uiso   1.00
O921   O     0.50000   0.46178   0.68453   0.00000  Uiso   1.00
O922   O     0.57464   0.40083   0.81486   0.00000  Uiso   1.00
Zn923  Zn    0.50000   0.55104   0.75000   0.00000  Uiso   1.00
Zn924  Zn    0.50000   0.44896   0.75000   0.00000  Uiso   1.00
C925   C     0.75344   0.49993   0.75079   0.00000  Uiso   1.00
C926   C     0.97894   0.54053   0.75288   0.00000  Uiso   1.00
C927   C     0.97860   0.45912   0.75005   0.00000  Uiso   1.00
C928   C     0.68816   0.54039   0.75462   0.00000  Uiso   1.00
C929   C     0.85844   0.54362   0.54880   0.00000  Uiso   1.00
C930   C     0.88156   0.48055   0.95025   0.00000  Uiso   1.00
C931   C     0.82112   0.52877   0.95572   0.00000  Uiso   1.00
C932   C     0.85608   0.46248   0.54683   0.00000  Uiso   1.00
C933   C     0.85246   0.54227   0.59468   0.00000  Uiso   1.00
C934   C     0.87451   0.47869   0.90396   0.00000  Uiso   1.00
C935   C     0.81384   0.52636   0.90956   0.00000  Uiso   1.00
C936   C     0.91326   0.50001   0.75008   0.00000  Uiso   1.00
C937   C     0.84980   0.46122   0.59274   0.00000  Uiso   1.00
C938   C     0.84542   0.50119   0.61636   0.00000  Uiso   1.00
C939   C     0.84000   0.50045   0.88404   0.00000  Uiso   1.00
C940   C     0.85856   0.50379   0.52467   0.00000  Uiso   1.00
C941   C     0.85465   0.50537   0.97607   0.00000  Uiso   1.00
C942   C     0.95750   0.49991   0.75078   0.00000  Uiso   1.00
C943   C     0.70926   0.49976   0.75232   0.00000  Uiso   1.00
C944   C     0.87603   0.37999   0.82113   0.00000  Uiso   1.00
C945   C     0.78442   0.61913   0.68411   0.00000  Uiso   1.00
C946   C     0.78716   0.38086   0.68095   0.00000  Uiso   1.00
C947   C     0.83599   0.50025   0.66391   0.00000  Uiso   1.00
C948   C     0.87711   0.61809   0.81994   0.00000  Uiso   1.00
C949   C     0.83405   0.49994   0.83603   0.00000  Uiso   1.00
C950   C     0.85423   0.35690   0.78345   0.00000  Uiso   1.00
C951   C     0.81132   0.64287   0.71740   0.00000  Uiso   1.00
C952   C     0.81163   0.35735   0.71703   0.00000  Uiso   1.00
C953   C     0.85437   0.64244   0.78330   0.00000  Uiso   1.00
C954   C     0.68786   0.45905   0.75087   0.00000  Uiso   1.00
H955   H     0.86132   0.57564   0.53179   0.00000  Uiso   1.00
H956   H     0.96310   0.57238   0.75305   0.00000  Uiso   1.00
H957   H     0.96240   0.42735   0.74852   0.00000  Uiso   1.00
H958   H     0.70429   0.57206   0.75752   0.00000  Uiso   1.00
H959   H     0.88188   0.38614   0.88883   0.00000  Uiso   1.00
H960   H     0.72830   0.59196   0.66922   0.00000  Uiso   1.00
H961   H     0.77684   0.39077   0.61413   0.00000  Uiso   1.00
H962   H     0.92962   0.58653   0.84109   0.00000  Uiso   1.00
H963   H     0.90772   0.46280   0.96593   0.00000  Uiso   1.00
H964   H     0.79997   0.54769   0.97573   0.00000  Uiso   1.00
H965   H     0.85663   0.43146   0.52824   0.00000  Uiso   1.00
H966   H     0.85292   0.57340   0.61281   0.00000  Uiso   1.00
H967   H     0.89633   0.46125   0.88358   0.00000  Uiso   1.00
H968   H     0.78777   0.54421   0.89380   0.00000  Uiso   1.00
H969   H     0.84779   0.42915   0.60942   0.00000  Uiso   1.00
H970   H     0.70378   0.42724   0.75017   0.00000  Uiso   1.00
N971   N     0.83333   0.61907   0.75000   0.00000  Uiso   1.00
N972   N     0.83333   0.38093   0.75000   0.00000  Uiso   1.00
O973   O     0.77226   0.53821   0.74999   0.00000  Uiso   1.00
O974   O     0.86159   0.37461   0.86471   0.00000  Uiso   1.00
O975   O     0.79598   0.61381   0.64583   0.00000  Uiso   1.00
O976   O     0.74421   0.60692   0.69514   0.00000  Uiso   1.00
O977   O     0.75653   0.40242   0.68999   0.00000  Uiso   1.00
O978   O     0.79680   0.37460   0.63594   0.00000  Uiso   1.00
O979   O     0.86155   0.61379   0.85671   0.00000  Uiso   1.00
O980   O     0.91715   0.60235   0.81339   0.00000  Uiso   1.00
O981   O     0.89441   0.46179   0.75000   0.00000  Uiso   1.00
O982   O     0.89441   0.53821   0.75000   0.00000  Uiso   1.00
O983   O     0.77226   0.46179   0.74999   0.00000  Uiso   1.00
O984   O     0.83333   0.53822   0.68453   0.00000  Uiso   1.00
O985   O     0.83334   0.46178   0.81547   0.00000  Uiso   1.00
O986   O     0.83334   0.53822   0.81547   0.00000  Uiso   1.00
O987   O     0.83333   0.46178   0.68453   0.00000  Uiso   1.00
O988   O     0.90798   0.40083   0.81486   0.00000  Uiso   1.00
Zn989  Zn    0.83333   0.55104   0.75000   0.00000  Uiso   1.00
Zn990  Zn    0.83333   0.44896   0.75000   0.00000  Uiso   1.00
C991   C     0.08677   0.83327   0.75079   0.00000  Uiso   1.00
C992   C     0.31228   0.87386   0.75288   0.00000  Uiso   1.00
C993   C     0.31193   0.79245   0.75005   0.00000  Uiso   1.00
C994   C     0.02149   0.87373   0.75462   0.00000  Uiso   1.00
C995   C     0.19177   0.87695   0.54880   0.00000  Uiso   1.00
C996   C     0.21489   0.81388   0.95025   0.00000  Uiso   1.00
C997   C     0.15445   0.86210   0.95572   0.00000  Uiso   1.00
C998   C     0.18942   0.79582   0.54683   0.00000  Uiso   1.00
C999   C     0.18579   0.87560   0.59468   0.00000  Uiso   1.00
C1000  C     0.20784   0.81202   0.90396   0.00000  Uiso   1.00
C1001  C     0.14717   0.85969   0.90956   0.00000  Uiso   1.00
C1002  C     0.24659   0.83334   0.75008   0.00000  Uiso   1.00
C1003  C     0.18314   0.79455   0.59274   0.00000  Uiso   1.00
C1004  C     0.17876   0.83453   0.61636   0.00000  Uiso   1.00
C1005  C     0.17334   0.83378   0.88404   0.00000  Uiso   1.00
C1006  C     0.19190   0.83713   0.52467   0.00000  Uiso   1.00
C1007  C     0.18798   0.83871   0.97607   0.00000  Uiso   1.00
C1008  C     0.29084   0.83324   0.75078   0.00000  Uiso   1.00
C1009  C     0.04260   0.83310   0.75232   0.00000  Uiso   1.00
C1010  C     0.20936   0.71332   0.82113   0.00000  Uiso   1.00
C1011  C     0.11775   0.95247   0.68411   0.00000  Uiso   1.00
C1012  C     0.12049   0.71419   0.68095   0.00000  Uiso   1.00
C1013  C     0.16933   0.83358   0.66391   0.00000  Uiso   1.00
C1014  C     0.21044   0.95142   0.81994   0.00000  Uiso   1.00
C1015  C     0.16738   0.83327   0.83603   0.00000  Uiso   1.00
C1016  C     0.18757   0.69023   0.78345   0.00000  Uiso   1.00
C1017  C     0.14466   0.97620   0.71740   0.00000  Uiso   1.00
C1018  C     0.14496   0.69068   0.71703   0.00000  Uiso   1.00
C1019  C     0.18771   0.97577   0.78330   0.00000  Uiso   1.00
C1020  C     0.02119   0.79239   0.75087   0.00000  Uiso   1.00
H1021  H     0.19466   0.90898   0.53179   0.00000  Uiso   1.00
H1022  H     0.29643   0.90571   0.75305   0.00000  Uiso   1.00
H1023  H     0.29573   0.76068   0.74852   0.00000  Uiso   1.00
H1024  H     0.03762   0.90539   0.75752   0.00000  Uiso   1.00
H1025  H     0.21522   0.71947   0.88883   0.00000  Uiso   1.00
H1026  H     0.06163   0.92529   0.66922   0.00000  Uiso   1.00
H1027  H     0.11017   0.72410   0.61413   0.00000  Uiso   1.00
H1028  H     0.26296   0.91986   0.84109   0.00000  Uiso   1.00
H1029  H     0.24105   0.79613   0.96593   0.00000  Uiso   1.00
H1030  H     0.13330   0.88102   0.97573   0.00000  Uiso   1.00
H1031  H     0.18996   0.76480   0.52824   0.00000  Uiso   1.00
H1032  H     0.18625   0.90673   0.61281   0.00000  Uiso   1.00
H1033  H     0.22966   0.79458   0.88358   0.00000  Uiso   1.00
H1034  H     0.12110   0.87755   0.89380   0.00000  Uiso   1.00
H1035  H     0.18112   0.76248   0.60942   0.00000  Uiso   1.00
H1036  H     0.03711   0.76057   0.75017   0.00000  Uiso   1.00
N1037  N     0.16667   0.95240   0.75000   0.00000  Uiso   1.00
N1038  N     0.16667   0.71427   0.75000   0.00000  Uiso   1.00
O1039  O     0.10559   0.87154   0.74999   0.00000  Uiso   1.00
O1040  O     0.19492   0.70794   0.86471   0.00000  Uiso   1.00
O1041  O     0.12932   0.94714   0.64583   0.00000  Uiso   1.00
O1042  O     0.07754   0.94025   0.69514   0.00000  Uiso   1.00
O1043  O     0.08986   0.73576   0.68999   0.00000  Uiso   1.00
O1044  O     0.13013   0.70794   0.63594   0.00000  Uiso   1.00
O1045  O     0.19489   0.94713   0.85671   0.00000  Uiso   1.00
O1046  O     0.25049   0.93568   0.81339   0.00000  Uiso   1.00
O1047  O     0.22774   0.79513   0.75000   0.00000  Uiso   1.00
O1048  O     0.22774   0.87154   0.75000   0.00000  Uiso   1.00
O1049  O     0.10559   0.79513   0.74999   0.00000  Uiso   1.00
O1050  O     0.16666   0.87155   0.68453   0.00000  Uiso   1.00
O1051  O     0.16667   0.79511   0.81547   0.00000  Uiso   1.00
O1052  O     0.16667   0.87155   0.81547   0.00000  Uiso   1.00
O1053  O     0.16666   0.79511   0.68453   0.00000  Uiso   1.00
O1054  O     0.24131   0.73416   0.81486   0.00000  Uiso   1.00
Zn1055 Zn    0.16667   0.88437   0.75000   0.00000  Uiso   1.00
Zn1056 Zn    0.16667   0.78229   0.75000   0.00000  Uiso   1.00
C1057  C     0.42011   0.83327   0.75079   0.00000  Uiso   1.00
C1058  C     0.64561   0.87386   0.75288   0.00000  Uiso   1.00
C1059  C     0.64527   0.79245   0.75005   0.00000  Uiso   1.00
C1060  C     0.35483   0.87373   0.75462   0.00000  Uiso   1.00
C1061  C     0.52511   0.87695   0.54880   0.00000  Uiso   1.00
C1062  C     0.54822   0.81388   0.95025   0.00000  Uiso   1.00
C1063  C     0.48779   0.86210   0.95572   0.00000  Uiso   1.00
C1064  C     0.52275   0.79582   0.54683   0.00000  Uiso   1.00
C1065  C     0.51913   0.87560   0.59468   0.00000  Uiso   1.00
C1066  C     0.54118   0.81202   0.90396   0.00000  Uiso   1.00
C1067  C     0.48050   0.85969   0.90956   0.00000  Uiso   1.00
C1068  C     0.57993   0.83334   0.75008   0.00000  Uiso   1.00
C1069  C     0.51647   0.79455   0.59274   0.00000  Uiso   1.00
C1070  C     0.51209   0.83453   0.61636   0.00000  Uiso   1.00
C1071  C     0.50667   0.83378   0.88404   0.00000  Uiso   1.00
C1072  C     0.52523   0.83713   0.52467   0.00000  Uiso   1.00
C1073  C     0.52132   0.83871   0.97607   0.00000  Uiso   1.00
C1074  C     0.62417   0.83324   0.75078   0.00000  Uiso   1.00
C1075  C     0.37593   0.83310   0.75232   0.00000  Uiso   1.00
C1076  C     0.54269   0.71332   0.82113   0.00000  Uiso   1.00
C1077  C     0.45109   0.95247   0.68411   0.00000  Uiso   1.00
C1078  C     0.45382   0.71419   0.68095   0.00000  Uiso   1.00
C1079  C     0.50266   0.83358   0.66391   0.00000  Uiso   1.00
C1080  C     0.54378   0.95142   0.81994   0.00000  Uiso   1.00
C1081  C     0.50072   0.83327   0.83603   0.00000  Uiso   1.00
C1082  C     0.52090   0.69023   0.78345   0.00000  Uiso   1.00
C1083  C     0.47799   0.97620   0.71740   0.00000  Uiso   1.00
C1084  C     0.47829   0.69068   0.71703   0.00000  Uiso   1.00
C1085  C     0.52104   0.97577   0.78330   0.00000  Uiso   1.00
C1086  C     0.35453   0.79239   0.75087   0.00000  Uiso   1.00
H1087  H     0.52799   0.90898   0.53179   0.00000  Uiso   1.00
H1088  H     0.62976   0.90571   0.75305   0.00000  Uiso   1.00
H1089  H     0.62906   0.76068   0.74852   0.00000  Uiso   1.00
H1090  H     0.37095   0.90539   0.75752   0.00000  Uiso   1.00
H1091  H     0.54855   0.71947   0.88883   0.00000  Uiso   1.00
H1092  H     0.39496   0.92529   0.66922   0.00000  Uiso   1.00
H1093  H     0.44350   0.72410   0.61413   0.00000  Uiso   1.00
H1094  H     0.59629   0.91986   0.84109   0.00000  Uiso   1.00
H1095  H     0.57438   0.79613   0.96593   0.00000  Uiso   1.00
H1096  H     0.46664   0.88102   0.97573   0.00000  Uiso   1.00
H1097  H     0.52329   0.76480   0.52824   0.00000  Uiso   1.00
H1098  H     0.51958   0.90673   0.61281   0.00000  Uiso   1.00
H1099  H     0.56299   0.79458   0.88358   0.00000  Uiso   1.00
H1100  H     0.45443   0.87755   0.89380   0.00000  Uiso   1.00
H1101  H     0.51445   0.76248   0.60942   0.00000  Uiso   1.00
H1102  H     0.37044   0.76057   0.75017   0.00000  Uiso   1.00
N1103  N     0.50000   0.95240   0.75000   0.00000  Uiso   1.00
N1104  N     0.50000   0.71427   0.75000   0.00000  Uiso   1.00
O1105  O     0.43892   0.87154   0.74999   0.00000  Uiso   1.00
O1106  O     0.52826   0.70794   0.86471   0.00000  Uiso   1.00
O1107  O     0.46265   0.94714   0.64583   0.00000  Uiso   1.00
O1108  O     0.41088   0.94025   0.69514   0.00000  Uiso   1.00
O1109  O     0.42320   0.73576   0.68999   0.00000  Uiso   1.00
O1110  O     0.46347   0.70794   0.63594   0.00000  Uiso   1.00
O1111  O     0.52822   0.94713   0.85671   0.00000  Uiso   1.00
O1112  O     0.58382   0.93568   0.81339   0.00000  Uiso   1.00
O1113  O     0.56108   0.79513   0.75000   0.00000  Uiso   1.00
O1114  O     0.56108   0.87154   0.75000   0.00000  Uiso   1.00
O1115  O     0.43892   0.79513   0.74999   0.00000  Uiso   1.00
O1116  O     0.50000   0.87155   0.68453   0.00000  Uiso   1.00
O1117  O     0.50000   0.79511   0.81547   0.00000  Uiso   1.00
O1118  O     0.50000   0.87155   0.81547   0.00000  Uiso   1.00
O1119  O     0.50000   0.79511   0.68453   0.00000  Uiso   1.00
O1120  O     0.57464   0.73416   0.81486   0.00000  Uiso   1.00
Zn1121 Zn    0.50000   0.88437   0.75000   0.00000  Uiso   1.00
Zn1122 Zn    0.50000   0.78229   0.75000   0.00000  Uiso   1.00
C1123  C     0.75344   0.83327   0.75079   0.00000  Uiso   1.00
C1124  C     0.97894   0.87386   0.75288   0.00000  Uiso   1.00
C1125  C     0.97860   0.79245   0.75005   0.00000  Uiso   1.00
C1126  C     0.68816   0.87373   0.75462   0.00000  Uiso   1.00
C1127  C     0.85844   0.87695   0.54880   0.00000  Uiso   1.00
C1128  C     0.88156   0.81388   0.95025   0.00000  Uiso   1.00
C1129  C     0.82112   0.86210   0.95572   0.00000  Uiso   1.00
C1130  C     0.85608   0.79582   0.54683   0.00000  Uiso   1.00
C1131  C     0.85246   0.87560   0.59468   0.00000  Uiso   1.00
C1132  C     0.87451   0.81202   0.90396   0.00000  Uiso   1.00
C1133  C     0.81384   0.85969   0.90956   0.00000  Uiso   1.00
C1134  C     0.91326   0.83334   0.75008   0.00000  Uiso   1.00
C1135  C     0.84980   0.79455   0.59274   0.00000  Uiso   1.00
C1136  C     0.84542   0.83453   0.61636   0.00000  Uiso   1.00
C1137  C     0.84000   0.83378   0.88404   0.00000  Uiso   1.00
C1138  C     0.85856   0.83713   0.52467   0.00000  Uiso   1.00
C1139  C     0.85465   0.83871   0.97607   0.00000  Uiso   1.00
C1140  C     0.95750   0.83324   0.75078   0.00000  Uiso   1.00
C1141  C     0.70926   0.83310   0.75232   0.00000  Uiso   1.00
C1142  C     0.87603   0.71332   0.82113   0.00000  Uiso   1.00
C1143  C     0.78442   0.95247   0.68411   0.00000  Uiso   1.00
C1144  C     0.78716   0.71419   0.68095   0.00000  Uiso   1.00
C1145  C     0.83599   0.83358   0.66391   0.00000  Uiso   1.00
C1146  C     0.87711   0.95142   0.81994   0.00000  Uiso   1.00
C1147  C     0.83405   0.83327   0.83603   0.00000  Uiso   1.00
C1148  C     0.85423   0.69023   0.78345   0.00000  Uiso   1.00
C1149  C     0.81132   0.97620   0.71740   0.00000  Uiso   1.00
C1150  C     0.81163   0.69068   0.71703   0.00000  Uiso   1.00
C1151  C     0.85437   0.97577   0.78330   0.00000  Uiso   1.00
C1152  C     0.68786   0.79239   0.75087   0.00000  Uiso   1.00
H1153  H     0.86132   0.90898   0.53179   0.00000  Uiso   1.00
H1154  H     0.96310   0.90571   0.75305   0.00000  Uiso   1.00
H1155  H     0.96240   0.76068   0.74852   0.00000  Uiso   1.00
H1156  H     0.70429   0.90539   0.75752   0.00000  Uiso   1.00
H1157  H     0.88188   0.71947   0.88883   0.00000  Uiso   1.00
H1158  H     0.72830   0.92529   0.66922   0.00000  Uiso   1.00
H1159  H     0.77684   0.72410   0.61413   0.00000  Uiso   1.00
H1160  H     0.92962   0.91986   0.84109   0.00000  Uiso   1.00
H1161  H     0.90772   0.79613   0.96593   0.00000  Uiso   1.00
H1162  H     0.79997   0.88102   0.97573   0.00000  Uiso   1.00
H1163  H     0.85663   0.76480   0.52824   0.00000  Uiso   1.00
H1164  H     0.85292   0.90673   0.61281   0.00000  Uiso   1.00
H1165  H     0.89633   0.79458   0.88358   0.00000  Uiso   1.00
H1166  H     0.78777   0.87755   0.89380   0.00000  Uiso   1.00
H1167  H     0.84779   0.76248   0.60942   0.00000  Uiso   1.00
H1168  H     0.70378   0.76057   0.75017   0.00000  Uiso   1.00
N1169  N     0.83333   0.95240   0.75000   0.00000  Uiso   1.00
N1170  N     0.83333   0.71427   0.75000   0.00000  Uiso   1.00
O1171  O     0.77226   0.87154   0.74999   0.00000  Uiso   1.00
O1172  O     0.86159   0.70794   0.86471   0.00000  Uiso   1.00
O1173  O     0.79598   0.94714   0.64583   0.00000  Uiso   1.00
O1174  O     0.74421   0.94025   0.69514   0.00000  Uiso   1.00
O1175  O     0.75653   0.73576   0.68999   0.00000  Uiso   1.00
O1176  O     0.79680   0.70794   0.63594   0.00000  Uiso   1.00
O1177  O     0.86155   0.94713   0.85671   0.00000  Uiso   1.00
O1178  O     0.91715   0.93568   0.81339   0.00000  Uiso   1.00
O1179  O     0.89441   0.79513   0.75000   0.00000  Uiso   1.00
O1180  O     0.89441   0.87154   0.75000   0.00000  Uiso   1.00
O1181  O     0.77226   0.79513   0.74999   0.00000  Uiso   1.00
O1182  O     0.83333   0.87155   0.68453   0.00000  Uiso   1.00
O1183  O     0.83334   0.79511   0.81547   0.00000  Uiso   1.00
O1184  O     0.83334   0.87155   0.81547   0.00000  Uiso   1.00
O1185  O     0.83333   0.79511   0.68453   0.00000  Uiso   1.00
O1186  O     0.90798   0.73416   0.81486   0.00000  Uiso   1.00
Zn1187 Zn    0.83333   0.88437   0.75000   0.00000  Uiso   1.00
Zn1188 Zn    0.83333   0.78229   0.75000   0.00000  Uiso   1.00
loop_
_geom_bond_atom_site_label_1
_geom_bond_atom_site_label_2
_geom_bond_distance
_geom_bond_site_symmetry_2
_ccdc_geom_bond_type
C1     O49     1.294   .     A
C1     O59     1.293   .     A
C1     C19     1.424   .     S
C2     C18     1.396   .     A
C2     H32     1.081   .     S
C2     C70     1.368   .     S
C3     C18     1.398   .     A
C3     H33     1.083   .     S
C3     C96     1.370   .     S
C4     H34     1.081   .     S
C4     C19     1.397   .     A
C4     C134    1.368   1_455 S
C5     C9      1.382   .     A
C5     C16     1.395   .     A
C5     H31     1.084   .     S
C6     C10     1.384   .     A
C6     C17     1.397   .     A
C6     H39     1.083   .     S
C7     H40     1.084   .     S
C7     C11     1.382   .     A
C7     C17     1.401   .     A
C8     C13     1.384   .     A
C8     H41     1.084   .     S
C8     C16     1.397   .     A
C9     C14     1.403   .     A
C9     H42     1.079   .     S
C10    H43     1.082   .     S
C10    C15     1.397   .     A
C11    H44     1.084   .     S
C11    C15     1.394   .     A
C12    O58     1.294   .     A
C12    O57     1.293   .     A
C12    C18     1.423   .     S
C13    C14     1.401   .     A
C13    H45     1.078   .     S
C14    C23     1.454   .     S
C15    C25     1.430   .     S
C16    C611    1.442   1_554 S
C17    C610    1.442   .     S
C19    C30     1.398   .     A
C20    O64     1.220   .     D
C20    O50     1.398   .     S
C20    C26     1.473   .     S
C21    C27     1.474   .     S
C21    O51     1.220   .     D
C21    O52     1.394   .     S
C22    O54     1.396   .     S
C22    O53     1.219   .     D
C22    C28     1.478   .     S
C23    O63     1.302   .     A
C23    O60     1.299   .     A
C24    O56     1.394   .     S
C24    O55     1.223   .     D
C24    C29     1.474   .     S
C25    O61     1.298   .     A
C25    O62     1.292   .     A
C26    N48     1.375   .     A
C26    C425    1.429   1_545 S
C27    N47     1.371   .     A
C27    C226    1.429   .     S
C28    N48     1.378   .     A
C28    C423    1.429   1_545 S
C29    N47     1.371   .     A
C29    C224    1.429   .     S
C30    H46     1.082   .     S
C30    C135    1.370   1_455 S
H35    O50     1.012   .     S
H36    O52     1.014   .     S
H37    O54     1.014   .     S
H38    O56     1.014   .     S
N47    Zn65    2.034   .     S
N48    Zn66    2.034   .     S
O49    Zn65    2.002   .     S
O57    Zn66    2.002   .     S
O58    Zn65    2.003   .     S
O59    Zn66    2.003   .     S
O60    Zn65    1.982   .     S
O61    Zn66    1.982   .     S
O62    Zn65    1.976   .     S
O63    Zn66    1.976   .     S
C67    O115    1.294   .     A
C67    O125    1.293   .     A
C67    C85     1.424   .     S
C68    C84     1.396   .     A
C68    H98     1.081   .     S
C68    C136    1.368   .     S
C69    C84     1.398   .     A
C69    H99     1.083   .     S
C69    C162    1.370   .     S
C70    H100    1.081   .     S
C70    C85     1.397   .     A
C71    C75     1.382   .     A
C71    C82     1.395   .     A
C71    H97     1.084   .     S
C72    C76     1.384   .     A
C72    C83     1.397   .     A
C72    H105    1.083   .     S
C73    H106    1.084   .     S
C73    C77     1.382   .     A
C73    C83     1.401   .     A
C74    C79     1.384   .     A
C74    H107    1.084   .     S
C74    C82     1.397   .     A
C75    C80     1.403   .     A
C75    H108    1.079   .     S
C76    H109    1.082   .     S
C76    C81     1.397   .     A
C77    H110    1.084   .     S
C77    C81     1.394   .     A
C78    O124    1.294   .     A
C78    O123    1.293   .     A
C78    C84     1.423   .     S
C79    C80     1.401   .     A
C79    H111    1.078   .     S
C80    C89     1.454   .     S
C81    C91     1.430   .     S
C82    C677    1.442   1_554 S
C83    C676    1.442   .     S
C85    C96     1.398   .     A
C86    O130    1.220   .     D
C86    O116    1.398   .     S
C86    C92     1.473   .     S
C87    C93     1.474   .     S
C87    O117    1.220   .     D
C87    O118    1.394   .     S
C88    O120    1.396   .     S
C88    O119    1.219   .     D
C88    C94     1.478   .     S
C89    O129    1.302   .     A
C89    O126    1.299   .     A
C90    O122    1.394   .     S
C90    O121    1.223   .     D
C90    C95     1.474   .     S
C91    O127    1.298   .     A
C91    O128    1.292   .     A
C92    N114    1.375   .     A
C92    C491    1.429   1_545 S
C93    N113    1.371   .     A
C93    C292    1.429   .     S
C94    N114    1.378   .     A
C94    C489    1.429   1_545 S
C95    N113    1.371   .     A
C95    C290    1.429   .     S
C96    H112    1.082   .     S
H101   O116    1.012   .     S
H102   O118    1.014   .     S
H103   O120    1.014   .     S
H104   O122    1.014   .     S
N113   Zn131   2.034   .     S
N114   Zn132   2.034   .     S
O115   Zn131   2.002   .     S
O123   Zn132   2.002   .     S
O124   Zn131   2.003   .     S
O125   Zn132   2.003   .     S
O126   Zn131   1.982   .     S
O127   Zn132   1.982   .     S
O128   Zn131   1.976   .     S
O129   Zn132   1.976   .     S
C133   O181    1.294   .     A
C133   O191    1.293   .     A
C133   C151    1.424   .     S
C134   C150    1.396   .     A
C134   H164    1.081   .     S
C134   C4      1.368   1_655 S
C135   C150    1.398   .     A
C135   H165    1.083   .     S
C135   C30     1.370   1_655 S
C136   H166    1.081   .     S
C136   C151    1.397   .     A
C137   C141    1.382   .     A
C137   C148    1.395   .     A
C137   H163    1.084   .     S
C138   C142    1.384   .     A
C138   C149    1.397   .     A
C138   H171    1.083   .     S
C139   H172    1.084   .     S
C139   C143    1.382   .     A
C139   C149    1.401   .     A
C140   C145    1.384   .     A
C140   H173    1.084   .     S
C140   C148    1.397   .     A
C141   C146    1.403   .     A
C141   H174    1.079   .     S
C142   H175    1.082   .     S
C142   C147    1.397   .     A
C143   H176    1.084   .     S
C143   C147    1.394   .     A
C144   O190    1.294   .     A
C144   O189    1.293   .     A
C144   C150    1.423   .     S
C145   C146    1.401   .     A
C145   H177    1.078   .     S
C146   C155    1.454   .     S
C147   C157    1.430   .     S
C148   C743    1.442   1_554 S
C149   C742    1.442   .     S
C151   C162    1.398   .     A
C152   O196    1.220   .     D
C152   O182    1.398   .     S
C152   C158    1.473   .     S
C153   C159    1.474   .     S
C153   O183    1.220   .     D
C153   O184    1.394   .     S
C154   O186    1.396   .     S
C154   O185    1.219   .     D
C154   C160    1.478   .     S
C155   O195    1.302   .     A
C155   O192    1.299   .     A
C156   O188    1.394   .     S
C156   O187    1.223   .     D
C156   C161    1.474   .     S
C157   O193    1.298   .     A
C157   O194    1.292   .     A
C158   N180    1.375   .     A
C158   C557    1.429   1_545 S
C159   N179    1.371   .     A
C159   C358    1.429   .     S
C160   N180    1.378   .     A
C160   C555    1.429   1_545 S
C161   N179    1.371   .     A
C161   C356    1.429   .     S
C162   H178    1.082   .     S
H167   O182    1.012   .     S
H168   O184    1.014   .     S
H169   O186    1.014   .     S
H170   O188    1.014   .     S
N179   Zn197   2.034   .     S
N180   Zn198   2.034   .     S
O181   Zn197   2.002   .     S
O189   Zn198   2.002   .     S
O190   Zn197   2.003   .     S
O191   Zn198   2.003   .     S
O192   Zn197   1.982   .     S
O193   Zn198   1.982   .     S
O194   Zn197   1.976   .     S
O195   Zn198   1.976   .     S
C199   O247    1.294   .     A
C199   O257    1.293   .     A
C199   C217    1.424   .     S
C200   C216    1.396   .     A
C200   H230    1.081   .     S
C200   C268    1.368   .     S
C201   C216    1.398   .     A
C201   H231    1.083   .     S
C201   C294    1.370   .     S
C202   H232    1.081   .     S
C202   C217    1.397   .     A
C202   C332    1.368   1_455 S
C203   C207    1.382   .     A
C203   C214    1.395   .     A
C203   H229    1.084   .     S
C204   C208    1.384   .     A
C204   C215    1.397   .     A
C204   H237    1.083   .     S
C205   H238    1.084   .     S
C205   C209    1.382   .     A
C205   C215    1.401   .     A
C206   C211    1.384   .     A
C206   H239    1.084   .     S
C206   C214    1.397   .     A
C207   C212    1.403   .     A
C207   H240    1.079   .     S
C208   H241    1.082   .     S
C208   C213    1.397   .     A
C209   H242    1.084   .     S
C209   C213    1.394   .     A
C210   O256    1.294   .     A
C210   O255    1.293   .     A
C210   C216    1.423   .     S
C211   C212    1.401   .     A
C211   H243    1.078   .     S
C212   C221    1.454   .     S
C213   C223    1.430   .     S
C214   C809    1.442   1_554 S
C215   C808    1.442   .     S
C217   C228    1.398   .     A
C218   O262    1.220   .     D
C218   O248    1.398   .     S
C218   C224    1.473   .     S
C219   C225    1.474   .     S
C219   O249    1.220   .     D
C219   O250    1.394   .     S
C220   O252    1.396   .     S
C220   O251    1.219   .     D
C220   C226    1.478   .     S
C221   O261    1.302   .     A
C221   O258    1.299   .     A
C222   O254    1.394   .     S
C222   O253    1.223   .     D
C222   C227    1.474   .     S
C223   O259    1.298   .     A
C223   O260    1.292   .     A
C224   N246    1.375   .     A
C225   N245    1.371   .     A
C225   C424    1.429   .     S
C226   N246    1.378   .     A
C227   N245    1.371   .     A
C227   C422    1.429   .     S
C228   H244    1.082   .     S
C228   C333    1.370   1_455 S
H233   O248    1.012   .     S
H234   O250    1.014   .     S
H235   O252    1.014   .     S
H236   O254    1.014   .     S
N245   Zn263   2.034   .     S
N246   Zn264   2.034   .     S
O247   Zn263   2.002   .     S
O255   Zn264   2.002   .     S
O256   Zn263   2.003   .     S
O257   Zn264   2.003   .     S
O258   Zn263   1.982   .     S
O259   Zn264   1.982   .     S
O260   Zn263   1.976   .     S
O261   Zn264   1.976   .     S
C265   O313    1.294   .     A
C265   O323    1.293   .     A
C265   C283    1.424   .     S
C266   C282    1.396   .     A
C266   H296    1.081   .     S
C266   C334    1.368   .     S
C267   C282    1.398   .     A
C267   H297    1.083   .     S
C267   C360    1.370   .     S
C268   H298    1.081   .     S
C268   C283    1.397   .     A
C269   C273    1.382   .     A
C269   C280    1.395   .     A
C269   H295    1.084   .     S
C270   C274    1.384   .     A
C270   C281    1.397   .     A
C270   H303    1.083   .     S
C271   H304    1.084   .     S
C271   C275    1.382   .     A
C271   C281    1.401   .     A
C272   C277    1.384   .     A
C272   H305    1.084   .     S
C272   C280    1.397   .     A
C273   C278    1.403   .     A
C273   H306    1.079   .     S
C274   H307    1.082   .     S
C274   C279    1.397   .     A
C275   H308    1.084   .     S
C275   C279    1.394   .     A
C276   O322    1.294   .     A
C276   O321    1.293   .     A
C276   C282    1.423   .     S
C277   C278    1.401   .     A
C277   H309    1.078   .     S
C278   C287    1.454   .     S
C279   C289    1.430   .     S
C280   C875    1.442   1_554 S
C281   C874    1.442   .     S
C283   C294    1.398   .     A
C284   O328    1.220   .     D
C284   O314    1.398   .     S
C284   C290    1.473   .     S
C285   C291    1.474   .     S
C285   O315    1.220   .     D
C285   O316    1.394   .     S
C286   O318    1.396   .     S
C286   O317    1.219   .     D
C286   C292    1.478   .     S
C287   O327    1.302   .     A
C287   O324    1.299   .     A
C288   O320    1.394   .     S
C288   O319    1.223   .     D
C288   C293    1.474   .     S
C289   O325    1.298   .     A
C289   O326    1.292   .     A
C290   N312    1.375   .     A
C291   N311    1.371   .     A
C291   C490    1.429   .     S
C292   N312    1.378   .     A
C293   N311    1.371   .     A
C293   C488    1.429   .     S
C294   H310    1.082   .     S
H299   O314    1.012   .     S
H300   O316    1.014   .     S
H301   O318    1.014   .     S
H302   O320    1.014   .     S
N311   Zn329   2.034   .     S
N312   Zn330   2.034   .     S
O313   Zn329   2.002   .     S
O321   Zn330   2.002   .     S
O322   Zn329   2.003   .     S
O323   Zn330   2.003   .     S
O324   Zn329   1.982   .     S
O325   Zn330   1.982   .     S
O326   Zn329   1.976   .     S
O327   Zn330   1.976   .     S
C331   O379    1.294   .     A
C331   O389    1.293   .     A
C331   C349    1.424   .     S
C332   C348    1.396   .     A
C332   H362    1.081   .     S
C332   C202    1.368   1_655 S
C333   C348    1.398   .     A
C333   H363    1.083   .     S
C333   C228    1.370   1_655 S
C334   H364    1.081   .     S
C334   C349    1.397   .     A
C335   C339    1.382   .     A
C335   C346    1.395   .     A
C335   H361    1.084   .     S
C336   C340    1.384   .     A
C336   C347    1.397   .     A
C336   H369    1.083   .     S
C337   H370    1.084   .     S
C337   C341    1.382   .     A
C337   C347    1.401   .     A
C338   C343    1.384   .     A
C338   H371    1.084   .     S
C338   C346    1.397   .     A
C339   C344    1.403   .     A
C339   H372    1.079   .     S
C340   H373    1.082   .     S
C340   C345    1.397   .     A
C341   H374    1.084   .     S
C341   C345    1.394   .     A
C342   O388    1.294   .     A
C342   O387    1.293   .     A
C342   C348    1.423   .     S
C343   C344    1.401   .     A
C343   H375    1.078   .     S
C344   C353    1.454   .     S
C345   C355    1.430   .     S
C346   C941    1.442   1_554 S
C347   C940    1.442   .     S
C349   C360    1.398   .     A
C350   O394    1.220   .     D
C350   O380    1.398   .     S
C350   C356    1.473   .     S
C351   C357    1.474   .     S
C351   O381    1.220   .     D
C351   O382    1.394   .     S
C352   O384    1.396   .     S
C352   O383    1.219   .     D
C352   C358    1.478   .     S
C353   O393    1.302   .     A
C353   O390    1.299   .     A
C354   O386    1.394   .     S
C354   O385    1.223   .     D
C354   C359    1.474   .     S
C355   O391    1.298   .     A
C355   O392    1.292   .     A
C356   N378    1.375   .     A
C357   N377    1.371   .     A
C357   C556    1.429   .     S
C358   N378    1.378   .     A
C359   N377    1.371   .     A
C359   C554    1.429   .     S
C360   H376    1.082   .     S
H365   O380    1.012   .     S
H366   O382    1.014   .     S
H367   O384    1.014   .     S
H368   O386    1.014   .     S
N377   Zn395   2.034   .     S
N378   Zn396   2.034   .     S
O379   Zn395   2.002   .     S
O387   Zn396   2.002   .     S
O388   Zn395   2.003   .     S
O389   Zn396   2.003   .     S
O390   Zn395   1.982   .     S
O391   Zn396   1.982   .     S
O392   Zn395   1.976   .     S
O393   Zn396   1.976   .     S
C397   O445    1.294   .     A
C397   O455    1.293   .     A
C397   C415    1.424   .     S
C398   C414    1.396   .     A
C398   H428    1.081   .     S
C398   C466    1.368   .     S
C399   C414    1.398   .     A
C399   H429    1.083   .     S
C399   C492    1.370   .     S
C400   H430    1.081   .     S
C400   C415    1.397   .     A
C400   C530    1.368   1_455 S
C401   C405    1.382   .     A
C401   C412    1.395   .     A
C401   H427    1.084   .     S
C402   C406    1.384   .     A
C402   C413    1.397   .     A
C402   H435    1.083   .     S
C403   H436    1.084   .     S
C403   C407    1.382   .     A
C403   C413    1.401   .     A
C404   C409    1.384   .     A
C404   H437    1.084   .     S
C404   C412    1.397   .     A
C405   C410    1.403   .     A
C405   H438    1.079   .     S
C406   H439    1.082   .     S
C406   C411    1.397   .     A
C407   H440    1.084   .     S
C407   C411    1.394   .     A
C408   O454    1.294   .     A
C408   O453    1.293   .     A
C408   C414    1.423   .     S
C409   C410    1.401   .     A
C409   H441    1.078   .     S
C410   C419    1.454   .     S
C411   C421    1.430   .     S
C412   C1007   1.442   1_554 S
C413   C1006   1.442   .     S
C415   C426    1.398   .     A
C416   O460    1.220   .     D
C416   O446    1.398   .     S
C416   C422    1.473   .     S
C417   C423    1.474   .     S
C417   O447    1.220   .     D
C417   O448    1.394   .     S
C418   O450    1.396   .     S
C418   O449    1.219   .     D
C418   C424    1.478   .     S
C419   O459    1.302   .     A
C419   O456    1.299   .     A
C420   O452    1.394   .     S
C420   O451    1.223   .     D
C420   C425    1.474   .     S
C421   O457    1.298   .     A
C421   O458    1.292   .     A
C422   N444    1.375   .     A
C423   N443    1.371   .     A
C423   C28     1.429   1_565 S
C424   N444    1.378   .     A
C425   N443    1.371   .     A
C425   C26     1.429   1_565 S
C426   H442    1.082   .     S
C426   C531    1.370   1_455 S
H431   O446    1.012   .     S
H432   O448    1.014   .     S
H433   O450    1.014   .     S
H434   O452    1.014   .     S
N443   Zn461   2.034   .     S
N444   Zn462   2.034   .     S
O445   Zn461   2.002   .     S
O453   Zn462   2.002   .     S
O454   Zn461   2.003   .     S
O455   Zn462   2.003   .     S
O456   Zn461   1.982   .     S
O457   Zn462   1.982   .     S
O458   Zn461   1.976   .     S
O459   Zn462   1.976   .     S
C463   O511    1.294   .     A
C463   O521    1.293   .     A
C463   C481    1.424   .     S
C464   C480    1.396   .     A
C464   H494    1.081   .     S
C464   C532    1.368   .     S
C465   C480    1.398   .     A
C465   H495    1.083   .     S
C465   C558    1.370   .     S
C466   H496    1.081   .     S
C466   C481    1.397   .     A
C467   C471    1.382   .     A
C467   C478    1.395   .     A
C467   H493    1.084   .     S
C468   C472    1.384   .     A
C468   C479    1.397   .     A
C468   H501    1.083   .     S
C469   H502    1.084   .     S
C469   C473    1.382   .     A
C469   C479    1.401   .     A
C470   C475    1.384   .     A
C470   H503    1.084   .     S
C470   C478    1.397   .     A
C471   C476    1.403   .     A
C471   H504    1.079   .     S
C472   H505    1.082   .     S
C472   C477    1.397   .     A
C473   H506    1.084   .     S
C473   C477    1.394   .     A
C474   O520    1.294   .     A
C474   O519    1.293   .     A
C474   C480    1.423   .     S
C475   C476    1.401   .     A
C475   H507    1.078   .     S
C476   C485    1.454   .     S
C477   C487    1.430   .     S
C478   C1073   1.442   1_554 S
C479   C1072   1.442   .     S
C481   C492    1.398   .     A
C482   O526    1.220   .     D
C482   O512    1.398   .     S
C482   C488    1.473   .     S
C483   C489    1.474   .     S
C483   O513    1.220   .     D
C483   O514    1.394   .     S
C484   O516    1.396   .     S
C484   O515    1.219   .     D
C484   C490    1.478   .     S
C485   O525    1.302   .     A
C485   O522    1.299   .     A
C486   O518    1.394   .     S
C486   O517    1.223   .     D
C486   C491    1.474   .     S
C487   O523    1.298   .     A
C487   O524    1.292   .     A
C488   N510    1.375   .     A
C489   N509    1.371   .     A
C489   C94     1.429   1_565 S
C490   N510    1.378   .     A
C491   N509    1.371   .     A
C491   C92     1.429   1_565 S
C492   H508    1.082   .     S
H497   O512    1.012   .     S
H498   O514    1.014   .     S
H499   O516    1.014   .     S
H500   O518    1.014   .     S
N509   Zn527   2.034   .     S
N510   Zn528   2.034   .     S
O511   Zn527   2.002   .     S
O519   Zn528   2.002   .     S
O520   Zn527   2.003   .     S
O521   Zn528   2.003   .     S
O522   Zn527   1.982   .     S
O523   Zn528   1.982   .     S
O524   Zn527   1.976   .     S
O525   Zn528   1.976   .     S
C529   O577    1.294   .     A
C529   O587    1.293   .     A
C529   C547    1.424   .     S
C530   C546    1.396   .     A
C530   H560    1.081   .     S
C530   C400    1.368   1_655 S
C531   C546    1.398   .     A
C531   H561    1.083   .     S
C531   C426    1.370   1_655 S
C532   H562    1.081   .     S
C532   C547    1.397   .     A
C533   C537    1.382   .     A
C533   C544    1.395   .     A
C533   H559    1.084   .     S
C534   C538    1.384   .     A
C534   C545    1.397   .     A
C534   H567    1.083   .     S
C535   H568    1.084   .     S
C535   C539    1.382   .     A
C535   C545    1.401   .     A
C536   C541    1.384   .     A
C536   H569    1.084   .     S
C536   C544    1.397   .     A
C537   C542    1.403   .     A
C537   H570    1.079   .     S
C538   H571    1.082   .     S
C538   C543    1.397   .     A
C539   H572    1.084   .     S
C539   C543    1.394   .     A
C540   O586    1.294   .     A
C540   O585    1.293   .     A
C540   C546    1.423   .     S
C541   C542    1.401   .     A
C541   H573    1.078   .     S
C542   C551    1.454   .     S
C543   C553    1.430   .     S
C544   C1139   1.442   1_554 S
C545   C1138   1.442   .     S
C547   C558    1.398   .     A
C548   O592    1.220   .     D
C548   O578    1.398   .     S
C548   C554    1.473   .     S
C549   C555    1.474   .     S
C549   O579    1.220   .     D
C549   O580    1.394   .     S
C550   O582    1.396   .     S
C550   O581    1.219   .     D
C550   C556    1.478   .     S
C551   O591    1.302   .     A
C551   O588    1.299   .     A
C552   O584    1.394   .     S
C552   O583    1.223   .     D
C552   C557    1.474   .     S
C553   O589    1.298   .     A
C553   O590    1.292   .     A
C554   N576    1.375   .     A
C555   N575    1.371   .     A
C555   C160    1.429   1_565 S
C556   N576    1.378   .     A
C557   N575    1.371   .     A
C557   C158    1.429   1_565 S
C558   H574    1.082   .     S
H563   O578    1.012   .     S
H564   O580    1.014   .     S
H565   O582    1.014   .     S
H566   O584    1.014   .     S
N575   Zn593   2.034   .     S
N576   Zn594   2.034   .     S
O577   Zn593   2.002   .     S
O585   Zn594   2.002   .     S
O586   Zn593   2.003   .     S
O587   Zn594   2.003   .     S
O588   Zn593   1.982   .     S
O589   Zn594   1.982   .     S
O590   Zn593   1.976   .     S
O591   Zn594   1.976   .     S
C595   O643    1.294   .     A
C595   O653    1.293   .     A
C595   C613    1.424   .     S
C596   C612    1.396   .     A
C596   H626    1.081   .     S
C596   C664    1.368   .     S
C597   C612    1.398   .     A
C597   H627    1.083   .     S
C597   C690    1.370   .     S
C598   H628    1.081   .     S
C598   C613    1.397   .     A
C598   C728    1.368   1_455 S
C599   C603    1.382   .     A
C599   C610    1.395   .     A
C599   H625    1.084   .     S
C600   C604    1.384   .     A
C600   C611    1.397   .     A
C600   H633    1.083   .     S
C601   H634    1.084   .     S
C601   C605    1.382   .     A
C601   C611    1.401   .     A
C602   C607    1.384   .     A
C602   H635    1.084   .     S
C602   C610    1.397   .     A
C603   C608    1.403   .     A
C603   H636    1.079   .     S
C604   H637    1.082   .     S
C604   C609    1.397   .     A
C605   H638    1.084   .     S
C605   C609    1.394   .     A
C606   O652    1.294   .     A
C606   O651    1.293   .     A
C606   C612    1.423   .     S
C607   C608    1.401   .     A
C607   H639    1.078   .     S
C608   C617    1.454   .     S
C609   C619    1.430   .     S
C611   C16     1.442   1_556 S
C613   C624    1.398   .     A
C614   O658    1.220   .     D
C614   O644    1.398   .     S
C614   C620    1.473   .     S
C615   C621    1.474   .     S
C615   O645    1.220   .     D
C615   O646    1.394   .     S
C616   O648    1.396   .     S
C616   O647    1.219   .     D
C616   C622    1.478   .     S
C617   O657    1.302   .     A
C617   O654    1.299   .     A
C618   O650    1.394   .     S
C618   O649    1.223   .     D
C618   C623    1.474   .     S
C619   O655    1.298   .     A
C619   O656    1.292   .     A
C620   N642    1.375   .     A
C620   C1019   1.429   1_545 S
C621   N641    1.371   .     A
C621   C820    1.429   .     S
C622   N642    1.378   .     A
C622   C1017   1.429   1_545 S
C623   N641    1.371   .     A
C623   C818    1.429   .     S
C624   H640    1.082   .     S
C624   C729    1.370   1_455 S
H629   O644    1.012   .     S
H630   O646    1.014   .     S
H631   O648    1.014   .     S
H632   O650    1.014   .     S
N641   Zn659   2.034   .     S
N642   Zn660   2.034   .     S
O643   Zn659   2.002   .     S
O651   Zn660   2.002   .     S
O652   Zn659   2.003   .     S
O653   Zn660   2.003   .     S
O654   Zn659   1.982   .     S
O655   Zn660   1.982   .     S
O656   Zn659   1.976   .     S
O657   Zn660   1.976   .     S
C661   O709    1.294   .     A
C661   O719    1.293   .     A
C661   C679    1.424   .     S
C662   C678    1.396   .     A
C662   H692    1.081   .     S
C662   C730    1.368   .     S
C663   C678    1.398   .     A
C663   H693    1.083   .     S
C663   C756    1.370   .     S
C664   H694    1.081   .     S
C664   C679    1.397   .     A
C665   C669    1.382   .     A
C665   C676    1.395   .     A
C665   H691    1.084   .     S
C666   C670    1.384   .     A
C666   C677    1.397   .     A
C666   H699    1.083   .     S
C667   H700    1.084   .     S
C667   C671    1.382   .     A
C667   C677    1.401   .     A
C668   C673    1.384   .     A
C668   H701    1.084   .     S
C668   C676    1.397   .     A
C669   C674    1.403   .     A
C669   H702    1.079   .     S
C670   H703    1.082   .     S
C670   C675    1.397   .     A
C671   H704    1.084   .     S
C671   C675    1.394   .     A
C672   O718    1.294   .     A
C672   O717    1.293   .     A
C672   C678    1.423   .     S
C673   C674    1.401   .     A
C673   H705    1.078   .     S
C674   C683    1.454   .     S
C675   C685    1.430   .     S
C677   C82     1.442   1_556 S
C679   C690    1.398   .     A
C680   O724    1.220   .     D
C680   O710    1.398   .     S
C680   C686    1.473   .     S
C681   C687    1.474   .     S
C681   O711    1.220   .     D
C681   O712    1.394   .     S
C682   O714    1.396   .     S
C682   O713    1.219   .     D
C682   C688    1.478   .     S
C683   O723    1.302   .     A
C683   O720    1.299   .     A
C684   O716    1.394   .     S
C684   O715    1.223   .     D
C684   C689    1.474   .     S
C685   O721    1.298   .     A
C685   O722    1.292   .     A
C686   N708    1.375   .     A
C686   C1085   1.429   1_545 S
C687   N707    1.371   .     A
C687   C886    1.429   .     S
C688   N708    1.378   .     A
C688   C1083   1.429   1_545 S
C689   N707    1.371   .     A
C689   C884    1.429   .     S
C690   H706    1.082   .     S
H695   O710    1.012   .     S
H696   O712    1.014   .     S
H697   O714    1.014   .     S
H698   O716    1.014   .     S
N707   Zn725   2.034   .     S
N708   Zn726   2.034   .     S
O709   Zn725   2.002   .     S
O717   Zn726   2.002   .     S
O718   Zn725   2.003   .     S
O719   Zn726   2.003   .     S
O720   Zn725   1.982   .     S
O721   Zn726   1.982   .     S
O722   Zn725   1.976   .     S
O723   Zn726   1.976   .     S
C727   O775    1.294   .     A
C727   O785    1.293   .     A
C727   C745    1.424   .     S
C728   C744    1.396   .     A
C728   H758    1.081   .     S
C728   C598    1.368   1_655 S
C729   C744    1.398   .     A
C729   H759    1.083   .     S
C729   C624    1.370   1_655 S
C730   H760    1.081   .     S
C730   C745    1.397   .     A
C731   C735    1.382   .     A
C731   C742    1.395   .     A
C731   H757    1.084   .     S
C732   C736    1.384   .     A
C732   C743    1.397   .     A
C732   H765    1.083   .     S
C733   H766    1.084   .     S
C733   C737    1.382   .     A
C733   C743    1.401   .     A
C734   C739    1.384   .     A
C734   H767    1.084   .     S
C734   C742    1.397   .     A
C735   C740    1.403   .     A
C735   H768    1.079   .     S
C736   H769    1.082   .     S
C736   C741    1.397   .     A
C737   H770    1.084   .     S
C737   C741    1.394   .     A
C738   O784    1.294   .     A
C738   O783    1.293   .     A
C738   C744    1.423   .     S
C739   C740    1.401   .     A
C739   H771    1.078   .     S
C740   C749    1.454   .     S
C741   C751    1.430   .     S
C743   C148    1.442   1_556 S
C745   C756    1.398   .     A
C746   O790    1.220   .     D
C746   O776    1.398   .     S
C746   C752    1.473   .     S
C747   C753    1.474   .     S
C747   O777    1.220   .     D
C747   O778    1.394   .     S
C748   O780    1.396   .     S
C748   O779    1.219   .     D
C748   C754    1.478   .     S
C749   O789    1.302   .     A
C749   O786    1.299   .     A
C750   O782    1.394   .     S
C750   O781    1.223   .     D
C750   C755    1.474   .     S
C751   O787    1.298   .     A
C751   O788    1.292   .     A
C752   N774    1.375   .     A
C752   C1151   1.429   1_545 S
C753   N773    1.371   .     A
C753   C952    1.429   .     S
C754   N774    1.378   .     A
C754   C1149   1.429   1_545 S
C755   N773    1.371   .     A
C755   C950    1.429   .     S
C756   H772    1.082   .     S
H761   O776    1.012   .     S
H762   O778    1.014   .     S
H763   O780    1.014   .     S
H764   O782    1.014   .     S
N773   Zn791   2.034   .     S
N774   Zn792   2.034   .     S
O775   Zn791   2.002   .     S
O783   Zn792   2.002   .     S
O784   Zn791   2.003   .     S
O785   Zn792   2.003   .     S
O786   Zn791   1.982   .     S
O787   Zn792   1.982   .     S
O788   Zn791   1.976   .     S
O789   Zn792   1.976   .     S
C793   O841    1.294   .     A
C793   O851    1.293   .     A
C793   C811    1.424   .     S
C794   C810    1.396   .     A
C794   H824    1.081   .     S
C794   C862    1.368   .     S
C795   C810    1.398   .     A
C795   H825    1.083   .     S
C795   C888    1.370   .     S
C796   H826    1.081   .     S
C796   C811    1.397   .     A
C796   C926    1.368   1_455 S
C797   C801    1.382   .     A
C797   C808    1.395   .     A
C797   H823    1.084   .     S
C798   C802    1.384   .     A
C798   C809    1.397   .     A
C798   H831    1.083   .     S
C799   H832    1.084   .     S
C799   C803    1.382   .     A
C799   C809    1.401   .     A
C800   C805    1.384   .     A
C800   H833    1.084   .     S
C800   C808    1.397   .     A
C801   C806    1.403   .     A
C801   H834    1.079   .     S
C802   H835    1.082   .     S
C802   C807    1.397   .     A
C803   H836    1.084   .     S
C803   C807    1.394   .     A
C804   O850    1.294   .     A
C804   O849    1.293   .     A
C804   C810    1.423   .     S
C805   C806    1.401   .     A
C805   H837    1.078   .     S
C806   C815    1.454   .     S
C807   C817    1.430   .     S
C809   C214    1.442   1_556 S
C811   C822    1.398   .     A
C812   O856    1.220   .     D
C812   O842    1.398   .     S
C812   C818    1.473   .     S
C813   C819    1.474   .     S
C813   O843    1.220   .     D
C813   O844    1.394   .     S
C814   O846    1.396   .     S
C814   O845    1.219   .     D
C814   C820    1.478   .     S
C815   O855    1.302   .     A
C815   O852    1.299   .     A
C816   O848    1.394   .     S
C816   O847    1.223   .     D
C816   C821    1.474   .     S
C817   O853    1.298   .     A
C817   O854    1.292   .     A
C818   N840    1.375   .     A
C819   N839    1.371   .     A
C819   C1018   1.429   .     S
C820   N840    1.378   .     A
C821   N839    1.371   .     A
C821   C1016   1.429   .     S
C822   H838    1.082   .     S
C822   C927    1.370   1_455 S
H827   O842    1.012   .     S
H828   O844    1.014   .     S
H829   O846    1.014   .     S
H830   O848    1.014   .     S
N839   Zn857   2.034   .     S
N840   Zn858   2.034   .     S
O841   Zn857   2.002   .     S
O849   Zn858   2.002   .     S
O850   Zn857   2.003   .     S
O851   Zn858   2.003   .     S
O852   Zn857   1.982   .     S
O853   Zn858   1.982   .     S
O854   Zn857   1.976   .     S
O855   Zn858   1.976   .     S
C859   O907    1.294   .     A
C859   O917    1.293   .     A
C859   C877    1.424   .     S
C860   C876    1.396   .     A
C860   H890    1.081   .     S
C860   C928    1.368   .     S
C861   C876    1.398   .     A
C861   H891    1.083   .     S
C861   C954    1.370   .     S
C862   H892    1.081   .     S
C862   C877    1.397   .     A
C863   C867    1.382   .     A
C863   C874    1.395   .     A
C863   H889    1.084   .     S
C864   C868    1.384   .     A
C864   C875    1.397   .     A
C864   H897    1.083   .     S
C865   H898    1.084   .     S
C865   C869    1.382   .     A
C865   C875    1.401   .     A
C866   C871    1.384   .     A
C866   H899    1.084   .     S
C866   C874    1.397   .     A
C867   C872    1.403   .     A
C867   H900    1.079   .     S
C868   H901    1.082   .     S
C868   C873    1.397   .     A
C869   H902    1.084   .     S
C869   C873    1.394   .     A
C870   O916    1.294   .     A
C870   O915    1.293   .     A
C870   C876    1.423   .     S
C871   C872    1.401   .     A
C871   H903    1.078   .     S
C872   C881    1.454   .     S
C873   C883    1.430   .     S
C875   C280    1.442   1_556 S
C877   C888    1.398   .     A
C878   O922    1.220   .     D
C878   O908    1.398   .     S
C878   C884    1.473   .     S
C879   C885    1.474   .     S
C879   O909    1.220   .     D
C879   O910    1.394   .     S
C880   O912    1.396   .     S
C880   O911    1.219   .     D
C880   C886    1.478   .     S
C881   O921    1.302   .     A
C881   O918    1.299   .     A
C882   O914    1.394   .     S
C882   O913    1.223   .     D
C882   C887    1.474   .     S
C883   O919    1.298   .     A
C883   O920    1.292   .     A
C884   N906    1.375   .     A
C885   N905    1.371   .     A
C885   C1084   1.429   .     S
C886   N906    1.378   .     A
C887   N905    1.371   .     A
C887   C1082   1.429   .     S
C888   H904    1.082   .     S
H893   O908    1.012   .     S
H894   O910    1.014   .     S
H895   O912    1.014   .     S
H896   O914    1.014   .     S
N905   Zn923   2.034   .     S
N906   Zn924   2.034   .     S
O907   Zn923   2.002   .     S
O915   Zn924   2.002   .     S
O916   Zn923   2.003   .     S
O917   Zn924   2.003   .     S
O918   Zn923   1.982   .     S
O919   Zn924   1.982   .     S
O920   Zn923   1.976   .     S
O921   Zn924   1.976   .     S
C925   O973    1.294   .     A
C925   O983    1.293   .     A
C925   C943    1.424   .     S
C926   C942    1.396   .     A
C926   H956    1.081   .     S
C926   C796    1.368   1_655 S
C927   C942    1.398   .     A
C927   H957    1.083   .     S
C927   C822    1.370   1_655 S
C928   H958    1.081   .     S
C928   C943    1.397   .     A
C929   C933    1.382   .     A
C929   C940    1.395   .     A
C929   H955    1.084   .     S
C930   C934    1.384   .     A
C930   C941    1.397   .     A
C930   H963    1.083   .     S
C931   H964    1.084   .     S
C931   C935    1.382   .     A
C931   C941    1.401   .     A
C932   C937    1.384   .     A
C932   H965    1.084   .     S
C932   C940    1.397   .     A
C933   C938    1.403   .     A
C933   H966    1.079   .     S
C934   H967    1.082   .     S
C934   C939    1.397   .     A
C935   H968    1.084   .     S
C935   C939    1.394   .     A
C936   O982    1.294   .     A
C936   O981    1.293   .     A
C936   C942    1.423   .     S
C937   C938    1.401   .     A
C937   H969    1.078   .     S
C938   C947    1.454   .     S
C939   C949    1.430   .     S
C941   C346    1.442   1_556 S
C943   C954    1.398   .     A
C944   O988    1.220   .     D
C944   O974    1.398   .     S
C944   C950    1.473   .     S
C945   C951    1.474   .     S
C945   O975    1.220   .     D
C945   O976    1.394   .     S
C946   O978    1.396   .     S
C946   O977    1.219   .     D
C946   C952    1.478   .     S
C947   O987    1.302   .     A
C947   O984    1.299   .     A
C948   O980    1.394   .     S
C948   O979    1.223   .     D
C948   C953    1.474   .     S
C949   O985    1.298   .     A
C949   O986    1.292   .     A
C950   N972    1.375   .     A
C951   N971    1.371   .     A
C951   C1150   1.429   .     S
C952   N972    1.378   .     A
C953   N971    1.371   .     A
C953   C1148   1.429   .     S
C954   H970    1.082   .     S
H959   O974    1.012   .     S
H960   O976    1.014   .     S
H961   O978    1.014   .     S
H962   O980    1.014   .     S
N971   Zn989   2.034   .     S
N972   Zn990   2.034   .     S
O973   Zn989   2.002   .     S
O981   Zn990   2.002   .     S
O982   Zn989   2.003   .     S
O983   Zn990   2.003   .     S
O984   Zn989   1.982   .     S
O985   Zn990   1.982   .     S
O986   Zn989   1.976   .     S
O987   Zn990   1.976   .     S
C991   O1039   1.294   .     A
C991   O1049   1.293   .     A
C991   C1009   1.424   .     S
C992   C1008   1.396   .     A
C992   H1022   1.081   .     S
C992   C1060   1.368   .     S
C993   C1008   1.398   .     A
C993   H1023   1.083   .     S
C993   C1086   1.370   .     S
C994   H1024   1.081   .     S
C994   C1009   1.397   .     A
C994   C1124   1.368   1_455 S
C995   C999    1.382   .     A
C995   C1006   1.395   .     A
C995   H1021   1.084   .     S
C996   C1000   1.384   .     A
C996   C1007   1.397   .     A
C996   H1029   1.083   .     S
C997   H1030   1.084   .     S
C997   C1001   1.382   .     A
C997   C1007   1.401   .     A
C998   C1003   1.384   .     A
C998   H1031   1.084   .     S
C998   C1006   1.397   .     A
C999   C1004   1.403   .     A
C999   H1032   1.079   .     S
C1000  H1033   1.082   .     S
C1000  C1005   1.397   .     A
C1001  H1034   1.084   .     S
C1001  C1005   1.394   .     A
C1002  O1048   1.294   .     A
C1002  O1047   1.293   .     A
C1002  C1008   1.423   .     S
C1003  C1004   1.401   .     A
C1003  H1035   1.078   .     S
C1004  C1013   1.454   .     S
C1005  C1015   1.430   .     S
C1007  C412    1.442   1_556 S
C1009  C1020   1.398   .     A
C1010  O1054   1.220   .     D
C1010  O1040   1.398   .     S
C1010  C1016   1.473   .     S
C1011  C1017   1.474   .     S
C1011  O1041   1.220   .     D
C1011  O1042   1.394   .     S
C1012  O1044   1.396   .     S
C1012  O1043   1.219   .     D
C1012  C1018   1.478   .     S
C1013  O1053   1.302   .     A
C1013  O1050   1.299   .     A
C1014  O1046   1.394   .     S
C1014  O1045   1.223   .     D
C1014  C1019   1.474   .     S
C1015  O1051   1.298   .     A
C1015  O1052   1.292   .     A
C1016  N1038   1.375   .     A
C1017  N1037   1.371   .     A
C1017  C622    1.429   1_565 S
C1018  N1038   1.378   .     A
C1019  N1037   1.371   .     A
C1019  C620    1.429   1_565 S
C1020  H1036   1.082   .     S
C1020  C1125   1.370   1_455 S
H1025  O1040   1.012   .     S
H1026  O1042   1.014   .     S
H1027  O1044   1.014   .     S
H1028  O1046   1.014   .     S
N1037  Zn1055  2.034   .     S
N1038  Zn1056  2.034   .     S
O1039  Zn1055  2.002   .     S
O1047  Zn1056  2.002   .     S
O1048  Zn1055  2.003   .     S
O1049  Zn1056  2.003   .     S
O1050  Zn1055  1.982   .     S
O1051  Zn1056  1.982   .     S
O1052  Zn1055  1.976   .     S
O1053  Zn1056  1.976   .     S
C1057  O1105   1.294   .     A
C1057  O1115   1.293   .     A
C1057  C1075   1.424   .     S
C1058  C1074   1.396   .     A
C1058  H1088   1.081   .     S
C1058  C1126   1.368   .     S
C1059  C1074   1.398   .     A
C1059  H1089   1.083   .     S
C1059  C1152   1.370   .     S
C1060  H1090   1.081   .     S
C1060  C1075   1.397   .     A
C1061  C1065   1.382   .     A
C1061  C1072   1.395   .     A
C1061  H1087   1.084   .     S
C1062  C1066   1.384   .     A
C1062  C1073   1.397   .     A
C1062  H1095   1.083   .     S
C1063  H1096   1.084   .     S
C1063  C1067   1.382   .     A
C1063  C1073   1.401   .     A
C1064  C1069   1.384   .     A
C1064  H1097   1.084   .     S
C1064  C1072   1.397   .     A
C1065  C1070   1.403   .     A
C1065  H1098   1.079   .     S
C1066  H1099   1.082   .     S
C1066  C1071   1.397   .     A
C1067  H1100   1.084   .     S
C1067  C1071   1.394   .     A
C1068  O1114   1.294   .     A
C1068  O1113   1.293   .     A
C1068  C1074   1.423   .     S
C1069  C1070   1.401   .     A
C1069  H1101   1.078   .     S
C1070  C1079   1.454   .     S
C1071  C1081   1.430   .     S
C1073  C478    1.442   1_556 S
C1075  C1086   1.398   .     A
C1076  O1120   1.220   .     D
C1076  O1106   1.398   .     S
C1076  C1082   1.473   .     S
C1077  C1083   1.474   .     S
C1077  O1107   1.220   .     D
C1077  O1108   1.394   .     S
C1078  O1110   1.396   .     S
C1078  O1109   1.219   .     D
C1078  C1084   1.478   .     S
C1079  O1119   1.302   .     A
C1079  O1116   1.299   .     A
C1080  O1112   1.394   .     S
C1080  O1111   1.223   .     D
C1080  C1085   1.474   .     S
C1081  O1117   1.298   .     A
C1081  O1118   1.292   .     A
C1082  N1104   1.375   .     A
C1083  N1103   1.371   .     A
C1083  C688    1.429   1_565 S
C1084  N1104   1.378   .     A
C1085  N1103   1.371   .     A
C1085  C686    1.429   1_565 S
C1086  H1102   1.082   .     S
H1091  O1106   1.012   .     S
H1092  O1108   1.014   .     S
H1093  O1110   1.014   .     S
H1094  O1112   1.014   .     S
N1103  Zn1121  2.034   .     S
N1104  Zn1122  2.034   .     S
O1105  Zn1121  2.002   .     S
O1113  Zn1122  2.002   .     S
O1114  Zn1121  2.003   .     S
O1115  Zn1122  2.003   .     S
O1116  Zn1121  1.982   .     S
O1117  Zn1122  1.982   .     S
O1118  Zn1121  1.976   .     S
O1119  Zn1122  1.976   .     S
C1123  O1171   1.294   .     A
C1123  O1181   1.293   .     A
C1123  C1141   1.424   .     S
C1124  C1140   1.396   .     A
C1124  H1154   1.081   .     S
C1124  C994    1.368   1_655 S
C1125  C1140   1.398   .     A
C1125  H1155   1.083   .     S
C1125  C1020   1.370   1_655 S
C1126  H1156   1.081   .     S
C1126  C1141   1.397   .     A
C1127  C1131   1.382   .     A
C1127  C1138   1.395   .     A
C1127  H1153   1.084   .     S
C1128  C1132   1.384   .     A
C1128  C1139   1.397   .     A
C1128  H1161   1.083   .     S
C1129  H1162   1.084   .     S
C1129  C1133   1.382   .     A
C1129  C1139   1.401   .     A
C1130  C1135   1.384   .     A
C1130  H1163   1.084   .     S
C1130  C1138   1.397   .     A
C1131  C1136   1.403   .     A
C1131  H1164   1.079   .     S
C1132  H1165   1.082   .     S
C1132  C1137   1.397   .     A
C1133  H1166   1.084   .     S
C1133  C1137   1.394   .     A
C1134  O1180   1.294   .     A
C1134  O1179   1.293   .     A
C1134  C1140   1.423   .     S
C1135  C1136   1.401   .     A
C1135  H1167   1.078   .     S
C1136  C1145   1.454   .     S
C1137  C1147   1.430   .     S
C1139  C544    1.442   1_556 S
C1141  C1152   1.398   .     A
C1142  O1186   1.220   .     D
C1142  O1172   1.398   .     S
C1142  C1148   1.473   .     S
C1143  C1149   1.474   .     S
C1143  O1173   1.220   .     D
C1143  O1174   1.394   .     S
C1144  O1176   1.396   .     S
C1144  O1175   1.219   .     D
C1144  C1150   1.478   .     S
C1145  O1185   1.302   .     A
C1145  O1182   1.299   .     A
C1146  O1178   1.394   .     S
C1146  O1177   1.223   .     D
C1146  C1151   1.474   .     S
C1147  O1183   1.298   .     A
C1147  O1184   1.292   .     A
C1148  N1170   1.375   .     A
C1149  N1169   1.371   .     A
C1149  C754    1.429   1_565 S
C1150  N1170   1.378   .     A
C1151  N1169   1.371   .     A
C1151  C752    1.429   1_565 S
C1152  H1168   1.082   .     S
H1157  O1172   1.012   .     S
H1158  O1174   1.014   .     S
H1159  O1176   1.014   .     S
H1160  O1178   1.014   .     S
N1169  Zn1187  2.034   .     S
N1170  Zn1188  2.034   .     S
O1171  Zn1187  2.002   .     S
O1179  Zn1188  2.002   .     S
O1180  Zn1187  2.003   .     S
O1181  Zn1188  2.003   .     S
O1182  Zn1187  1.982   .     S
O1183  Zn1188  1.982   .     S
O1184  Zn1187  1.976   .     S
O1185  Zn1188  1.976   .     S
