data_str_m3_o10_o18_pcu_sym.7
_audit_creation_date              2020-01-03
_audit_creation_method            'Materials Studio'
_symmetry_space_group_name_H-M    'P1'
_symmetry_Int_Tables_number       1
_symmetry_cell_setting            triclinic
loop_
_symmetry_equiv_pos_as_xyz
  x,y,z
_cell_length_a                    23.5130
_cell_length_b                    25.6861
_cell_length_c                    27.3566
_cell_angle_alpha                 93.4793
_cell_angle_beta                  92.2822
_cell_angle_gamma                 94.3796
loop_
_atom_site_label
_atom_site_type_symbol
_atom_site_fract_x
_atom_site_fract_y
_atom_site_fract_z
_atom_site_U_iso_or_equiv
_atom_site_adp_type
_atom_site_occupancy
C1     C     0.01511   0.26492   0.24878   0.00000  Uiso   1.00
C2     C     0.31254   0.16140   0.15873   0.00000  Uiso   1.00
C3     C     0.03072   0.17932   0.39423   0.00000  Uiso   1.00
C4     C     0.30254   0.15363   0.10581   0.00000  Uiso   1.00
C5     C     0.02016   0.22495   0.47279   0.00000  Uiso   1.00
C6     C     0.31278   0.10730   0.02752   0.00000  Uiso   1.00
C7     C     0.00067   0.21330   0.42432   0.00000  Uiso   1.00
C8     C     0.33239   0.11928   0.07592   0.00000  Uiso   1.00
C9     C     0.07755   0.15640   0.41350   0.00000  Uiso   1.00
C10    C     0.25572   0.17647   0.08644   0.00000  Uiso   1.00
C11    C     0.10150   0.17245   0.45993   0.00000  Uiso   1.00
C12    C     0.31822   0.06841   0.25122   0.00000  Uiso   1.00
C13    C     0.23153   0.15993   0.04020   0.00000  Uiso   1.00
C14    C     0.07097   0.20608   0.49031   0.00000  Uiso   1.00
C15    C     0.26197   0.12611   0.00995   0.00000  Uiso   1.00
C16    C     0.15559   0.15734   0.47619   0.00000  Uiso   1.00
C17    C     0.17735   0.17485   0.02400   0.00000  Uiso   1.00
C18    C     0.14348   0.20537   0.05453   0.00000  Uiso   1.00
C19    C     0.18937   0.12659   0.44577   0.00000  Uiso   1.00
C20    C     0.09170   0.22113   0.03761   0.00000  Uiso   1.00
C21    C     0.24112   0.11081   0.46272   0.00000  Uiso   1.00
C22    C     0.02294   0.31953   0.24801   0.00000  Uiso   1.00
C23    C     0.31039   0.01381   0.25198   0.00000  Uiso   1.00
C24    C     0.02079   0.17188   0.34128   0.00000  Uiso   1.00
H25    H     0.06780   0.24546   0.06178   0.00000  Uiso   1.00
H26    H     0.26723   0.32987   0.25581   0.00000  Uiso   1.00
H27    H     0.16244   0.12457   0.21364   0.00000  Uiso   1.00
H28    H     0.17089   0.20876   0.28636   0.00000  Uiso   1.00
H29    H     0.26493   0.08629   0.43866   0.00000  Uiso   1.00
H30    H     0.23764   0.20568   0.10959   0.00000  Uiso   1.00
H31    H     0.09583   0.12755   0.39011   0.00000  Uiso   1.00
H32    H     0.33040   0.25084   0.49611   0.00000  Uiso   1.00
H33    H     0.00243   0.08119   0.00433   0.00000  Uiso   1.00
H34    H     0.15511   0.21771   0.09210   0.00000  Uiso   1.00
H35    H     0.17765   0.11396   0.40829   0.00000  Uiso   1.00
H36    H     0.06610   0.00346   0.24417   0.00000  Uiso   1.00
I37    I     0.07034   0.08010   0.10051   0.00000  Uiso   1.00
I38    I     0.26256   0.25241   0.39999   0.00000  Uiso   1.00
N39    N     0.14695   0.15216   0.23739   0.00000  Uiso   1.00
N40    N     0.18638   0.18117   0.26260   0.00000  Uiso   1.00
O41    O     0.29719   0.24631   0.25310   0.00000  Uiso   1.00
O42    O     0.03614   0.08702   0.24690   0.00000  Uiso   1.00
O43    O     0.05822   0.23702   0.24501   0.00000  Uiso   1.00
O44    O     0.27512   0.09632   0.25499   0.00000  Uiso   1.00
O45    O     0.30328   0.17397   0.32247   0.00000  Uiso   1.00
O46    O     0.03005   0.15937   0.17753   0.00000  Uiso   1.00
O47    O     0.06431   0.16467   0.31439   0.00000  Uiso   1.00
O48    O     0.26902   0.16866   0.18561   0.00000  Uiso   1.00
Zn49   Zn    0.27033   0.17287   0.25540   0.00000  Uiso   1.00
Zn50   Zn    0.06300   0.16046   0.24460   0.00000  Uiso   1.00
C51    C     0.34844   0.26492   0.24878   0.00000  Uiso   1.00
C52    C     0.64587   0.16140   0.15873   0.00000  Uiso   1.00
C53    C     0.36406   0.17932   0.39423   0.00000  Uiso   1.00
C54    C     0.63587   0.15363   0.10581   0.00000  Uiso   1.00
C55    C     0.35349   0.22495   0.47279   0.00000  Uiso   1.00
C56    C     0.64612   0.10730   0.02752   0.00000  Uiso   1.00
C57    C     0.33400   0.21330   0.42432   0.00000  Uiso   1.00
C58    C     0.66572   0.11928   0.07592   0.00000  Uiso   1.00
C59    C     0.41088   0.15640   0.41350   0.00000  Uiso   1.00
C60    C     0.58906   0.17647   0.08644   0.00000  Uiso   1.00
C61    C     0.43483   0.17245   0.45993   0.00000  Uiso   1.00
C62    C     0.65156   0.06841   0.25122   0.00000  Uiso   1.00
C63    C     0.56487   0.15993   0.04020   0.00000  Uiso   1.00
C64    C     0.40430   0.20608   0.49031   0.00000  Uiso   1.00
C65    C     0.59530   0.12611   0.00995   0.00000  Uiso   1.00
C66    C     0.48893   0.15734   0.47619   0.00000  Uiso   1.00
C67    C     0.51069   0.17485   0.02400   0.00000  Uiso   1.00
C68    C     0.47681   0.20537   0.05453   0.00000  Uiso   1.00
C69    C     0.52270   0.12659   0.44577   0.00000  Uiso   1.00
C70    C     0.42503   0.22113   0.03761   0.00000  Uiso   1.00
C71    C     0.57446   0.11081   0.46272   0.00000  Uiso   1.00
C72    C     0.35627   0.31953   0.24801   0.00000  Uiso   1.00
C73    C     0.64373   0.01381   0.25198   0.00000  Uiso   1.00
C74    C     0.35412   0.17188   0.34128   0.00000  Uiso   1.00
H75    H     0.40113   0.24546   0.06178   0.00000  Uiso   1.00
H76    H     0.60056   0.32987   0.25581   0.00000  Uiso   1.00
H77    H     0.49577   0.12457   0.21364   0.00000  Uiso   1.00
H78    H     0.50423   0.20876   0.28636   0.00000  Uiso   1.00
H79    H     0.59827   0.08629   0.43866   0.00000  Uiso   1.00
H80    H     0.57098   0.20568   0.10959   0.00000  Uiso   1.00
H81    H     0.42916   0.12755   0.39011   0.00000  Uiso   1.00
H82    H     0.66374   0.25084   0.49611   0.00000  Uiso   1.00
H83    H     0.33576   0.08119   0.00433   0.00000  Uiso   1.00
H84    H     0.48844   0.21771   0.09210   0.00000  Uiso   1.00
H85    H     0.51099   0.11396   0.40829   0.00000  Uiso   1.00
H86    H     0.39943   0.00346   0.24417   0.00000  Uiso   1.00
I87    I     0.40367   0.08010   0.10051   0.00000  Uiso   1.00
I88    I     0.59589   0.25241   0.39999   0.00000  Uiso   1.00
N89    N     0.48029   0.15216   0.23739   0.00000  Uiso   1.00
N90    N     0.51971   0.18117   0.26260   0.00000  Uiso   1.00
O91    O     0.63052   0.24631   0.25310   0.00000  Uiso   1.00
O92    O     0.36948   0.08702   0.24690   0.00000  Uiso   1.00
O93    O     0.39155   0.23702   0.24501   0.00000  Uiso   1.00
O94    O     0.60845   0.09632   0.25499   0.00000  Uiso   1.00
O95    O     0.63662   0.17397   0.32247   0.00000  Uiso   1.00
O96    O     0.36338   0.15937   0.17753   0.00000  Uiso   1.00
O97    O     0.39764   0.16467   0.31439   0.00000  Uiso   1.00
O98    O     0.60236   0.16866   0.18561   0.00000  Uiso   1.00
Zn99   Zn    0.60366   0.17287   0.25540   0.00000  Uiso   1.00
Zn100  Zn    0.39634   0.16046   0.24460   0.00000  Uiso   1.00
C101   C     0.68177   0.26492   0.24878   0.00000  Uiso   1.00
C102   C     0.97920   0.16140   0.15873   0.00000  Uiso   1.00
C103   C     0.69739   0.17932   0.39423   0.00000  Uiso   1.00
C104   C     0.96920   0.15363   0.10581   0.00000  Uiso   1.00
C105   C     0.68683   0.22495   0.47279   0.00000  Uiso   1.00
C106   C     0.97945   0.10730   0.02752   0.00000  Uiso   1.00
C107   C     0.66734   0.21330   0.42432   0.00000  Uiso   1.00
C108   C     0.99906   0.11928   0.07592   0.00000  Uiso   1.00
C109   C     0.74421   0.15640   0.41350   0.00000  Uiso   1.00
C110   C     0.92239   0.17647   0.08644   0.00000  Uiso   1.00
C111   C     0.76817   0.17245   0.45993   0.00000  Uiso   1.00
C112   C     0.98489   0.06841   0.25122   0.00000  Uiso   1.00
C113   C     0.89820   0.15993   0.04020   0.00000  Uiso   1.00
C114   C     0.73763   0.20608   0.49031   0.00000  Uiso   1.00
C115   C     0.92863   0.12611   0.00995   0.00000  Uiso   1.00
C116   C     0.82226   0.15734   0.47619   0.00000  Uiso   1.00
C117   C     0.84402   0.17485   0.02400   0.00000  Uiso   1.00
C118   C     0.81015   0.20537   0.05453   0.00000  Uiso   1.00
C119   C     0.85603   0.12659   0.44577   0.00000  Uiso   1.00
C120   C     0.75836   0.22113   0.03761   0.00000  Uiso   1.00
C121   C     0.90779   0.11081   0.46272   0.00000  Uiso   1.00
C122   C     0.68960   0.31953   0.24801   0.00000  Uiso   1.00
C123   C     0.97706   0.01381   0.25198   0.00000  Uiso   1.00
C124   C     0.68745   0.17188   0.34128   0.00000  Uiso   1.00
H125   H     0.73446   0.24546   0.06178   0.00000  Uiso   1.00
H126   H     0.93390   0.32987   0.25581   0.00000  Uiso   1.00
H127   H     0.82911   0.12457   0.21364   0.00000  Uiso   1.00
H128   H     0.83756   0.20876   0.28636   0.00000  Uiso   1.00
H129   H     0.93160   0.08629   0.43866   0.00000  Uiso   1.00
H130   H     0.90431   0.20568   0.10959   0.00000  Uiso   1.00
H131   H     0.76249   0.12755   0.39011   0.00000  Uiso   1.00
H132   H     0.99707   0.25084   0.49611   0.00000  Uiso   1.00
H133   H     0.66909   0.08119   0.00433   0.00000  Uiso   1.00
H134   H     0.82177   0.21771   0.09210   0.00000  Uiso   1.00
H135   H     0.84432   0.11396   0.40829   0.00000  Uiso   1.00
H136   H     0.73277   0.00346   0.24417   0.00000  Uiso   1.00
I137   I     0.73701   0.08010   0.10051   0.00000  Uiso   1.00
I138   I     0.92922   0.25241   0.39999   0.00000  Uiso   1.00
N139   N     0.81362   0.15216   0.23739   0.00000  Uiso   1.00
N140   N     0.85305   0.18117   0.26260   0.00000  Uiso   1.00
O141   O     0.96386   0.24631   0.25310   0.00000  Uiso   1.00
O142   O     0.70281   0.08702   0.24690   0.00000  Uiso   1.00
O143   O     0.72488   0.23702   0.24501   0.00000  Uiso   1.00
O144   O     0.94178   0.09632   0.25499   0.00000  Uiso   1.00
O145   O     0.96995   0.17397   0.32247   0.00000  Uiso   1.00
O146   O     0.69672   0.15937   0.17753   0.00000  Uiso   1.00
O147   O     0.73098   0.16467   0.31439   0.00000  Uiso   1.00
O148   O     0.93569   0.16866   0.18561   0.00000  Uiso   1.00
Zn149  Zn    0.93700   0.17287   0.25540   0.00000  Uiso   1.00
Zn150  Zn    0.72967   0.16046   0.24460   0.00000  Uiso   1.00
C151   C     0.01511   0.59826   0.24878   0.00000  Uiso   1.00
C152   C     0.31254   0.49474   0.15873   0.00000  Uiso   1.00
C153   C     0.03072   0.51266   0.39423   0.00000  Uiso   1.00
C154   C     0.30254   0.48696   0.10581   0.00000  Uiso   1.00
C155   C     0.02016   0.55828   0.47279   0.00000  Uiso   1.00
C156   C     0.31278   0.44063   0.02752   0.00000  Uiso   1.00
C157   C     0.00067   0.54663   0.42432   0.00000  Uiso   1.00
C158   C     0.33239   0.45262   0.07592   0.00000  Uiso   1.00
C159   C     0.07755   0.48973   0.41350   0.00000  Uiso   1.00
C160   C     0.25572   0.50981   0.08644   0.00000  Uiso   1.00
C161   C     0.10150   0.50579   0.45993   0.00000  Uiso   1.00
C162   C     0.31822   0.40174   0.25122   0.00000  Uiso   1.00
C163   C     0.23153   0.49327   0.04020   0.00000  Uiso   1.00
C164   C     0.07097   0.53941   0.49031   0.00000  Uiso   1.00
C165   C     0.26197   0.45944   0.00995   0.00000  Uiso   1.00
C166   C     0.15559   0.49067   0.47619   0.00000  Uiso   1.00
C167   C     0.17735   0.50819   0.02400   0.00000  Uiso   1.00
C168   C     0.14348   0.53870   0.05453   0.00000  Uiso   1.00
C169   C     0.18937   0.45992   0.44577   0.00000  Uiso   1.00
C170   C     0.09170   0.55446   0.03761   0.00000  Uiso   1.00
C171   C     0.24112   0.44414   0.46272   0.00000  Uiso   1.00
C172   C     0.02294   0.65286   0.24801   0.00000  Uiso   1.00
C173   C     0.31039   0.34714   0.25198   0.00000  Uiso   1.00
C174   C     0.02079   0.50521   0.34128   0.00000  Uiso   1.00
H175   H     0.06780   0.57879   0.06178   0.00000  Uiso   1.00
H176   H     0.26723   0.66320   0.25581   0.00000  Uiso   1.00
H177   H     0.16244   0.45791   0.21364   0.00000  Uiso   1.00
H178   H     0.17089   0.54209   0.28636   0.00000  Uiso   1.00
H179   H     0.26493   0.41962   0.43866   0.00000  Uiso   1.00
H180   H     0.23764   0.53901   0.10959   0.00000  Uiso   1.00
H181   H     0.09583   0.46088   0.39011   0.00000  Uiso   1.00
H182   H     0.33040   0.58417   0.49611   0.00000  Uiso   1.00
H183   H     0.00243   0.41452   0.00433   0.00000  Uiso   1.00
H184   H     0.15511   0.55105   0.09210   0.00000  Uiso   1.00
H185   H     0.17765   0.44729   0.40829   0.00000  Uiso   1.00
H186   H     0.06610   0.33680   0.24417   0.00000  Uiso   1.00
I187   I     0.07034   0.41344   0.10051   0.00000  Uiso   1.00
I188   I     0.26256   0.58574   0.39999   0.00000  Uiso   1.00
N189   N     0.14695   0.48550   0.23739   0.00000  Uiso   1.00
N190   N     0.18638   0.51450   0.26260   0.00000  Uiso   1.00
O191   O     0.29719   0.57964   0.25310   0.00000  Uiso   1.00
O192   O     0.03614   0.42036   0.24690   0.00000  Uiso   1.00
O193   O     0.05822   0.57035   0.24501   0.00000  Uiso   1.00
O194   O     0.27512   0.42965   0.25499   0.00000  Uiso   1.00
O195   O     0.30328   0.50730   0.32247   0.00000  Uiso   1.00
O196   O     0.03005   0.49270   0.17753   0.00000  Uiso   1.00
O197   O     0.06431   0.49801   0.31439   0.00000  Uiso   1.00
O198   O     0.26902   0.50199   0.18561   0.00000  Uiso   1.00
Zn199  Zn    0.27033   0.50621   0.25540   0.00000  Uiso   1.00
Zn200  Zn    0.06300   0.49379   0.24460   0.00000  Uiso   1.00
C201   C     0.34844   0.59826   0.24878   0.00000  Uiso   1.00
C202   C     0.64587   0.49474   0.15873   0.00000  Uiso   1.00
C203   C     0.36406   0.51266   0.39423   0.00000  Uiso   1.00
C204   C     0.63587   0.48696   0.10581   0.00000  Uiso   1.00
C205   C     0.35349   0.55828   0.47279   0.00000  Uiso   1.00
C206   C     0.64612   0.44063   0.02752   0.00000  Uiso   1.00
C207   C     0.33400   0.54663   0.42432   0.00000  Uiso   1.00
C208   C     0.66572   0.45262   0.07592   0.00000  Uiso   1.00
C209   C     0.41088   0.48973   0.41350   0.00000  Uiso   1.00
C210   C     0.58906   0.50981   0.08644   0.00000  Uiso   1.00
C211   C     0.43483   0.50579   0.45993   0.00000  Uiso   1.00
C212   C     0.65156   0.40174   0.25122   0.00000  Uiso   1.00
C213   C     0.56487   0.49327   0.04020   0.00000  Uiso   1.00
C214   C     0.40430   0.53941   0.49031   0.00000  Uiso   1.00
C215   C     0.59530   0.45944   0.00995   0.00000  Uiso   1.00
C216   C     0.48893   0.49067   0.47619   0.00000  Uiso   1.00
C217   C     0.51069   0.50819   0.02400   0.00000  Uiso   1.00
C218   C     0.47681   0.53870   0.05453   0.00000  Uiso   1.00
C219   C     0.52270   0.45992   0.44577   0.00000  Uiso   1.00
C220   C     0.42503   0.55446   0.03761   0.00000  Uiso   1.00
C221   C     0.57446   0.44414   0.46272   0.00000  Uiso   1.00
C222   C     0.35627   0.65286   0.24801   0.00000  Uiso   1.00
C223   C     0.64373   0.34714   0.25198   0.00000  Uiso   1.00
C224   C     0.35412   0.50521   0.34128   0.00000  Uiso   1.00
H225   H     0.40113   0.57879   0.06178   0.00000  Uiso   1.00
H226   H     0.60056   0.66320   0.25581   0.00000  Uiso   1.00
H227   H     0.49577   0.45791   0.21364   0.00000  Uiso   1.00
H228   H     0.50423   0.54209   0.28636   0.00000  Uiso   1.00
H229   H     0.59827   0.41962   0.43866   0.00000  Uiso   1.00
H230   H     0.57098   0.53901   0.10959   0.00000  Uiso   1.00
H231   H     0.42916   0.46088   0.39011   0.00000  Uiso   1.00
H232   H     0.66374   0.58417   0.49611   0.00000  Uiso   1.00
H233   H     0.33576   0.41452   0.00433   0.00000  Uiso   1.00
H234   H     0.48844   0.55105   0.09210   0.00000  Uiso   1.00
H235   H     0.51099   0.44729   0.40829   0.00000  Uiso   1.00
H236   H     0.39943   0.33680   0.24417   0.00000  Uiso   1.00
I237   I     0.40367   0.41344   0.10051   0.00000  Uiso   1.00
I238   I     0.59589   0.58574   0.39999   0.00000  Uiso   1.00
N239   N     0.48029   0.48550   0.23739   0.00000  Uiso   1.00
N240   N     0.51971   0.51450   0.26260   0.00000  Uiso   1.00
O241   O     0.63052   0.57964   0.25310   0.00000  Uiso   1.00
O242   O     0.36948   0.42036   0.24690   0.00000  Uiso   1.00
O243   O     0.39155   0.57035   0.24501   0.00000  Uiso   1.00
O244   O     0.60845   0.42965   0.25499   0.00000  Uiso   1.00
O245   O     0.63662   0.50730   0.32247   0.00000  Uiso   1.00
O246   O     0.36338   0.49270   0.17753   0.00000  Uiso   1.00
O247   O     0.39764   0.49801   0.31439   0.00000  Uiso   1.00
O248   O     0.60236   0.50199   0.18561   0.00000  Uiso   1.00
Zn249  Zn    0.60366   0.50621   0.25540   0.00000  Uiso   1.00
Zn250  Zn    0.39634   0.49379   0.24460   0.00000  Uiso   1.00
C251   C     0.68177   0.59826   0.24878   0.00000  Uiso   1.00
C252   C     0.97920   0.49474   0.15873   0.00000  Uiso   1.00
C253   C     0.69739   0.51266   0.39423   0.00000  Uiso   1.00
C254   C     0.96920   0.48696   0.10581   0.00000  Uiso   1.00
C255   C     0.68683   0.55828   0.47279   0.00000  Uiso   1.00
C256   C     0.97945   0.44063   0.02752   0.00000  Uiso   1.00
C257   C     0.66734   0.54663   0.42432   0.00000  Uiso   1.00
C258   C     0.99906   0.45262   0.07592   0.00000  Uiso   1.00
C259   C     0.74421   0.48973   0.41350   0.00000  Uiso   1.00
C260   C     0.92239   0.50981   0.08644   0.00000  Uiso   1.00
C261   C     0.76817   0.50579   0.45993   0.00000  Uiso   1.00
C262   C     0.98489   0.40174   0.25122   0.00000  Uiso   1.00
C263   C     0.89820   0.49327   0.04020   0.00000  Uiso   1.00
C264   C     0.73763   0.53941   0.49031   0.00000  Uiso   1.00
C265   C     0.92863   0.45944   0.00995   0.00000  Uiso   1.00
C266   C     0.82226   0.49067   0.47619   0.00000  Uiso   1.00
C267   C     0.84402   0.50819   0.02400   0.00000  Uiso   1.00
C268   C     0.81015   0.53870   0.05453   0.00000  Uiso   1.00
C269   C     0.85603   0.45992   0.44577   0.00000  Uiso   1.00
C270   C     0.75836   0.55446   0.03761   0.00000  Uiso   1.00
C271   C     0.90779   0.44414   0.46272   0.00000  Uiso   1.00
C272   C     0.68960   0.65286   0.24801   0.00000  Uiso   1.00
C273   C     0.97706   0.34714   0.25198   0.00000  Uiso   1.00
C274   C     0.68745   0.50521   0.34128   0.00000  Uiso   1.00
H275   H     0.73446   0.57879   0.06178   0.00000  Uiso   1.00
H276   H     0.93390   0.66320   0.25581   0.00000  Uiso   1.00
H277   H     0.82911   0.45791   0.21364   0.00000  Uiso   1.00
H278   H     0.83756   0.54209   0.28636   0.00000  Uiso   1.00
H279   H     0.93160   0.41962   0.43866   0.00000  Uiso   1.00
H280   H     0.90431   0.53901   0.10959   0.00000  Uiso   1.00
H281   H     0.76249   0.46088   0.39011   0.00000  Uiso   1.00
H282   H     0.99707   0.58417   0.49611   0.00000  Uiso   1.00
H283   H     0.66909   0.41452   0.00433   0.00000  Uiso   1.00
H284   H     0.82177   0.55105   0.09210   0.00000  Uiso   1.00
H285   H     0.84432   0.44729   0.40829   0.00000  Uiso   1.00
H286   H     0.73277   0.33680   0.24417   0.00000  Uiso   1.00
I287   I     0.73701   0.41344   0.10051   0.00000  Uiso   1.00
I288   I     0.92922   0.58574   0.39999   0.00000  Uiso   1.00
N289   N     0.81362   0.48550   0.23739   0.00000  Uiso   1.00
N290   N     0.85305   0.51450   0.26260   0.00000  Uiso   1.00
O291   O     0.96386   0.57964   0.25310   0.00000  Uiso   1.00
O292   O     0.70281   0.42036   0.24690   0.00000  Uiso   1.00
O293   O     0.72488   0.57035   0.24501   0.00000  Uiso   1.00
O294   O     0.94178   0.42965   0.25499   0.00000  Uiso   1.00
O295   O     0.96995   0.50730   0.32247   0.00000  Uiso   1.00
O296   O     0.69672   0.49270   0.17753   0.00000  Uiso   1.00
O297   O     0.73098   0.49801   0.31439   0.00000  Uiso   1.00
O298   O     0.93569   0.50199   0.18561   0.00000  Uiso   1.00
Zn299  Zn    0.93700   0.50621   0.25540   0.00000  Uiso   1.00
Zn300  Zn    0.72967   0.49379   0.24460   0.00000  Uiso   1.00
C301   C     0.01511   0.93159   0.24878   0.00000  Uiso   1.00
C302   C     0.31254   0.82807   0.15873   0.00000  Uiso   1.00
C303   C     0.03072   0.84599   0.39423   0.00000  Uiso   1.00
C304   C     0.30254   0.82029   0.10581   0.00000  Uiso   1.00
C305   C     0.02016   0.89161   0.47279   0.00000  Uiso   1.00
C306   C     0.31278   0.77397   0.02752   0.00000  Uiso   1.00
C307   C     0.00067   0.87996   0.42432   0.00000  Uiso   1.00
C308   C     0.33239   0.78595   0.07592   0.00000  Uiso   1.00
C309   C     0.07755   0.82306   0.41350   0.00000  Uiso   1.00
C310   C     0.25572   0.84314   0.08644   0.00000  Uiso   1.00
C311   C     0.10150   0.83912   0.45993   0.00000  Uiso   1.00
C312   C     0.31822   0.73507   0.25122   0.00000  Uiso   1.00
C313   C     0.23153   0.82660   0.04020   0.00000  Uiso   1.00
C314   C     0.07097   0.87275   0.49031   0.00000  Uiso   1.00
C315   C     0.26197   0.79277   0.00995   0.00000  Uiso   1.00
C316   C     0.15559   0.82401   0.47619   0.00000  Uiso   1.00
C317   C     0.17735   0.84152   0.02400   0.00000  Uiso   1.00
C318   C     0.14348   0.87204   0.05453   0.00000  Uiso   1.00
C319   C     0.18937   0.79326   0.44577   0.00000  Uiso   1.00
C320   C     0.09170   0.88780   0.03761   0.00000  Uiso   1.00
C321   C     0.24112   0.77747   0.46272   0.00000  Uiso   1.00
C322   C     0.02294   0.98619   0.24801   0.00000  Uiso   1.00
C323   C     0.31039   0.68047   0.25198   0.00000  Uiso   1.00
C324   C     0.02079   0.83854   0.34128   0.00000  Uiso   1.00
H325   H     0.06780   0.91213   0.06178   0.00000  Uiso   1.00
H326   H     0.26723   0.99654   0.25581   0.00000  Uiso   1.00
H327   H     0.16244   0.79124   0.21364   0.00000  Uiso   1.00
H328   H     0.17089   0.87542   0.28636   0.00000  Uiso   1.00
H329   H     0.26493   0.75296   0.43866   0.00000  Uiso   1.00
H330   H     0.23764   0.87234   0.10959   0.00000  Uiso   1.00
H331   H     0.09583   0.79421   0.39011   0.00000  Uiso   1.00
H332   H     0.33040   0.91750   0.49611   0.00000  Uiso   1.00
H333   H     0.00243   0.74785   0.00433   0.00000  Uiso   1.00
H334   H     0.15511   0.88438   0.09210   0.00000  Uiso   1.00
H335   H     0.17765   0.78063   0.40829   0.00000  Uiso   1.00
H336   H     0.06610   0.67013   0.24417   0.00000  Uiso   1.00
I337   I     0.07034   0.74677   0.10051   0.00000  Uiso   1.00
I338   I     0.26256   0.91907   0.39999   0.00000  Uiso   1.00
N339   N     0.14695   0.81883   0.23739   0.00000  Uiso   1.00
N340   N     0.18638   0.84784   0.26260   0.00000  Uiso   1.00
O341   O     0.29719   0.91298   0.25310   0.00000  Uiso   1.00
O342   O     0.03614   0.75369   0.24690   0.00000  Uiso   1.00
O343   O     0.05822   0.90368   0.24501   0.00000  Uiso   1.00
O344   O     0.27512   0.76298   0.25499   0.00000  Uiso   1.00
O345   O     0.30328   0.84063   0.32247   0.00000  Uiso   1.00
O346   O     0.03005   0.82603   0.17753   0.00000  Uiso   1.00
O347   O     0.06431   0.83134   0.31439   0.00000  Uiso   1.00
O348   O     0.26902   0.83533   0.18561   0.00000  Uiso   1.00
Zn349  Zn    0.27033   0.83954   0.25540   0.00000  Uiso   1.00
Zn350  Zn    0.06300   0.82713   0.24460   0.00000  Uiso   1.00
C351   C     0.34844   0.93159   0.24878   0.00000  Uiso   1.00
C352   C     0.64587   0.82807   0.15873   0.00000  Uiso   1.00
C353   C     0.36406   0.84599   0.39423   0.00000  Uiso   1.00
C354   C     0.63587   0.82029   0.10581   0.00000  Uiso   1.00
C355   C     0.35349   0.89161   0.47279   0.00000  Uiso   1.00
C356   C     0.64612   0.77397   0.02752   0.00000  Uiso   1.00
C357   C     0.33400   0.87996   0.42432   0.00000  Uiso   1.00
C358   C     0.66572   0.78595   0.07592   0.00000  Uiso   1.00
C359   C     0.41088   0.82306   0.41350   0.00000  Uiso   1.00
C360   C     0.58906   0.84314   0.08644   0.00000  Uiso   1.00
C361   C     0.43483   0.83912   0.45993   0.00000  Uiso   1.00
C362   C     0.65156   0.73507   0.25122   0.00000  Uiso   1.00
C363   C     0.56487   0.82660   0.04020   0.00000  Uiso   1.00
C364   C     0.40430   0.87275   0.49031   0.00000  Uiso   1.00
C365   C     0.59530   0.79277   0.00995   0.00000  Uiso   1.00
C366   C     0.48893   0.82401   0.47619   0.00000  Uiso   1.00
C367   C     0.51069   0.84152   0.02400   0.00000  Uiso   1.00
C368   C     0.47681   0.87204   0.05453   0.00000  Uiso   1.00
C369   C     0.52270   0.79326   0.44577   0.00000  Uiso   1.00
C370   C     0.42503   0.88780   0.03761   0.00000  Uiso   1.00
C371   C     0.57446   0.77747   0.46272   0.00000  Uiso   1.00
C372   C     0.35627   0.98619   0.24801   0.00000  Uiso   1.00
C373   C     0.64373   0.68047   0.25198   0.00000  Uiso   1.00
C374   C     0.35412   0.83854   0.34128   0.00000  Uiso   1.00
H375   H     0.40113   0.91213   0.06178   0.00000  Uiso   1.00
H376   H     0.60056   0.99654   0.25581   0.00000  Uiso   1.00
H377   H     0.49577   0.79124   0.21364   0.00000  Uiso   1.00
H378   H     0.50423   0.87542   0.28636   0.00000  Uiso   1.00
H379   H     0.59827   0.75296   0.43866   0.00000  Uiso   1.00
H380   H     0.57098   0.87234   0.10959   0.00000  Uiso   1.00
H381   H     0.42916   0.79421   0.39011   0.00000  Uiso   1.00
H382   H     0.66374   0.91750   0.49611   0.00000  Uiso   1.00
H383   H     0.33576   0.74785   0.00433   0.00000  Uiso   1.00
H384   H     0.48844   0.88438   0.09210   0.00000  Uiso   1.00
H385   H     0.51099   0.78063   0.40829   0.00000  Uiso   1.00
H386   H     0.39943   0.67013   0.24417   0.00000  Uiso   1.00
I387   I     0.40367   0.74677   0.10051   0.00000  Uiso   1.00
I388   I     0.59589   0.91907   0.39999   0.00000  Uiso   1.00
N389   N     0.48029   0.81883   0.23739   0.00000  Uiso   1.00
N390   N     0.51971   0.84784   0.26260   0.00000  Uiso   1.00
O391   O     0.63052   0.91298   0.25310   0.00000  Uiso   1.00
O392   O     0.36948   0.75369   0.24690   0.00000  Uiso   1.00
O393   O     0.39155   0.90368   0.24501   0.00000  Uiso   1.00
O394   O     0.60845   0.76298   0.25499   0.00000  Uiso   1.00
O395   O     0.63662   0.84063   0.32247   0.00000  Uiso   1.00
O396   O     0.36338   0.82603   0.17753   0.00000  Uiso   1.00
O397   O     0.39764   0.83134   0.31439   0.00000  Uiso   1.00
O398   O     0.60236   0.83533   0.18561   0.00000  Uiso   1.00
Zn399  Zn    0.60366   0.83954   0.25540   0.00000  Uiso   1.00
Zn400  Zn    0.39634   0.82713   0.24460   0.00000  Uiso   1.00
C401   C     0.68177   0.93159   0.24878   0.00000  Uiso   1.00
C402   C     0.97920   0.82807   0.15873   0.00000  Uiso   1.00
C403   C     0.69739   0.84599   0.39423   0.00000  Uiso   1.00
C404   C     0.96920   0.82029   0.10581   0.00000  Uiso   1.00
C405   C     0.68683   0.89161   0.47279   0.00000  Uiso   1.00
C406   C     0.97945   0.77397   0.02752   0.00000  Uiso   1.00
C407   C     0.66734   0.87996   0.42432   0.00000  Uiso   1.00
C408   C     0.99906   0.78595   0.07592   0.00000  Uiso   1.00
C409   C     0.74421   0.82306   0.41350   0.00000  Uiso   1.00
C410   C     0.92239   0.84314   0.08644   0.00000  Uiso   1.00
C411   C     0.76817   0.83912   0.45993   0.00000  Uiso   1.00
C412   C     0.98489   0.73507   0.25122   0.00000  Uiso   1.00
C413   C     0.89820   0.82660   0.04020   0.00000  Uiso   1.00
C414   C     0.73763   0.87275   0.49031   0.00000  Uiso   1.00
C415   C     0.92863   0.79277   0.00995   0.00000  Uiso   1.00
C416   C     0.82226   0.82401   0.47619   0.00000  Uiso   1.00
C417   C     0.84402   0.84152   0.02400   0.00000  Uiso   1.00
C418   C     0.81015   0.87204   0.05453   0.00000  Uiso   1.00
C419   C     0.85603   0.79326   0.44577   0.00000  Uiso   1.00
C420   C     0.75836   0.88780   0.03761   0.00000  Uiso   1.00
C421   C     0.90779   0.77747   0.46272   0.00000  Uiso   1.00
C422   C     0.68960   0.98619   0.24801   0.00000  Uiso   1.00
C423   C     0.97706   0.68047   0.25198   0.00000  Uiso   1.00
C424   C     0.68745   0.83854   0.34128   0.00000  Uiso   1.00
H425   H     0.73446   0.91213   0.06178   0.00000  Uiso   1.00
H426   H     0.93390   0.99654   0.25581   0.00000  Uiso   1.00
H427   H     0.82911   0.79124   0.21364   0.00000  Uiso   1.00
H428   H     0.83756   0.87542   0.28636   0.00000  Uiso   1.00
H429   H     0.93160   0.75296   0.43866   0.00000  Uiso   1.00
H430   H     0.90431   0.87234   0.10959   0.00000  Uiso   1.00
H431   H     0.76249   0.79421   0.39011   0.00000  Uiso   1.00
H432   H     0.99707   0.91750   0.49611   0.00000  Uiso   1.00
H433   H     0.66909   0.74785   0.00433   0.00000  Uiso   1.00
H434   H     0.82177   0.88438   0.09210   0.00000  Uiso   1.00
H435   H     0.84432   0.78063   0.40829   0.00000  Uiso   1.00
H436   H     0.73277   0.67013   0.24417   0.00000  Uiso   1.00
I437   I     0.73701   0.74677   0.10051   0.00000  Uiso   1.00
I438   I     0.92922   0.91907   0.39999   0.00000  Uiso   1.00
N439   N     0.81362   0.81883   0.23739   0.00000  Uiso   1.00
N440   N     0.85305   0.84784   0.26260   0.00000  Uiso   1.00
O441   O     0.96386   0.91298   0.25310   0.00000  Uiso   1.00
O442   O     0.70281   0.75369   0.24690   0.00000  Uiso   1.00
O443   O     0.72488   0.90368   0.24501   0.00000  Uiso   1.00
O444   O     0.94178   0.76298   0.25499   0.00000  Uiso   1.00
O445   O     0.96995   0.84063   0.32247   0.00000  Uiso   1.00
O446   O     0.69672   0.82603   0.17753   0.00000  Uiso   1.00
O447   O     0.73098   0.83134   0.31439   0.00000  Uiso   1.00
O448   O     0.93569   0.83533   0.18561   0.00000  Uiso   1.00
Zn449  Zn    0.93700   0.83954   0.25540   0.00000  Uiso   1.00
Zn450  Zn    0.72967   0.82713   0.24460   0.00000  Uiso   1.00
C451   C     0.01511   0.26492   0.74878   0.00000  Uiso   1.00
C452   C     0.31254   0.16140   0.65873   0.00000  Uiso   1.00
C453   C     0.03072   0.17932   0.89423   0.00000  Uiso   1.00
C454   C     0.30254   0.15363   0.60581   0.00000  Uiso   1.00
C455   C     0.02016   0.22495   0.97279   0.00000  Uiso   1.00
C456   C     0.31278   0.10730   0.52752   0.00000  Uiso   1.00
C457   C     0.00067   0.21330   0.92432   0.00000  Uiso   1.00
C458   C     0.33239   0.11928   0.57592   0.00000  Uiso   1.00
C459   C     0.07755   0.15640   0.91350   0.00000  Uiso   1.00
C460   C     0.25572   0.17647   0.58644   0.00000  Uiso   1.00
C461   C     0.10150   0.17245   0.95993   0.00000  Uiso   1.00
C462   C     0.31822   0.06841   0.75122   0.00000  Uiso   1.00
C463   C     0.23153   0.15993   0.54020   0.00000  Uiso   1.00
C464   C     0.07097   0.20608   0.99031   0.00000  Uiso   1.00
C465   C     0.26197   0.12611   0.50995   0.00000  Uiso   1.00
C466   C     0.15559   0.15734   0.97619   0.00000  Uiso   1.00
C467   C     0.17735   0.17485   0.52400   0.00000  Uiso   1.00
C468   C     0.14348   0.20537   0.55453   0.00000  Uiso   1.00
C469   C     0.18937   0.12659   0.94577   0.00000  Uiso   1.00
C470   C     0.09170   0.22113   0.53761   0.00000  Uiso   1.00
C471   C     0.24112   0.11081   0.96272   0.00000  Uiso   1.00
C472   C     0.02294   0.31953   0.74801   0.00000  Uiso   1.00
C473   C     0.31039   0.01381   0.75198   0.00000  Uiso   1.00
C474   C     0.02079   0.17188   0.84128   0.00000  Uiso   1.00
H475   H     0.06780   0.24546   0.56178   0.00000  Uiso   1.00
H476   H     0.26723   0.32987   0.75581   0.00000  Uiso   1.00
H477   H     0.16244   0.12457   0.71364   0.00000  Uiso   1.00
H478   H     0.17089   0.20876   0.78636   0.00000  Uiso   1.00
H479   H     0.26493   0.08629   0.93866   0.00000  Uiso   1.00
H480   H     0.23764   0.20568   0.60959   0.00000  Uiso   1.00
H481   H     0.09583   0.12755   0.89011   0.00000  Uiso   1.00
H482   H     0.33040   0.25084   0.99611   0.00000  Uiso   1.00
H483   H     0.00243   0.08119   0.50433   0.00000  Uiso   1.00
H484   H     0.15511   0.21771   0.59210   0.00000  Uiso   1.00
H485   H     0.17765   0.11396   0.90829   0.00000  Uiso   1.00
H486   H     0.06610   0.00346   0.74417   0.00000  Uiso   1.00
I487   I     0.07034   0.08010   0.60051   0.00000  Uiso   1.00
I488   I     0.26256   0.25241   0.89999   0.00000  Uiso   1.00
N489   N     0.14695   0.15216   0.73739   0.00000  Uiso   1.00
N490   N     0.18638   0.18117   0.76260   0.00000  Uiso   1.00
O491   O     0.29719   0.24631   0.75310   0.00000  Uiso   1.00
O492   O     0.03614   0.08702   0.74690   0.00000  Uiso   1.00
O493   O     0.05822   0.23702   0.74501   0.00000  Uiso   1.00
O494   O     0.27512   0.09632   0.75499   0.00000  Uiso   1.00
O495   O     0.30328   0.17397   0.82247   0.00000  Uiso   1.00
O496   O     0.03005   0.15937   0.67753   0.00000  Uiso   1.00
O497   O     0.06431   0.16467   0.81439   0.00000  Uiso   1.00
O498   O     0.26902   0.16866   0.68561   0.00000  Uiso   1.00
Zn499  Zn    0.27033   0.17287   0.75540   0.00000  Uiso   1.00
Zn500  Zn    0.06300   0.16046   0.74460   0.00000  Uiso   1.00
C501   C     0.34844   0.26492   0.74878   0.00000  Uiso   1.00
C502   C     0.64587   0.16140   0.65873   0.00000  Uiso   1.00
C503   C     0.36406   0.17932   0.89423   0.00000  Uiso   1.00
C504   C     0.63587   0.15363   0.60581   0.00000  Uiso   1.00
C505   C     0.35349   0.22495   0.97279   0.00000  Uiso   1.00
C506   C     0.64612   0.10730   0.52752   0.00000  Uiso   1.00
C507   C     0.33400   0.21330   0.92432   0.00000  Uiso   1.00
C508   C     0.66572   0.11928   0.57592   0.00000  Uiso   1.00
C509   C     0.41088   0.15640   0.91350   0.00000  Uiso   1.00
C510   C     0.58906   0.17647   0.58644   0.00000  Uiso   1.00
C511   C     0.43483   0.17245   0.95993   0.00000  Uiso   1.00
C512   C     0.65156   0.06841   0.75122   0.00000  Uiso   1.00
C513   C     0.56487   0.15993   0.54020   0.00000  Uiso   1.00
C514   C     0.40430   0.20608   0.99031   0.00000  Uiso   1.00
C515   C     0.59530   0.12611   0.50995   0.00000  Uiso   1.00
C516   C     0.48893   0.15734   0.97619   0.00000  Uiso   1.00
C517   C     0.51069   0.17485   0.52400   0.00000  Uiso   1.00
C518   C     0.47681   0.20537   0.55453   0.00000  Uiso   1.00
C519   C     0.52270   0.12659   0.94577   0.00000  Uiso   1.00
C520   C     0.42503   0.22113   0.53761   0.00000  Uiso   1.00
C521   C     0.57446   0.11081   0.96272   0.00000  Uiso   1.00
C522   C     0.35627   0.31953   0.74801   0.00000  Uiso   1.00
C523   C     0.64373   0.01381   0.75198   0.00000  Uiso   1.00
C524   C     0.35412   0.17188   0.84128   0.00000  Uiso   1.00
H525   H     0.40113   0.24546   0.56178   0.00000  Uiso   1.00
H526   H     0.60056   0.32987   0.75581   0.00000  Uiso   1.00
H527   H     0.49577   0.12457   0.71364   0.00000  Uiso   1.00
H528   H     0.50423   0.20876   0.78636   0.00000  Uiso   1.00
H529   H     0.59827   0.08629   0.93866   0.00000  Uiso   1.00
H530   H     0.57098   0.20568   0.60959   0.00000  Uiso   1.00
H531   H     0.42916   0.12755   0.89011   0.00000  Uiso   1.00
H532   H     0.66374   0.25084   0.99611   0.00000  Uiso   1.00
H533   H     0.33576   0.08119   0.50433   0.00000  Uiso   1.00
H534   H     0.48844   0.21771   0.59210   0.00000  Uiso   1.00
H535   H     0.51099   0.11396   0.90829   0.00000  Uiso   1.00
H536   H     0.39943   0.00346   0.74417   0.00000  Uiso   1.00
I537   I     0.40367   0.08010   0.60051   0.00000  Uiso   1.00
I538   I     0.59589   0.25241   0.89999   0.00000  Uiso   1.00
N539   N     0.48029   0.15216   0.73739   0.00000  Uiso   1.00
N540   N     0.51971   0.18117   0.76260   0.00000  Uiso   1.00
O541   O     0.63052   0.24631   0.75310   0.00000  Uiso   1.00
O542   O     0.36948   0.08702   0.74690   0.00000  Uiso   1.00
O543   O     0.39155   0.23702   0.74501   0.00000  Uiso   1.00
O544   O     0.60845   0.09632   0.75499   0.00000  Uiso   1.00
O545   O     0.63662   0.17397   0.82247   0.00000  Uiso   1.00
O546   O     0.36338   0.15937   0.67753   0.00000  Uiso   1.00
O547   O     0.39764   0.16467   0.81439   0.00000  Uiso   1.00
O548   O     0.60236   0.16866   0.68561   0.00000  Uiso   1.00
Zn549  Zn    0.60366   0.17287   0.75540   0.00000  Uiso   1.00
Zn550  Zn    0.39634   0.16046   0.74460   0.00000  Uiso   1.00
C551   C     0.68177   0.26492   0.74878   0.00000  Uiso   1.00
C552   C     0.97920   0.16140   0.65873   0.00000  Uiso   1.00
C553   C     0.69739   0.17932   0.89423   0.00000  Uiso   1.00
C554   C     0.96920   0.15363   0.60581   0.00000  Uiso   1.00
C555   C     0.68683   0.22495   0.97279   0.00000  Uiso   1.00
C556   C     0.97945   0.10730   0.52752   0.00000  Uiso   1.00
C557   C     0.66734   0.21330   0.92432   0.00000  Uiso   1.00
C558   C     0.99906   0.11928   0.57592   0.00000  Uiso   1.00
C559   C     0.74421   0.15640   0.91350   0.00000  Uiso   1.00
C560   C     0.92239   0.17647   0.58644   0.00000  Uiso   1.00
C561   C     0.76817   0.17245   0.95993   0.00000  Uiso   1.00
C562   C     0.98489   0.06841   0.75122   0.00000  Uiso   1.00
C563   C     0.89820   0.15993   0.54020   0.00000  Uiso   1.00
C564   C     0.73763   0.20608   0.99031   0.00000  Uiso   1.00
C565   C     0.92863   0.12611   0.50995   0.00000  Uiso   1.00
C566   C     0.82226   0.15734   0.97619   0.00000  Uiso   1.00
C567   C     0.84402   0.17485   0.52400   0.00000  Uiso   1.00
C568   C     0.81015   0.20537   0.55453   0.00000  Uiso   1.00
C569   C     0.85603   0.12659   0.94577   0.00000  Uiso   1.00
C570   C     0.75836   0.22113   0.53761   0.00000  Uiso   1.00
C571   C     0.90779   0.11081   0.96272   0.00000  Uiso   1.00
C572   C     0.68960   0.31953   0.74801   0.00000  Uiso   1.00
C573   C     0.97706   0.01381   0.75198   0.00000  Uiso   1.00
C574   C     0.68745   0.17188   0.84128   0.00000  Uiso   1.00
H575   H     0.73446   0.24546   0.56178   0.00000  Uiso   1.00
H576   H     0.93390   0.32987   0.75581   0.00000  Uiso   1.00
H577   H     0.82911   0.12457   0.71364   0.00000  Uiso   1.00
H578   H     0.83756   0.20876   0.78636   0.00000  Uiso   1.00
H579   H     0.93160   0.08629   0.93866   0.00000  Uiso   1.00
H580   H     0.90431   0.20568   0.60959   0.00000  Uiso   1.00
H581   H     0.76249   0.12755   0.89011   0.00000  Uiso   1.00
H582   H     0.99707   0.25084   0.99611   0.00000  Uiso   1.00
H583   H     0.66909   0.08119   0.50433   0.00000  Uiso   1.00
H584   H     0.82177   0.21771   0.59210   0.00000  Uiso   1.00
H585   H     0.84432   0.11396   0.90829   0.00000  Uiso   1.00
H586   H     0.73277   0.00346   0.74417   0.00000  Uiso   1.00
I587   I     0.73701   0.08010   0.60051   0.00000  Uiso   1.00
I588   I     0.92922   0.25241   0.89999   0.00000  Uiso   1.00
N589   N     0.81362   0.15216   0.73739   0.00000  Uiso   1.00
N590   N     0.85305   0.18117   0.76260   0.00000  Uiso   1.00
O591   O     0.96386   0.24631   0.75310   0.00000  Uiso   1.00
O592   O     0.70281   0.08702   0.74690   0.00000  Uiso   1.00
O593   O     0.72488   0.23702   0.74501   0.00000  Uiso   1.00
O594   O     0.94178   0.09632   0.75499   0.00000  Uiso   1.00
O595   O     0.96995   0.17397   0.82247   0.00000  Uiso   1.00
O596   O     0.69672   0.15937   0.67753   0.00000  Uiso   1.00
O597   O     0.73098   0.16467   0.81439   0.00000  Uiso   1.00
O598   O     0.93569   0.16866   0.68561   0.00000  Uiso   1.00
Zn599  Zn    0.93700   0.17287   0.75540   0.00000  Uiso   1.00
Zn600  Zn    0.72967   0.16046   0.74460   0.00000  Uiso   1.00
C601   C     0.01511   0.59826   0.74878   0.00000  Uiso   1.00
C602   C     0.31254   0.49474   0.65873   0.00000  Uiso   1.00
C603   C     0.03072   0.51266   0.89423   0.00000  Uiso   1.00
C604   C     0.30254   0.48696   0.60581   0.00000  Uiso   1.00
C605   C     0.02016   0.55828   0.97279   0.00000  Uiso   1.00
C606   C     0.31278   0.44063   0.52752   0.00000  Uiso   1.00
C607   C     0.00067   0.54663   0.92432   0.00000  Uiso   1.00
C608   C     0.33239   0.45262   0.57592   0.00000  Uiso   1.00
C609   C     0.07755   0.48973   0.91350   0.00000  Uiso   1.00
C610   C     0.25572   0.50981   0.58644   0.00000  Uiso   1.00
C611   C     0.10150   0.50579   0.95993   0.00000  Uiso   1.00
C612   C     0.31822   0.40174   0.75122   0.00000  Uiso   1.00
C613   C     0.23153   0.49327   0.54020   0.00000  Uiso   1.00
C614   C     0.07097   0.53941   0.99031   0.00000  Uiso   1.00
C615   C     0.26197   0.45944   0.50995   0.00000  Uiso   1.00
C616   C     0.15559   0.49067   0.97619   0.00000  Uiso   1.00
C617   C     0.17735   0.50819   0.52400   0.00000  Uiso   1.00
C618   C     0.14348   0.53870   0.55453   0.00000  Uiso   1.00
C619   C     0.18937   0.45992   0.94577   0.00000  Uiso   1.00
C620   C     0.09170   0.55446   0.53761   0.00000  Uiso   1.00
C621   C     0.24112   0.44414   0.96272   0.00000  Uiso   1.00
C622   C     0.02294   0.65286   0.74801   0.00000  Uiso   1.00
C623   C     0.31039   0.34714   0.75198   0.00000  Uiso   1.00
C624   C     0.02079   0.50521   0.84128   0.00000  Uiso   1.00
H625   H     0.06780   0.57879   0.56178   0.00000  Uiso   1.00
H626   H     0.26723   0.66320   0.75581   0.00000  Uiso   1.00
H627   H     0.16244   0.45791   0.71364   0.00000  Uiso   1.00
H628   H     0.17089   0.54209   0.78636   0.00000  Uiso   1.00
H629   H     0.26493   0.41962   0.93866   0.00000  Uiso   1.00
H630   H     0.23764   0.53901   0.60959   0.00000  Uiso   1.00
H631   H     0.09583   0.46088   0.89011   0.00000  Uiso   1.00
H632   H     0.33040   0.58417   0.99611   0.00000  Uiso   1.00
H633   H     0.00243   0.41452   0.50433   0.00000  Uiso   1.00
H634   H     0.15511   0.55105   0.59210   0.00000  Uiso   1.00
H635   H     0.17765   0.44729   0.90829   0.00000  Uiso   1.00
H636   H     0.06610   0.33680   0.74417   0.00000  Uiso   1.00
I637   I     0.07034   0.41344   0.60051   0.00000  Uiso   1.00
I638   I     0.26256   0.58574   0.89999   0.00000  Uiso   1.00
N639   N     0.14695   0.48550   0.73739   0.00000  Uiso   1.00
N640   N     0.18638   0.51450   0.76260   0.00000  Uiso   1.00
O641   O     0.29719   0.57964   0.75310   0.00000  Uiso   1.00
O642   O     0.03614   0.42036   0.74690   0.00000  Uiso   1.00
O643   O     0.05822   0.57035   0.74501   0.00000  Uiso   1.00
O644   O     0.27512   0.42965   0.75499   0.00000  Uiso   1.00
O645   O     0.30328   0.50730   0.82247   0.00000  Uiso   1.00
O646   O     0.03005   0.49270   0.67753   0.00000  Uiso   1.00
O647   O     0.06431   0.49801   0.81439   0.00000  Uiso   1.00
O648   O     0.26902   0.50199   0.68561   0.00000  Uiso   1.00
Zn649  Zn    0.27033   0.50621   0.75540   0.00000  Uiso   1.00
Zn650  Zn    0.06300   0.49379   0.74460   0.00000  Uiso   1.00
C651   C     0.34844   0.59826   0.74878   0.00000  Uiso   1.00
C652   C     0.64587   0.49474   0.65873   0.00000  Uiso   1.00
C653   C     0.36406   0.51266   0.89423   0.00000  Uiso   1.00
C654   C     0.63587   0.48696   0.60581   0.00000  Uiso   1.00
C655   C     0.35349   0.55828   0.97279   0.00000  Uiso   1.00
C656   C     0.64612   0.44063   0.52752   0.00000  Uiso   1.00
C657   C     0.33400   0.54663   0.92432   0.00000  Uiso   1.00
C658   C     0.66572   0.45262   0.57592   0.00000  Uiso   1.00
C659   C     0.41088   0.48973   0.91350   0.00000  Uiso   1.00
C660   C     0.58906   0.50981   0.58644   0.00000  Uiso   1.00
C661   C     0.43483   0.50579   0.95993   0.00000  Uiso   1.00
C662   C     0.65156   0.40174   0.75122   0.00000  Uiso   1.00
C663   C     0.56487   0.49327   0.54020   0.00000  Uiso   1.00
C664   C     0.40430   0.53941   0.99031   0.00000  Uiso   1.00
C665   C     0.59530   0.45944   0.50995   0.00000  Uiso   1.00
C666   C     0.48893   0.49067   0.97619   0.00000  Uiso   1.00
C667   C     0.51069   0.50819   0.52400   0.00000  Uiso   1.00
C668   C     0.47681   0.53870   0.55453   0.00000  Uiso   1.00
C669   C     0.52270   0.45992   0.94577   0.00000  Uiso   1.00
C670   C     0.42503   0.55446   0.53761   0.00000  Uiso   1.00
C671   C     0.57446   0.44414   0.96272   0.00000  Uiso   1.00
C672   C     0.35627   0.65286   0.74801   0.00000  Uiso   1.00
C673   C     0.64373   0.34714   0.75198   0.00000  Uiso   1.00
C674   C     0.35412   0.50521   0.84128   0.00000  Uiso   1.00
H675   H     0.40113   0.57879   0.56178   0.00000  Uiso   1.00
H676   H     0.60056   0.66320   0.75581   0.00000  Uiso   1.00
H677   H     0.49577   0.45791   0.71364   0.00000  Uiso   1.00
H678   H     0.50423   0.54209   0.78636   0.00000  Uiso   1.00
H679   H     0.59827   0.41962   0.93866   0.00000  Uiso   1.00
H680   H     0.57098   0.53901   0.60959   0.00000  Uiso   1.00
H681   H     0.42916   0.46088   0.89011   0.00000  Uiso   1.00
H682   H     0.66374   0.58417   0.99611   0.00000  Uiso   1.00
H683   H     0.33576   0.41452   0.50433   0.00000  Uiso   1.00
H684   H     0.48844   0.55105   0.59210   0.00000  Uiso   1.00
H685   H     0.51099   0.44729   0.90829   0.00000  Uiso   1.00
H686   H     0.39943   0.33680   0.74417   0.00000  Uiso   1.00
I687   I     0.40367   0.41344   0.60051   0.00000  Uiso   1.00
I688   I     0.59589   0.58574   0.89999   0.00000  Uiso   1.00
N689   N     0.48029   0.48550   0.73739   0.00000  Uiso   1.00
N690   N     0.51971   0.51450   0.76260   0.00000  Uiso   1.00
O691   O     0.63052   0.57964   0.75310   0.00000  Uiso   1.00
O692   O     0.36948   0.42036   0.74690   0.00000  Uiso   1.00
O693   O     0.39155   0.57035   0.74501   0.00000  Uiso   1.00
O694   O     0.60845   0.42965   0.75499   0.00000  Uiso   1.00
O695   O     0.63662   0.50730   0.82247   0.00000  Uiso   1.00
O696   O     0.36338   0.49270   0.67753   0.00000  Uiso   1.00
O697   O     0.39764   0.49801   0.81439   0.00000  Uiso   1.00
O698   O     0.60236   0.50199   0.68561   0.00000  Uiso   1.00
Zn699  Zn    0.60366   0.50621   0.75540   0.00000  Uiso   1.00
Zn700  Zn    0.39634   0.49379   0.74460   0.00000  Uiso   1.00
C701   C     0.68177   0.59826   0.74878   0.00000  Uiso   1.00
C702   C     0.97920   0.49474   0.65873   0.00000  Uiso   1.00
C703   C     0.69739   0.51266   0.89423   0.00000  Uiso   1.00
C704   C     0.96920   0.48696   0.60581   0.00000  Uiso   1.00
C705   C     0.68683   0.55828   0.97279   0.00000  Uiso   1.00
C706   C     0.97945   0.44063   0.52752   0.00000  Uiso   1.00
C707   C     0.66734   0.54663   0.92432   0.00000  Uiso   1.00
C708   C     0.99906   0.45262   0.57592   0.00000  Uiso   1.00
C709   C     0.74421   0.48973   0.91350   0.00000  Uiso   1.00
C710   C     0.92239   0.50981   0.58644   0.00000  Uiso   1.00
C711   C     0.76817   0.50579   0.95993   0.00000  Uiso   1.00
C712   C     0.98489   0.40174   0.75122   0.00000  Uiso   1.00
C713   C     0.89820   0.49327   0.54020   0.00000  Uiso   1.00
C714   C     0.73763   0.53941   0.99031   0.00000  Uiso   1.00
C715   C     0.92863   0.45944   0.50995   0.00000  Uiso   1.00
C716   C     0.82226   0.49067   0.97619   0.00000  Uiso   1.00
C717   C     0.84402   0.50819   0.52400   0.00000  Uiso   1.00
C718   C     0.81015   0.53870   0.55453   0.00000  Uiso   1.00
C719   C     0.85603   0.45992   0.94577   0.00000  Uiso   1.00
C720   C     0.75836   0.55446   0.53761   0.00000  Uiso   1.00
C721   C     0.90779   0.44414   0.96272   0.00000  Uiso   1.00
C722   C     0.68960   0.65286   0.74801   0.00000  Uiso   1.00
C723   C     0.97706   0.34714   0.75198   0.00000  Uiso   1.00
C724   C     0.68745   0.50521   0.84128   0.00000  Uiso   1.00
H725   H     0.73446   0.57879   0.56178   0.00000  Uiso   1.00
H726   H     0.93390   0.66320   0.75581   0.00000  Uiso   1.00
H727   H     0.82911   0.45791   0.71364   0.00000  Uiso   1.00
H728   H     0.83756   0.54209   0.78636   0.00000  Uiso   1.00
H729   H     0.93160   0.41962   0.93866   0.00000  Uiso   1.00
H730   H     0.90431   0.53901   0.60959   0.00000  Uiso   1.00
H731   H     0.76249   0.46088   0.89011   0.00000  Uiso   1.00
H732   H     0.99707   0.58417   0.99611   0.00000  Uiso   1.00
H733   H     0.66909   0.41452   0.50433   0.00000  Uiso   1.00
H734   H     0.82177   0.55105   0.59210   0.00000  Uiso   1.00
H735   H     0.84432   0.44729   0.90829   0.00000  Uiso   1.00
H736   H     0.73277   0.33680   0.74417   0.00000  Uiso   1.00
I737   I     0.73701   0.41344   0.60051   0.00000  Uiso   1.00
I738   I     0.92922   0.58574   0.89999   0.00000  Uiso   1.00
N739   N     0.81362   0.48550   0.73739   0.00000  Uiso   1.00
N740   N     0.85305   0.51450   0.76260   0.00000  Uiso   1.00
O741   O     0.96386   0.57964   0.75310   0.00000  Uiso   1.00
O742   O     0.70281   0.42036   0.74690   0.00000  Uiso   1.00
O743   O     0.72488   0.57035   0.74501   0.00000  Uiso   1.00
O744   O     0.94178   0.42965   0.75499   0.00000  Uiso   1.00
O745   O     0.96995   0.50730   0.82247   0.00000  Uiso   1.00
O746   O     0.69672   0.49270   0.67753   0.00000  Uiso   1.00
O747   O     0.73098   0.49801   0.81439   0.00000  Uiso   1.00
O748   O     0.93569   0.50199   0.68561   0.00000  Uiso   1.00
Zn749  Zn    0.93700   0.50621   0.75540   0.00000  Uiso   1.00
Zn750  Zn    0.72967   0.49379   0.74460   0.00000  Uiso   1.00
C751   C     0.01511   0.93159   0.74878   0.00000  Uiso   1.00
C752   C     0.31254   0.82807   0.65873   0.00000  Uiso   1.00
C753   C     0.03072   0.84599   0.89423   0.00000  Uiso   1.00
C754   C     0.30254   0.82029   0.60581   0.00000  Uiso   1.00
C755   C     0.02016   0.89161   0.97279   0.00000  Uiso   1.00
C756   C     0.31278   0.77397   0.52752   0.00000  Uiso   1.00
C757   C     0.00067   0.87996   0.92432   0.00000  Uiso   1.00
C758   C     0.33239   0.78595   0.57592   0.00000  Uiso   1.00
C759   C     0.07755   0.82306   0.91350   0.00000  Uiso   1.00
C760   C     0.25572   0.84314   0.58644   0.00000  Uiso   1.00
C761   C     0.10150   0.83912   0.95993   0.00000  Uiso   1.00
C762   C     0.31822   0.73507   0.75122   0.00000  Uiso   1.00
C763   C     0.23153   0.82660   0.54020   0.00000  Uiso   1.00
C764   C     0.07097   0.87275   0.99031   0.00000  Uiso   1.00
C765   C     0.26197   0.79277   0.50995   0.00000  Uiso   1.00
C766   C     0.15559   0.82401   0.97619   0.00000  Uiso   1.00
C767   C     0.17735   0.84152   0.52400   0.00000  Uiso   1.00
C768   C     0.14348   0.87204   0.55453   0.00000  Uiso   1.00
C769   C     0.18937   0.79326   0.94577   0.00000  Uiso   1.00
C770   C     0.09170   0.88780   0.53761   0.00000  Uiso   1.00
C771   C     0.24112   0.77747   0.96272   0.00000  Uiso   1.00
C772   C     0.02294   0.98619   0.74801   0.00000  Uiso   1.00
C773   C     0.31039   0.68047   0.75198   0.00000  Uiso   1.00
C774   C     0.02079   0.83854   0.84128   0.00000  Uiso   1.00
H775   H     0.06780   0.91213   0.56178   0.00000  Uiso   1.00
H776   H     0.26723   0.99654   0.75581   0.00000  Uiso   1.00
H777   H     0.16244   0.79124   0.71364   0.00000  Uiso   1.00
H778   H     0.17089   0.87542   0.78636   0.00000  Uiso   1.00
H779   H     0.26493   0.75296   0.93866   0.00000  Uiso   1.00
H780   H     0.23764   0.87234   0.60959   0.00000  Uiso   1.00
H781   H     0.09583   0.79421   0.89011   0.00000  Uiso   1.00
H782   H     0.33040   0.91750   0.99611   0.00000  Uiso   1.00
H783   H     0.00243   0.74785   0.50433   0.00000  Uiso   1.00
H784   H     0.15511   0.88438   0.59210   0.00000  Uiso   1.00
H785   H     0.17765   0.78063   0.90829   0.00000  Uiso   1.00
H786   H     0.06610   0.67013   0.74417   0.00000  Uiso   1.00
I787   I     0.07034   0.74677   0.60051   0.00000  Uiso   1.00
I788   I     0.26256   0.91907   0.89999   0.00000  Uiso   1.00
N789   N     0.14695   0.81883   0.73739   0.00000  Uiso   1.00
N790   N     0.18638   0.84784   0.76260   0.00000  Uiso   1.00
O791   O     0.29719   0.91298   0.75310   0.00000  Uiso   1.00
O792   O     0.03614   0.75369   0.74690   0.00000  Uiso   1.00
O793   O     0.05822   0.90368   0.74501   0.00000  Uiso   1.00
O794   O     0.27512   0.76298   0.75499   0.00000  Uiso   1.00
O795   O     0.30328   0.84063   0.82247   0.00000  Uiso   1.00
O796   O     0.03005   0.82603   0.67753   0.00000  Uiso   1.00
O797   O     0.06431   0.83134   0.81439   0.00000  Uiso   1.00
O798   O     0.26902   0.83533   0.68561   0.00000  Uiso   1.00
Zn799  Zn    0.27033   0.83954   0.75540   0.00000  Uiso   1.00
Zn800  Zn    0.06300   0.82713   0.74460   0.00000  Uiso   1.00
C801   C     0.34844   0.93159   0.74878   0.00000  Uiso   1.00
C802   C     0.64587   0.82807   0.65873   0.00000  Uiso   1.00
C803   C     0.36406   0.84599   0.89423   0.00000  Uiso   1.00
C804   C     0.63587   0.82029   0.60581   0.00000  Uiso   1.00
C805   C     0.35349   0.89161   0.97279   0.00000  Uiso   1.00
C806   C     0.64612   0.77397   0.52752   0.00000  Uiso   1.00
C807   C     0.33400   0.87996   0.92432   0.00000  Uiso   1.00
C808   C     0.66572   0.78595   0.57592   0.00000  Uiso   1.00
C809   C     0.41088   0.82306   0.91350   0.00000  Uiso   1.00
C810   C     0.58906   0.84314   0.58644   0.00000  Uiso   1.00
C811   C     0.43483   0.83912   0.95993   0.00000  Uiso   1.00
C812   C     0.65156   0.73507   0.75122   0.00000  Uiso   1.00
C813   C     0.56487   0.82660   0.54020   0.00000  Uiso   1.00
C814   C     0.40430   0.87275   0.99031   0.00000  Uiso   1.00
C815   C     0.59530   0.79277   0.50995   0.00000  Uiso   1.00
C816   C     0.48893   0.82401   0.97619   0.00000  Uiso   1.00
C817   C     0.51069   0.84152   0.52400   0.00000  Uiso   1.00
C818   C     0.47681   0.87204   0.55453   0.00000  Uiso   1.00
C819   C     0.52270   0.79326   0.94577   0.00000  Uiso   1.00
C820   C     0.42503   0.88780   0.53761   0.00000  Uiso   1.00
C821   C     0.57446   0.77747   0.96272   0.00000  Uiso   1.00
C822   C     0.35627   0.98619   0.74801   0.00000  Uiso   1.00
C823   C     0.64373   0.68047   0.75198   0.00000  Uiso   1.00
C824   C     0.35412   0.83854   0.84128   0.00000  Uiso   1.00
H825   H     0.40113   0.91213   0.56178   0.00000  Uiso   1.00
H826   H     0.60056   0.99654   0.75581   0.00000  Uiso   1.00
H827   H     0.49577   0.79124   0.71364   0.00000  Uiso   1.00
H828   H     0.50423   0.87542   0.78636   0.00000  Uiso   1.00
H829   H     0.59827   0.75296   0.93866   0.00000  Uiso   1.00
H830   H     0.57098   0.87234   0.60959   0.00000  Uiso   1.00
H831   H     0.42916   0.79421   0.89011   0.00000  Uiso   1.00
H832   H     0.66374   0.91750   0.99611   0.00000  Uiso   1.00
H833   H     0.33576   0.74785   0.50433   0.00000  Uiso   1.00
H834   H     0.48844   0.88438   0.59210   0.00000  Uiso   1.00
H835   H     0.51099   0.78063   0.90829   0.00000  Uiso   1.00
H836   H     0.39943   0.67013   0.74417   0.00000  Uiso   1.00
I837   I     0.40367   0.74677   0.60051   0.00000  Uiso   1.00
I838   I     0.59589   0.91907   0.89999   0.00000  Uiso   1.00
N839   N     0.48029   0.81883   0.73739   0.00000  Uiso   1.00
N840   N     0.51971   0.84784   0.76260   0.00000  Uiso   1.00
O841   O     0.63052   0.91298   0.75310   0.00000  Uiso   1.00
O842   O     0.36948   0.75369   0.74690   0.00000  Uiso   1.00
O843   O     0.39155   0.90368   0.74501   0.00000  Uiso   1.00
O844   O     0.60845   0.76298   0.75499   0.00000  Uiso   1.00
O845   O     0.63662   0.84063   0.82247   0.00000  Uiso   1.00
O846   O     0.36338   0.82603   0.67753   0.00000  Uiso   1.00
O847   O     0.39764   0.83134   0.81439   0.00000  Uiso   1.00
O848   O     0.60236   0.83533   0.68561   0.00000  Uiso   1.00
Zn849  Zn    0.60366   0.83954   0.75540   0.00000  Uiso   1.00
Zn850  Zn    0.39634   0.82713   0.74460   0.00000  Uiso   1.00
C851   C     0.68177   0.93159   0.74878   0.00000  Uiso   1.00
C852   C     0.97920   0.82807   0.65873   0.00000  Uiso   1.00
C853   C     0.69739   0.84599   0.89423   0.00000  Uiso   1.00
C854   C     0.96920   0.82029   0.60581   0.00000  Uiso   1.00
C855   C     0.68683   0.89161   0.97279   0.00000  Uiso   1.00
C856   C     0.97945   0.77397   0.52752   0.00000  Uiso   1.00
C857   C     0.66734   0.87996   0.92432   0.00000  Uiso   1.00
C858   C     0.99906   0.78595   0.57592   0.00000  Uiso   1.00
C859   C     0.74421   0.82306   0.91350   0.00000  Uiso   1.00
C860   C     0.92239   0.84314   0.58644   0.00000  Uiso   1.00
C861   C     0.76817   0.83912   0.95993   0.00000  Uiso   1.00
C862   C     0.98489   0.73507   0.75122   0.00000  Uiso   1.00
C863   C     0.89820   0.82660   0.54020   0.00000  Uiso   1.00
C864   C     0.73763   0.87275   0.99031   0.00000  Uiso   1.00
C865   C     0.92863   0.79277   0.50995   0.00000  Uiso   1.00
C866   C     0.82226   0.82401   0.97619   0.00000  Uiso   1.00
C867   C     0.84402   0.84152   0.52400   0.00000  Uiso   1.00
C868   C     0.81015   0.87204   0.55453   0.00000  Uiso   1.00
C869   C     0.85603   0.79326   0.94577   0.00000  Uiso   1.00
C870   C     0.75836   0.88780   0.53761   0.00000  Uiso   1.00
C871   C     0.90779   0.77747   0.96272   0.00000  Uiso   1.00
C872   C     0.68960   0.98619   0.74801   0.00000  Uiso   1.00
C873   C     0.97706   0.68047   0.75198   0.00000  Uiso   1.00
C874   C     0.68745   0.83854   0.84128   0.00000  Uiso   1.00
H875   H     0.73446   0.91213   0.56178   0.00000  Uiso   1.00
H876   H     0.93390   0.99654   0.75581   0.00000  Uiso   1.00
H877   H     0.82911   0.79124   0.71364   0.00000  Uiso   1.00
H878   H     0.83756   0.87542   0.78636   0.00000  Uiso   1.00
H879   H     0.93160   0.75296   0.93866   0.00000  Uiso   1.00
H880   H     0.90431   0.87234   0.60959   0.00000  Uiso   1.00
H881   H     0.76249   0.79421   0.89011   0.00000  Uiso   1.00
H882   H     0.99707   0.91750   0.99611   0.00000  Uiso   1.00
H883   H     0.66909   0.74785   0.50433   0.00000  Uiso   1.00
H884   H     0.82177   0.88438   0.59210   0.00000  Uiso   1.00
H885   H     0.84432   0.78063   0.90829   0.00000  Uiso   1.00
H886   H     0.73277   0.67013   0.74417   0.00000  Uiso   1.00
I887   I     0.73701   0.74677   0.60051   0.00000  Uiso   1.00
I888   I     0.92922   0.91907   0.89999   0.00000  Uiso   1.00
N889   N     0.81362   0.81883   0.73739   0.00000  Uiso   1.00
N890   N     0.85305   0.84784   0.76260   0.00000  Uiso   1.00
O891   O     0.96386   0.91298   0.75310   0.00000  Uiso   1.00
O892   O     0.70281   0.75369   0.74690   0.00000  Uiso   1.00
O893   O     0.72488   0.90368   0.74501   0.00000  Uiso   1.00
O894   O     0.94178   0.76298   0.75499   0.00000  Uiso   1.00
O895   O     0.96995   0.84063   0.82247   0.00000  Uiso   1.00
O896   O     0.69672   0.82603   0.67753   0.00000  Uiso   1.00
O897   O     0.73098   0.83134   0.81439   0.00000  Uiso   1.00
O898   O     0.93569   0.83533   0.68561   0.00000  Uiso   1.00
Zn899  Zn    0.93700   0.83954   0.75540   0.00000  Uiso   1.00
Zn900  Zn    0.72967   0.82713   0.74460   0.00000  Uiso   1.00
loop_
_geom_bond_atom_site_label_1
_geom_bond_atom_site_label_2
_geom_bond_distance
_geom_bond_site_symmetry_2
_ccdc_geom_bond_type
C1     C22     1.402   .     S
C1     O43     1.289   .     A
C1     O141    1.275   1_455 S
C2     C4      1.456   .     S
C2     O48     1.302   .     A
C2     O96     1.289   .     S
C3     C9      1.388   .     A
C3     C7      1.411   .     A
C3     C24     1.457   .     S
C4     C8      1.411   .     A
C4     C10     1.388   .     A
C5     C14     1.401   .     A
C5     C7      1.393   .     A
C5     H132    1.084   1_455 S
C6     C8      1.393   .     A
C6     C15     1.401   .     A
C6     H83     1.084   .     S
C7     I138    2.127   1_455 S
C8     I87     2.127   .     S
C9     C11     1.394   .     A
C9     H31     1.075   .     S
C10    H30     1.076   .     S
C10    C13     1.394   .     A
C11    C16     1.420   .     A
C11    C14     1.417   .     A
C12    O44     1.289   .     A
C12    C23     1.402   .     S
C12    O92     1.275   .     S
C13    C17     1.420   .     A
C13    C15     1.417   .     A
C14    C470    1.386   .     S
C15    C471    1.386   1_554 S
C16    C19     1.420   .     A
C16    C467    1.420   .     S
C17    C18     1.419   .     A
C17    C466    1.420   1_554 S
C18    C20     1.383   .     A
C18    H34     1.075   .     S
C19    H35     1.075   .     S
C19    C21     1.383   .     A
C20    H25     1.085   .     S
C20    C464    1.386   1_554 S
C21    H29     1.085   .     S
C21    C465    1.386   .     S
C22    C273    1.340   1_455 S
C22    H186    1.088   .     S
C23    C372    1.340   1_545 S
C23    H326    1.088   1_545 S
C24    O47     1.302   .     A
C24    O145    1.289   1_455 S
H26    C173    1.088   .     S
H27    N39     1.029   .     S
H28    N40     1.029   .     S
H32    C55     1.084   .     S
H33    C106    1.084   1_455 S
H36    C322    1.088   1_545 S
I37    C108    2.127   1_455 S
I38    C57     2.127   .     S
N39    Zn50    2.018   .     S
N39    N40     1.293   .     D
N40    Zn49    2.018   .     S
O41    Zn49    1.948   .     S
O41    C51     1.275   .     S
O42    Zn50    1.948   .     S
O42    C112    1.275   1_455 S
O43    Zn50    1.978   .     S
O44    Zn49    1.978   .     S
O45    Zn49    1.961   .     S
O45    C74     1.289   .     S
O46    Zn50    1.961   .     S
O46    C102    1.289   1_455 S
O47    Zn50    1.904   .     S
O48    Zn49    1.904   .     S
C51    C72     1.402   .     S
C51    O93     1.289   .     A
C52    C54     1.456   .     S
C52    O98     1.302   .     A
C52    O146    1.289   .     S
C53    C59     1.388   .     A
C53    C57     1.411   .     A
C53    C74     1.457   .     S
C54    C58     1.411   .     A
C54    C60     1.388   .     A
C55    C64     1.401   .     A
C55    C57     1.393   .     A
C56    C58     1.393   .     A
C56    C65     1.401   .     A
C56    H133    1.084   .     S
C58    I137    2.127   .     S
C59    C61     1.394   .     A
C59    H81     1.075   .     S
C60    H80     1.076   .     S
C60    C63     1.394   .     A
C61    C66     1.420   .     A
C61    C64     1.417   .     A
C62    O94     1.289   .     A
C62    C73     1.402   .     S
C62    O142    1.275   .     S
C63    C67     1.420   .     A
C63    C65     1.417   .     A
C64    C520    1.386   .     S
C65    C521    1.386   1_554 S
C66    C69     1.420   .     A
C66    C517    1.420   .     S
C67    C68     1.419   .     A
C67    C516    1.420   1_554 S
C68    C70     1.383   .     A
C68    H84     1.075   .     S
C69    H85     1.075   .     S
C69    C71     1.383   .     A
C70    H75     1.085   .     S
C70    C514    1.386   1_554 S
C71    H79     1.085   .     S
C71    C515    1.386   .     S
C72    C173    1.340   .     S
C72    H236    1.088   .     S
C73    C422    1.340   1_545 S
C73    H376    1.088   1_545 S
C74    O97     1.302   .     A
H76    C223    1.088   .     S
H77    N89     1.029   .     S
H78    N90     1.029   .     S
H82    C105    1.084   .     S
H86    C372    1.088   1_545 S
I88    C107    2.127   .     S
N89    Zn100   2.018   .     S
N89    N90     1.293   .     D
N90    Zn99    2.018   .     S
O91    Zn99    1.948   .     S
O91    C101    1.275   .     S
O92    Zn100   1.948   .     S
O93    Zn100   1.978   .     S
O94    Zn99    1.978   .     S
O95    Zn99    1.961   .     S
O95    C124    1.289   .     S
O96    Zn100   1.961   .     S
O97    Zn100   1.904   .     S
O98    Zn99    1.904   .     S
C101   C122    1.402   .     S
C101   O143    1.289   .     A
C102   C104    1.456   .     S
C102   O148    1.302   .     A
C102   O46     1.289   1_655 S
C103   C109    1.388   .     A
C103   C107    1.411   .     A
C103   C124    1.457   .     S
C104   C108    1.411   .     A
C104   C110    1.388   .     A
C105   C114    1.401   .     A
C105   C107    1.393   .     A
C106   C108    1.393   .     A
C106   C115    1.401   .     A
C106   H33     1.084   1_655 S
C108   I37     2.127   1_655 S
C109   C111    1.394   .     A
C109   H131    1.075   .     S
C110   H130    1.076   .     S
C110   C113    1.394   .     A
C111   C116    1.420   .     A
C111   C114    1.417   .     A
C112   O144    1.289   .     A
C112   C123    1.402   .     S
C112   O42     1.275   1_655 S
C113   C117    1.420   .     A
C113   C115    1.417   .     A
C114   C570    1.386   .     S
C115   C571    1.386   1_554 S
C116   C119    1.420   .     A
C116   C567    1.420   .     S
C117   C118    1.419   .     A
C117   C566    1.420   1_554 S
C118   C120    1.383   .     A
C118   H134    1.075   .     S
C119   H135    1.075   .     S
C119   C121    1.383   .     A
C120   H125    1.085   .     S
C120   C564    1.386   1_554 S
C121   H129    1.085   .     S
C121   C565    1.386   .     S
C122   C223    1.340   .     S
C122   H286    1.088   .     S
C123   C322    1.340   1_645 S
C123   H426    1.088   1_545 S
C124   O147    1.302   .     A
H126   C273    1.088   .     S
H127   N139    1.029   .     S
H128   N140    1.029   .     S
H132   C5      1.084   1_655 S
H136   C422    1.088   1_545 S
I138   C7      2.127   1_655 S
N139   Zn150   2.018   .     S
N139   N140    1.293   .     D
N140   Zn149   2.018   .     S
O141   Zn149   1.948   .     S
O141   C1      1.275   1_655 S
O142   Zn150   1.948   .     S
O143   Zn150   1.978   .     S
O144   Zn149   1.978   .     S
O145   Zn149   1.961   .     S
O145   C24     1.289   1_655 S
O146   Zn150   1.961   .     S
O147   Zn150   1.904   .     S
O148   Zn149   1.904   .     S
C151   C172    1.402   .     S
C151   O193    1.289   .     A
C151   O291    1.275   1_455 S
C152   C154    1.456   .     S
C152   O198    1.302   .     A
C152   O246    1.289   .     S
C153   C159    1.388   .     A
C153   C157    1.411   .     A
C153   C174    1.457   .     S
C154   C158    1.411   .     A
C154   C160    1.388   .     A
C155   C164    1.401   .     A
C155   C157    1.393   .     A
C155   H282    1.084   1_455 S
C156   C158    1.393   .     A
C156   C165    1.401   .     A
C156   H233    1.084   .     S
C157   I288    2.127   1_455 S
C158   I237    2.127   .     S
C159   C161    1.394   .     A
C159   H181    1.075   .     S
C160   H180    1.076   .     S
C160   C163    1.394   .     A
C161   C166    1.420   .     A
C161   C164    1.417   .     A
C162   O194    1.289   .     A
C162   C173    1.402   .     S
C162   O242    1.275   .     S
C163   C167    1.420   .     A
C163   C165    1.417   .     A
C164   C620    1.386   .     S
C165   C621    1.386   1_554 S
C166   C169    1.420   .     A
C166   C617    1.420   .     S
C167   C168    1.419   .     A
C167   C616    1.420   1_554 S
C168   C170    1.383   .     A
C168   H184    1.075   .     S
C169   H185    1.075   .     S
C169   C171    1.383   .     A
C170   H175    1.085   .     S
C170   C614    1.386   1_554 S
C171   H179    1.085   .     S
C171   C615    1.386   .     S
C172   C423    1.340   1_455 S
C172   H336    1.088   .     S
C174   O197    1.302   .     A
C174   O295    1.289   1_455 S
H176   C323    1.088   .     S
H177   N189    1.029   .     S
H178   N190    1.029   .     S
H182   C205    1.084   .     S
H183   C256    1.084   1_455 S
I187   C258    2.127   1_455 S
I188   C207    2.127   .     S
N189   Zn200   2.018   .     S
N189   N190    1.293   .     D
N190   Zn199   2.018   .     S
O191   Zn199   1.948   .     S
O191   C201    1.275   .     S
O192   Zn200   1.948   .     S
O192   C262    1.275   1_455 S
O193   Zn200   1.978   .     S
O194   Zn199   1.978   .     S
O195   Zn199   1.961   .     S
O195   C224    1.289   .     S
O196   Zn200   1.961   .     S
O196   C252    1.289   1_455 S
O197   Zn200   1.904   .     S
O198   Zn199   1.904   .     S
C201   C222    1.402   .     S
C201   O243    1.289   .     A
C202   C204    1.456   .     S
C202   O248    1.302   .     A
C202   O296    1.289   .     S
C203   C209    1.388   .     A
C203   C207    1.411   .     A
C203   C224    1.457   .     S
C204   C208    1.411   .     A
C204   C210    1.388   .     A
C205   C214    1.401   .     A
C205   C207    1.393   .     A
C206   C208    1.393   .     A
C206   C215    1.401   .     A
C206   H283    1.084   .     S
C208   I287    2.127   .     S
C209   C211    1.394   .     A
C209   H231    1.075   .     S
C210   H230    1.076   .     S
C210   C213    1.394   .     A
C211   C216    1.420   .     A
C211   C214    1.417   .     A
C212   O244    1.289   .     A
C212   C223    1.402   .     S
C212   O292    1.275   .     S
C213   C217    1.420   .     A
C213   C215    1.417   .     A
C214   C670    1.386   .     S
C215   C671    1.386   1_554 S
C216   C219    1.420   .     A
C216   C667    1.420   .     S
C217   C218    1.419   .     A
C217   C666    1.420   1_554 S
C218   C220    1.383   .     A
C218   H234    1.075   .     S
C219   H235    1.075   .     S
C219   C221    1.383   .     A
C220   H225    1.085   .     S
C220   C664    1.386   1_554 S
C221   H229    1.085   .     S
C221   C665    1.386   .     S
C222   C323    1.340   .     S
C222   H386    1.088   .     S
C224   O247    1.302   .     A
H226   C373    1.088   .     S
H227   N239    1.029   .     S
H228   N240    1.029   .     S
H232   C255    1.084   .     S
I238   C257    2.127   .     S
N239   Zn250   2.018   .     S
N239   N240    1.293   .     D
N240   Zn249   2.018   .     S
O241   Zn249   1.948   .     S
O241   C251    1.275   .     S
O242   Zn250   1.948   .     S
O243   Zn250   1.978   .     S
O244   Zn249   1.978   .     S
O245   Zn249   1.961   .     S
O245   C274    1.289   .     S
O246   Zn250   1.961   .     S
O247   Zn250   1.904   .     S
O248   Zn249   1.904   .     S
C251   C272    1.402   .     S
C251   O293    1.289   .     A
C252   C254    1.456   .     S
C252   O298    1.302   .     A
C252   O196    1.289   1_655 S
C253   C259    1.388   .     A
C253   C257    1.411   .     A
C253   C274    1.457   .     S
C254   C258    1.411   .     A
C254   C260    1.388   .     A
C255   C264    1.401   .     A
C255   C257    1.393   .     A
C256   C258    1.393   .     A
C256   C265    1.401   .     A
C256   H183    1.084   1_655 S
C258   I187    2.127   1_655 S
C259   C261    1.394   .     A
C259   H281    1.075   .     S
C260   H280    1.076   .     S
C260   C263    1.394   .     A
C261   C266    1.420   .     A
C261   C264    1.417   .     A
C262   O294    1.289   .     A
C262   C273    1.402   .     S
C262   O192    1.275   1_655 S
C263   C267    1.420   .     A
C263   C265    1.417   .     A
C264   C720    1.386   .     S
C265   C721    1.386   1_554 S
C266   C269    1.420   .     A
C266   C717    1.420   .     S
C267   C268    1.419   .     A
C267   C716    1.420   1_554 S
C268   C270    1.383   .     A
C268   H284    1.075   .     S
C269   H285    1.075   .     S
C269   C271    1.383   .     A
C270   H275    1.085   .     S
C270   C714    1.386   1_554 S
C271   H279    1.085   .     S
C271   C715    1.386   .     S
C272   C373    1.340   .     S
C272   H436    1.088   .     S
C273   C22     1.340   1_655 S
C274   O297    1.302   .     A
H276   C423    1.088   .     S
H277   N289    1.029   .     S
H278   N290    1.029   .     S
H282   C155    1.084   1_655 S
I288   C157    2.127   1_655 S
N289   Zn300   2.018   .     S
N289   N290    1.293   .     D
N290   Zn299   2.018   .     S
O291   Zn299   1.948   .     S
O291   C151    1.275   1_655 S
O292   Zn300   1.948   .     S
O293   Zn300   1.978   .     S
O294   Zn299   1.978   .     S
O295   Zn299   1.961   .     S
O295   C174    1.289   1_655 S
O296   Zn300   1.961   .     S
O297   Zn300   1.904   .     S
O298   Zn299   1.904   .     S
C301   C322    1.402   .     S
C301   O343    1.289   .     A
C301   O441    1.275   1_455 S
C302   C304    1.456   .     S
C302   O348    1.302   .     A
C302   O396    1.289   .     S
C303   C309    1.388   .     A
C303   C307    1.411   .     A
C303   C324    1.457   .     S
C304   C308    1.411   .     A
C304   C310    1.388   .     A
C305   C314    1.401   .     A
C305   C307    1.393   .     A
C305   H432    1.084   1_455 S
C306   C308    1.393   .     A
C306   C315    1.401   .     A
C306   H383    1.084   .     S
C307   I438    2.127   1_455 S
C308   I387    2.127   .     S
C309   C311    1.394   .     A
C309   H331    1.075   .     S
C310   H330    1.076   .     S
C310   C313    1.394   .     A
C311   C316    1.420   .     A
C311   C314    1.417   .     A
C312   O344    1.289   .     A
C312   C323    1.402   .     S
C312   O392    1.275   .     S
C313   C317    1.420   .     A
C313   C315    1.417   .     A
C314   C770    1.386   .     S
C315   C771    1.386   1_554 S
C316   C319    1.420   .     A
C316   C767    1.420   .     S
C317   C318    1.419   .     A
C317   C766    1.420   1_554 S
C318   C320    1.383   .     A
C318   H334    1.075   .     S
C319   H335    1.075   .     S
C319   C321    1.383   .     A
C320   H325    1.085   .     S
C320   C764    1.386   1_554 S
C321   H329    1.085   .     S
C321   C765    1.386   .     S
C322   C123    1.340   1_465 S
C322   H36     1.088   1_565 S
C324   O347    1.302   .     A
C324   O445    1.289   1_455 S
H326   C23     1.088   1_565 S
H327   N339    1.029   .     S
H328   N340    1.029   .     S
H332   C355    1.084   .     S
H333   C406    1.084   1_455 S
I337   C408    2.127   1_455 S
I338   C357    2.127   .     S
N339   Zn350   2.018   .     S
N339   N340    1.293   .     D
N340   Zn349   2.018   .     S
O341   Zn349   1.948   .     S
O341   C351    1.275   .     S
O342   Zn350   1.948   .     S
O342   C412    1.275   1_455 S
O343   Zn350   1.978   .     S
O344   Zn349   1.978   .     S
O345   Zn349   1.961   .     S
O345   C374    1.289   .     S
O346   Zn350   1.961   .     S
O346   C402    1.289   1_455 S
O347   Zn350   1.904   .     S
O348   Zn349   1.904   .     S
C351   C372    1.402   .     S
C351   O393    1.289   .     A
C352   C354    1.456   .     S
C352   O398    1.302   .     A
C352   O446    1.289   .     S
C353   C359    1.388   .     A
C353   C357    1.411   .     A
C353   C374    1.457   .     S
C354   C358    1.411   .     A
C354   C360    1.388   .     A
C355   C364    1.401   .     A
C355   C357    1.393   .     A
C356   C358    1.393   .     A
C356   C365    1.401   .     A
C356   H433    1.084   .     S
C358   I437    2.127   .     S
C359   C361    1.394   .     A
C359   H381    1.075   .     S
C360   H380    1.076   .     S
C360   C363    1.394   .     A
C361   C366    1.420   .     A
C361   C364    1.417   .     A
C362   O394    1.289   .     A
C362   C373    1.402   .     S
C362   O442    1.275   .     S
C363   C367    1.420   .     A
C363   C365    1.417   .     A
C364   C820    1.386   .     S
C365   C821    1.386   1_554 S
C366   C369    1.420   .     A
C366   C817    1.420   .     S
C367   C368    1.419   .     A
C367   C816    1.420   1_554 S
C368   C370    1.383   .     A
C368   H384    1.075   .     S
C369   H385    1.075   .     S
C369   C371    1.383   .     A
C370   H375    1.085   .     S
C370   C814    1.386   1_554 S
C371   H379    1.085   .     S
C371   C815    1.386   .     S
C372   C23     1.340   1_565 S
C372   H86     1.088   1_565 S
C374   O397    1.302   .     A
H376   C73     1.088   1_565 S
H377   N389    1.029   .     S
H378   N390    1.029   .     S
H382   C405    1.084   .     S
I388   C407    2.127   .     S
N389   Zn400   2.018   .     S
N389   N390    1.293   .     D
N390   Zn399   2.018   .     S
O391   Zn399   1.948   .     S
O391   C401    1.275   .     S
O392   Zn400   1.948   .     S
O393   Zn400   1.978   .     S
O394   Zn399   1.978   .     S
O395   Zn399   1.961   .     S
O395   C424    1.289   .     S
O396   Zn400   1.961   .     S
O397   Zn400   1.904   .     S
O398   Zn399   1.904   .     S
C401   C422    1.402   .     S
C401   O443    1.289   .     A
C402   C404    1.456   .     S
C402   O448    1.302   .     A
C402   O346    1.289   1_655 S
C403   C409    1.388   .     A
C403   C407    1.411   .     A
C403   C424    1.457   .     S
C404   C408    1.411   .     A
C404   C410    1.388   .     A
C405   C414    1.401   .     A
C405   C407    1.393   .     A
C406   C408    1.393   .     A
C406   C415    1.401   .     A
C406   H333    1.084   1_655 S
C408   I337    2.127   1_655 S
C409   C411    1.394   .     A
C409   H431    1.075   .     S
C410   H430    1.076   .     S
C410   C413    1.394   .     A
C411   C416    1.420   .     A
C411   C414    1.417   .     A
C412   O444    1.289   .     A
C412   C423    1.402   .     S
C412   O342    1.275   1_655 S
C413   C417    1.420   .     A
C413   C415    1.417   .     A
C414   C870    1.386   .     S
C415   C871    1.386   1_554 S
C416   C419    1.420   .     A
C416   C867    1.420   .     S
C417   C418    1.419   .     A
C417   C866    1.420   1_554 S
C418   C420    1.383   .     A
C418   H434    1.075   .     S
C419   H435    1.075   .     S
C419   C421    1.383   .     A
C420   H425    1.085   .     S
C420   C864    1.386   1_554 S
C421   H429    1.085   .     S
C421   C865    1.386   .     S
C422   C73     1.340   1_565 S
C422   H136    1.088   1_565 S
C423   C172    1.340   1_655 S
C424   O447    1.302   .     A
H426   C123    1.088   1_565 S
H427   N439    1.029   .     S
H428   N440    1.029   .     S
H432   C305    1.084   1_655 S
I438   C307    2.127   1_655 S
N439   Zn450   2.018   .     S
N439   N440    1.293   .     D
N440   Zn449   2.018   .     S
O441   Zn449   1.948   .     S
O441   C301    1.275   1_655 S
O442   Zn450   1.948   .     S
O443   Zn450   1.978   .     S
O444   Zn449   1.978   .     S
O445   Zn449   1.961   .     S
O445   C324    1.289   1_655 S
O446   Zn450   1.961   .     S
O447   Zn450   1.904   .     S
O448   Zn449   1.904   .     S
C451   C472    1.402   .     S
C451   O493    1.289   .     A
C451   O591    1.275   1_455 S
C452   C454    1.456   .     S
C452   O498    1.302   .     A
C452   O546    1.289   .     S
C453   C459    1.388   .     A
C453   C457    1.411   .     A
C453   C474    1.457   .     S
C454   C458    1.411   .     A
C454   C460    1.388   .     A
C455   C464    1.401   .     A
C455   C457    1.393   .     A
C455   H582    1.084   1_455 S
C456   C458    1.393   .     A
C456   C465    1.401   .     A
C456   H533    1.084   .     S
C457   I588    2.127   1_455 S
C458   I537    2.127   .     S
C459   C461    1.394   .     A
C459   H481    1.075   .     S
C460   H480    1.076   .     S
C460   C463    1.394   .     A
C461   C466    1.420   .     A
C461   C464    1.417   .     A
C462   O494    1.289   .     A
C462   C473    1.402   .     S
C462   O542    1.275   .     S
C463   C467    1.420   .     A
C463   C465    1.417   .     A
C464   C20     1.386   1_556 S
C466   C469    1.420   .     A
C466   C17     1.420   1_556 S
C467   C468    1.419   .     A
C468   C470    1.383   .     A
C468   H484    1.075   .     S
C469   H485    1.075   .     S
C469   C471    1.383   .     A
C470   H475    1.085   .     S
C471   H479    1.085   .     S
C471   C15     1.386   1_556 S
C472   C723    1.340   1_455 S
C472   H636    1.088   .     S
C473   C822    1.340   1_545 S
C473   H776    1.088   1_545 S
C474   O497    1.302   .     A
C474   O595    1.289   1_455 S
H476   C623    1.088   .     S
H477   N489    1.029   .     S
H478   N490    1.029   .     S
H482   C505    1.084   .     S
H483   C556    1.084   1_455 S
H486   C772    1.088   1_545 S
I487   C558    2.127   1_455 S
I488   C507    2.127   .     S
N489   Zn500   2.018   .     S
N489   N490    1.293   .     D
N490   Zn499   2.018   .     S
O491   Zn499   1.948   .     S
O491   C501    1.275   .     S
O492   Zn500   1.948   .     S
O492   C562    1.275   1_455 S
O493   Zn500   1.978   .     S
O494   Zn499   1.978   .     S
O495   Zn499   1.961   .     S
O495   C524    1.289   .     S
O496   Zn500   1.961   .     S
O496   C552    1.289   1_455 S
O497   Zn500   1.904   .     S
O498   Zn499   1.904   .     S
C501   C522    1.402   .     S
C501   O543    1.289   .     A
C502   C504    1.456   .     S
C502   O548    1.302   .     A
C502   O596    1.289   .     S
C503   C509    1.388   .     A
C503   C507    1.411   .     A
C503   C524    1.457   .     S
C504   C508    1.411   .     A
C504   C510    1.388   .     A
C505   C514    1.401   .     A
C505   C507    1.393   .     A
C506   C508    1.393   .     A
C506   C515    1.401   .     A
C506   H583    1.084   .     S
C508   I587    2.127   .     S
C509   C511    1.394   .     A
C509   H531    1.075   .     S
C510   H530    1.076   .     S
C510   C513    1.394   .     A
C511   C516    1.420   .     A
C511   C514    1.417   .     A
C512   O544    1.289   .     A
C512   C523    1.402   .     S
C512   O592    1.275   .     S
C513   C517    1.420   .     A
C513   C515    1.417   .     A
C514   C70     1.386   1_556 S
C516   C519    1.420   .     A
C516   C67     1.420   1_556 S
C517   C518    1.419   .     A
C518   C520    1.383   .     A
C518   H534    1.075   .     S
C519   H535    1.075   .     S
C519   C521    1.383   .     A
C520   H525    1.085   .     S
C521   H529    1.085   .     S
C521   C65     1.386   1_556 S
C522   C623    1.340   .     S
C522   H686    1.088   .     S
C523   C872    1.340   1_545 S
C523   H826    1.088   1_545 S
C524   O547    1.302   .     A
H526   C673    1.088   .     S
H527   N539    1.029   .     S
H528   N540    1.029   .     S
H532   C555    1.084   .     S
H536   C822    1.088   1_545 S
I538   C557    2.127   .     S
N539   Zn550   2.018   .     S
N539   N540    1.293   .     D
N540   Zn549   2.018   .     S
O541   Zn549   1.948   .     S
O541   C551    1.275   .     S
O542   Zn550   1.948   .     S
O543   Zn550   1.978   .     S
O544   Zn549   1.978   .     S
O545   Zn549   1.961   .     S
O545   C574    1.289   .     S
O546   Zn550   1.961   .     S
O547   Zn550   1.904   .     S
O548   Zn549   1.904   .     S
C551   C572    1.402   .     S
C551   O593    1.289   .     A
C552   C554    1.456   .     S
C552   O598    1.302   .     A
C552   O496    1.289   1_655 S
C553   C559    1.388   .     A
C553   C557    1.411   .     A
C553   C574    1.457   .     S
C554   C558    1.411   .     A
C554   C560    1.388   .     A
C555   C564    1.401   .     A
C555   C557    1.393   .     A
C556   C558    1.393   .     A
C556   C565    1.401   .     A
C556   H483    1.084   1_655 S
C558   I487    2.127   1_655 S
C559   C561    1.394   .     A
C559   H581    1.075   .     S
C560   H580    1.076   .     S
C560   C563    1.394   .     A
C561   C566    1.420   .     A
C561   C564    1.417   .     A
C562   O594    1.289   .     A
C562   C573    1.402   .     S
C562   O492    1.275   1_655 S
C563   C567    1.420   .     A
C563   C565    1.417   .     A
C564   C120    1.386   1_556 S
C566   C569    1.420   .     A
C566   C117    1.420   1_556 S
C567   C568    1.419   .     A
C568   C570    1.383   .     A
C568   H584    1.075   .     S
C569   H585    1.075   .     S
C569   C571    1.383   .     A
C570   H575    1.085   .     S
C571   H579    1.085   .     S
C571   C115    1.386   1_556 S
C572   C673    1.340   .     S
C572   H736    1.088   .     S
C573   C772    1.340   1_645 S
C573   H876    1.088   1_545 S
C574   O597    1.302   .     A
H576   C723    1.088   .     S
H577   N589    1.029   .     S
H578   N590    1.029   .     S
H582   C455    1.084   1_655 S
H586   C872    1.088   1_545 S
I588   C457    2.127   1_655 S
N589   Zn600   2.018   .     S
N589   N590    1.293   .     D
N590   Zn599   2.018   .     S
O591   Zn599   1.948   .     S
O591   C451    1.275   1_655 S
O592   Zn600   1.948   .     S
O593   Zn600   1.978   .     S
O594   Zn599   1.978   .     S
O595   Zn599   1.961   .     S
O595   C474    1.289   1_655 S
O596   Zn600   1.961   .     S
O597   Zn600   1.904   .     S
O598   Zn599   1.904   .     S
C601   C622    1.402   .     S
C601   O643    1.289   .     A
C601   O741    1.275   1_455 S
C602   C604    1.456   .     S
C602   O648    1.302   .     A
C602   O696    1.289   .     S
C603   C609    1.388   .     A
C603   C607    1.411   .     A
C603   C624    1.457   .     S
C604   C608    1.411   .     A
C604   C610    1.388   .     A
C605   C614    1.401   .     A
C605   C607    1.393   .     A
C605   H732    1.084   1_455 S
C606   C608    1.393   .     A
C606   C615    1.401   .     A
C606   H683    1.084   .     S
C607   I738    2.127   1_455 S
C608   I687    2.127   .     S
C609   C611    1.394   .     A
C609   H631    1.075   .     S
C610   H630    1.076   .     S
C610   C613    1.394   .     A
C611   C616    1.420   .     A
C611   C614    1.417   .     A
C612   O644    1.289   .     A
C612   C623    1.402   .     S
C612   O692    1.275   .     S
C613   C617    1.420   .     A
C613   C615    1.417   .     A
C614   C170    1.386   1_556 S
C616   C619    1.420   .     A
C616   C167    1.420   1_556 S
C617   C618    1.419   .     A
C618   C620    1.383   .     A
C618   H634    1.075   .     S
C619   H635    1.075   .     S
C619   C621    1.383   .     A
C620   H625    1.085   .     S
C621   H629    1.085   .     S
C621   C165    1.386   1_556 S
C622   C873    1.340   1_455 S
C622   H786    1.088   .     S
C624   O647    1.302   .     A
C624   O745    1.289   1_455 S
H626   C773    1.088   .     S
H627   N639    1.029   .     S
H628   N640    1.029   .     S
H632   C655    1.084   .     S
H633   C706    1.084   1_455 S
I637   C708    2.127   1_455 S
I638   C657    2.127   .     S
N639   Zn650   2.018   .     S
N639   N640    1.293   .     D
N640   Zn649   2.018   .     S
O641   Zn649   1.948   .     S
O641   C651    1.275   .     S
O642   Zn650   1.948   .     S
O642   C712    1.275   1_455 S
O643   Zn650   1.978   .     S
O644   Zn649   1.978   .     S
O645   Zn649   1.961   .     S
O645   C674    1.289   .     S
O646   Zn650   1.961   .     S
O646   C702    1.289   1_455 S
O647   Zn650   1.904   .     S
O648   Zn649   1.904   .     S
C651   C672    1.402   .     S
C651   O693    1.289   .     A
C652   C654    1.456   .     S
C652   O698    1.302   .     A
C652   O746    1.289   .     S
C653   C659    1.388   .     A
C653   C657    1.411   .     A
C653   C674    1.457   .     S
C654   C658    1.411   .     A
C654   C660    1.388   .     A
C655   C664    1.401   .     A
C655   C657    1.393   .     A
C656   C658    1.393   .     A
C656   C665    1.401   .     A
C656   H733    1.084   .     S
C658   I737    2.127   .     S
C659   C661    1.394   .     A
C659   H681    1.075   .     S
C660   H680    1.076   .     S
C660   C663    1.394   .     A
C661   C666    1.420   .     A
C661   C664    1.417   .     A
C662   O694    1.289   .     A
C662   C673    1.402   .     S
C662   O742    1.275   .     S
C663   C667    1.420   .     A
C663   C665    1.417   .     A
C664   C220    1.386   1_556 S
C666   C669    1.420   .     A
C666   C217    1.420   1_556 S
C667   C668    1.419   .     A
C668   C670    1.383   .     A
C668   H684    1.075   .     S
C669   H685    1.075   .     S
C669   C671    1.383   .     A
C670   H675    1.085   .     S
C671   H679    1.085   .     S
C671   C215    1.386   1_556 S
C672   C773    1.340   .     S
C672   H836    1.088   .     S
C674   O697    1.302   .     A
H676   C823    1.088   .     S
H677   N689    1.029   .     S
H678   N690    1.029   .     S
H682   C705    1.084   .     S
I688   C707    2.127   .     S
N689   Zn700   2.018   .     S
N689   N690    1.293   .     D
N690   Zn699   2.018   .     S
O691   Zn699   1.948   .     S
O691   C701    1.275   .     S
O692   Zn700   1.948   .     S
O693   Zn700   1.978   .     S
O694   Zn699   1.978   .     S
O695   Zn699   1.961   .     S
O695   C724    1.289   .     S
O696   Zn700   1.961   .     S
O697   Zn700   1.904   .     S
O698   Zn699   1.904   .     S
C701   C722    1.402   .     S
C701   O743    1.289   .     A
C702   C704    1.456   .     S
C702   O748    1.302   .     A
C702   O646    1.289   1_655 S
C703   C709    1.388   .     A
C703   C707    1.411   .     A
C703   C724    1.457   .     S
C704   C708    1.411   .     A
C704   C710    1.388   .     A
C705   C714    1.401   .     A
C705   C707    1.393   .     A
C706   C708    1.393   .     A
C706   C715    1.401   .     A
C706   H633    1.084   1_655 S
C708   I637    2.127   1_655 S
C709   C711    1.394   .     A
C709   H731    1.075   .     S
C710   H730    1.076   .     S
C710   C713    1.394   .     A
C711   C716    1.420   .     A
C711   C714    1.417   .     A
C712   O744    1.289   .     A
C712   C723    1.402   .     S
C712   O642    1.275   1_655 S
C713   C717    1.420   .     A
C713   C715    1.417   .     A
C714   C270    1.386   1_556 S
C716   C719    1.420   .     A
C716   C267    1.420   1_556 S
C717   C718    1.419   .     A
C718   C720    1.383   .     A
C718   H734    1.075   .     S
C719   H735    1.075   .     S
C719   C721    1.383   .     A
C720   H725    1.085   .     S
C721   H729    1.085   .     S
C721   C265    1.386   1_556 S
C722   C823    1.340   .     S
C722   H886    1.088   .     S
C723   C472    1.340   1_655 S
C724   O747    1.302   .     A
H726   C873    1.088   .     S
H727   N739    1.029   .     S
H728   N740    1.029   .     S
H732   C605    1.084   1_655 S
I738   C607    2.127   1_655 S
N739   Zn750   2.018   .     S
N739   N740    1.293   .     D
N740   Zn749   2.018   .     S
O741   Zn749   1.948   .     S
O741   C601    1.275   1_655 S
O742   Zn750   1.948   .     S
O743   Zn750   1.978   .     S
O744   Zn749   1.978   .     S
O745   Zn749   1.961   .     S
O745   C624    1.289   1_655 S
O746   Zn750   1.961   .     S
O747   Zn750   1.904   .     S
O748   Zn749   1.904   .     S
C751   C772    1.402   .     S
C751   O793    1.289   .     A
C751   O891    1.275   1_455 S
C752   C754    1.456   .     S
C752   O798    1.302   .     A
C752   O846    1.289   .     S
C753   C759    1.388   .     A
C753   C757    1.411   .     A
C753   C774    1.457   .     S
C754   C758    1.411   .     A
C754   C760    1.388   .     A
C755   C764    1.401   .     A
C755   C757    1.393   .     A
C755   H882    1.084   1_455 S
C756   C758    1.393   .     A
C756   C765    1.401   .     A
C756   H833    1.084   .     S
C757   I888    2.127   1_455 S
C758   I837    2.127   .     S
C759   C761    1.394   .     A
C759   H781    1.075   .     S
C760   H780    1.076   .     S
C760   C763    1.394   .     A
C761   C766    1.420   .     A
C761   C764    1.417   .     A
C762   O794    1.289   .     A
C762   C773    1.402   .     S
C762   O842    1.275   .     S
C763   C767    1.420   .     A
C763   C765    1.417   .     A
C764   C320    1.386   1_556 S
C766   C769    1.420   .     A
C766   C317    1.420   1_556 S
C767   C768    1.419   .     A
C768   C770    1.383   .     A
C768   H784    1.075   .     S
C769   H785    1.075   .     S
C769   C771    1.383   .     A
C770   H775    1.085   .     S
C771   H779    1.085   .     S
C771   C315    1.386   1_556 S
C772   C573    1.340   1_465 S
C772   H486    1.088   1_565 S
C774   O797    1.302   .     A
C774   O895    1.289   1_455 S
H776   C473    1.088   1_565 S
H777   N789    1.029   .     S
H778   N790    1.029   .     S
H782   C805    1.084   .     S
H783   C856    1.084   1_455 S
I787   C858    2.127   1_455 S
I788   C807    2.127   .     S
N789   Zn800   2.018   .     S
N789   N790    1.293   .     D
N790   Zn799   2.018   .     S
O791   Zn799   1.948   .     S
O791   C801    1.275   .     S
O792   Zn800   1.948   .     S
O792   C862    1.275   1_455 S
O793   Zn800   1.978   .     S
O794   Zn799   1.978   .     S
O795   Zn799   1.961   .     S
O795   C824    1.289   .     S
O796   Zn800   1.961   .     S
O796   C852    1.289   1_455 S
O797   Zn800   1.904   .     S
O798   Zn799   1.904   .     S
C801   C822    1.402   .     S
C801   O843    1.289   .     A
C802   C804    1.456   .     S
C802   O848    1.302   .     A
C802   O896    1.289   .     S
C803   C809    1.388   .     A
C803   C807    1.411   .     A
C803   C824    1.457   .     S
C804   C808    1.411   .     A
C804   C810    1.388   .     A
C805   C814    1.401   .     A
C805   C807    1.393   .     A
C806   C808    1.393   .     A
C806   C815    1.401   .     A
C806   H883    1.084   .     S
C808   I887    2.127   .     S
C809   C811    1.394   .     A
C809   H831    1.075   .     S
C810   H830    1.076   .     S
C810   C813    1.394   .     A
C811   C816    1.420   .     A
C811   C814    1.417   .     A
C812   O844    1.289   .     A
C812   C823    1.402   .     S
C812   O892    1.275   .     S
C813   C817    1.420   .     A
C813   C815    1.417   .     A
C814   C370    1.386   1_556 S
C816   C819    1.420   .     A
C816   C367    1.420   1_556 S
C817   C818    1.419   .     A
C818   C820    1.383   .     A
C818   H834    1.075   .     S
C819   H835    1.075   .     S
C819   C821    1.383   .     A
C820   H825    1.085   .     S
C821   H829    1.085   .     S
C821   C365    1.386   1_556 S
C822   C473    1.340   1_565 S
C822   H536    1.088   1_565 S
C824   O847    1.302   .     A
H826   C523    1.088   1_565 S
H827   N839    1.029   .     S
H828   N840    1.029   .     S
H832   C855    1.084   .     S
I838   C857    2.127   .     S
N839   Zn850   2.018   .     S
N839   N840    1.293   .     D
N840   Zn849   2.018   .     S
O841   Zn849   1.948   .     S
O841   C851    1.275   .     S
O842   Zn850   1.948   .     S
O843   Zn850   1.978   .     S
O844   Zn849   1.978   .     S
O845   Zn849   1.961   .     S
O845   C874    1.289   .     S
O846   Zn850   1.961   .     S
O847   Zn850   1.904   .     S
O848   Zn849   1.904   .     S
C851   C872    1.402   .     S
C851   O893    1.289   .     A
C852   C854    1.456   .     S
C852   O898    1.302   .     A
C852   O796    1.289   1_655 S
C853   C859    1.388   .     A
C853   C857    1.411   .     A
C853   C874    1.457   .     S
C854   C858    1.411   .     A
C854   C860    1.388   .     A
C855   C864    1.401   .     A
C855   C857    1.393   .     A
C856   C858    1.393   .     A
C856   C865    1.401   .     A
C856   H783    1.084   1_655 S
C858   I787    2.127   1_655 S
C859   C861    1.394   .     A
C859   H881    1.075   .     S
C860   H880    1.076   .     S
C860   C863    1.394   .     A
C861   C866    1.420   .     A
C861   C864    1.417   .     A
C862   O894    1.289   .     A
C862   C873    1.402   .     S
C862   O792    1.275   1_655 S
C863   C867    1.420   .     A
C863   C865    1.417   .     A
C864   C420    1.386   1_556 S
C866   C869    1.420   .     A
C866   C417    1.420   1_556 S
C867   C868    1.419   .     A
C868   C870    1.383   .     A
C868   H884    1.075   .     S
C869   H885    1.075   .     S
C869   C871    1.383   .     A
C870   H875    1.085   .     S
C871   H879    1.085   .     S
C871   C415    1.386   1_556 S
C872   C523    1.340   1_565 S
C872   H586    1.088   1_565 S
C873   C622    1.340   1_655 S
C874   O897    1.302   .     A
H876   C573    1.088   1_565 S
H877   N889    1.029   .     S
H878   N890    1.029   .     S
H882   C755    1.084   1_655 S
I888   C757    2.127   1_655 S
N889   Zn900   2.018   .     S
N889   N890    1.293   .     D
N890   Zn899   2.018   .     S
O891   Zn899   1.948   .     S
O891   C751    1.275   1_655 S
O892   Zn900   1.948   .     S
O893   Zn900   1.978   .     S
O894   Zn899   1.978   .     S
O895   Zn899   1.961   .     S
O895   C774    1.289   1_655 S
O896   Zn900   1.961   .     S
O897   Zn900   1.904   .     S
O898   Zn899   1.904   .     S
