data_str_m3_o10_o16_pcu_sym.8
_audit_creation_date              2020-01-03
_audit_creation_method            'Materials Studio'
_symmetry_space_group_name_H-M    'P1'
_symmetry_Int_Tables_number       1
_symmetry_cell_setting            triclinic
loop_
_symmetry_equiv_pos_as_xyz
  x,y,z
_cell_length_a                    23.5705
_cell_length_b                    25.6925
_cell_length_c                    24.0933
_cell_angle_alpha                 92.6807
_cell_angle_beta                  100.7695
_cell_angle_gamma                 94.2375
loop_
_atom_site_label
_atom_site_type_symbol
_atom_site_fract_x
_atom_site_fract_y
_atom_site_fract_z
_atom_site_U_iso_or_equiv
_atom_site_adp_type
_atom_site_occupancy
C1     C     0.01488   0.26488   0.24871   0.00000  Uiso   1.00
C2     C     0.05416   0.17543   0.41644   0.00000  Uiso   1.00
C3     C     0.02261   0.31949   0.24805   0.00000  Uiso   1.00
C4     C     0.03538   0.16927   0.35532   0.00000  Uiso   1.00
C5     C     0.31088   0.01386   0.25250   0.00000  Uiso   1.00
C6     C     0.31851   0.06846   0.25148   0.00000  Uiso   1.00
C7     C     0.29805   0.16360   0.14481   0.00000  Uiso   1.00
C8     C     0.26683   0.09802   0.00140   0.00000  Uiso   1.00
C9     C     0.27935   0.15624   0.08427   0.00000  Uiso   1.00
C10    C     0.02860   0.21167   0.44662   0.00000  Uiso   1.00
C11    C     0.05628   0.23073   0.00006   0.00000  Uiso   1.00
C12    C     0.13752   0.17717   0.49373   0.00000  Uiso   1.00
C13    C     0.11086   0.21536   0.02384   0.00000  Uiso   1.00
C14    C     0.21256   0.22943   0.34574   0.00000  Uiso   1.00
C15    C     0.11386   0.22060   0.11872   0.00000  Uiso   1.00
C16    C     0.10483   0.15384   0.44199   0.00000  Uiso   1.00
C17    C     0.19392   0.15986   0.01219   0.00000  Uiso   1.00
C18    C     0.21297   0.11734   0.48199   0.00000  Uiso   1.00
C19    C     0.17720   0.09267   0.43438   0.00000  Uiso   1.00
C20    C     0.12358   0.11004   0.41521   0.00000  Uiso   1.00
C21    C     0.23185   0.18164   0.06057   0.00000  Uiso   1.00
C22    C     0.29931   0.11641   0.05362   0.00000  Uiso   1.00
H23    H     0.00391   0.09717   0.07169   0.00000  Uiso   1.00
H24    H     0.06504   0.00335   0.24380   0.00000  Uiso   1.00
H25    H     0.25268   0.25058   0.33793   0.00000  Uiso   1.00
H26    H     0.22139   0.19262   0.36719   0.00000  Uiso   1.00
H27    H     0.19446   0.25511   0.37517   0.00000  Uiso   1.00
H28    H     0.11375   0.17720   0.11809   0.00000  Uiso   1.00
H29    H     0.06944   0.23299   0.11722   0.00000  Uiso   1.00
H30    H     0.14077   0.23675   0.15950   0.00000  Uiso   1.00
H31    H     0.26846   0.33000   0.25680   0.00000  Uiso   1.00
H32    H     0.15660   0.12328   0.20985   0.00000  Uiso   1.00
H33    H     0.19046   0.05938   0.41213   0.00000  Uiso   1.00
H34    H     0.28148   0.06594   0.47843   0.00000  Uiso   1.00
H35    H     0.22519   0.21640   0.08375   0.00000  Uiso   1.00
H36    H     0.32253   0.22814   0.42746   0.00000  Uiso   1.00
H37    H     0.03678   0.26030   0.02202   0.00000  Uiso   1.00
H38    H     0.09646   0.08862   0.37883   0.00000  Uiso   1.00
N39    N     0.14493   0.15223   0.23542   0.00000  Uiso   1.00
N40    N     0.18840   0.18110   0.26457   0.00000  Uiso   1.00
O41    O     0.29769   0.24629   0.25357   0.00000  Uiso   1.00
O42    O     0.13811   0.24107   0.07436   0.00000  Uiso   1.00
O43    O     0.05742   0.23704   0.24423   0.00000  Uiso   1.00
O44    O     0.31490   0.17358   0.33380   0.00000  Uiso   1.00
O45    O     0.07463   0.16433   0.32446   0.00000  Uiso   1.00
O46    O     0.27592   0.09629   0.25576   0.00000  Uiso   1.00
O47    O     0.03565   0.08704   0.24642   0.00000  Uiso   1.00
O48    O     0.25870   0.16901   0.17554   0.00000  Uiso   1.00
O49    O     0.01843   0.15976   0.16620   0.00000  Uiso   1.00
O50    O     0.17148   0.22001   0.29549   0.00000  Uiso   1.00
Zn51   Zn    0.27119   0.17284   0.25623   0.00000  Uiso   1.00
Zn52   Zn    0.06214   0.16049   0.24376   0.00000  Uiso   1.00
C53    C     0.34821   0.26488   0.24871   0.00000  Uiso   1.00
C54    C     0.38750   0.17543   0.41644   0.00000  Uiso   1.00
C55    C     0.35594   0.31949   0.24805   0.00000  Uiso   1.00
C56    C     0.36871   0.16927   0.35532   0.00000  Uiso   1.00
C57    C     0.64422   0.01386   0.25250   0.00000  Uiso   1.00
C58    C     0.65184   0.06846   0.25148   0.00000  Uiso   1.00
C59    C     0.63138   0.16360   0.14481   0.00000  Uiso   1.00
C60    C     0.60016   0.09802   0.00140   0.00000  Uiso   1.00
C61    C     0.61268   0.15624   0.08427   0.00000  Uiso   1.00
C62    C     0.36193   0.21167   0.44662   0.00000  Uiso   1.00
C63    C     0.38962   0.23073   0.00006   0.00000  Uiso   1.00
C64    C     0.47085   0.17717   0.49373   0.00000  Uiso   1.00
C65    C     0.44420   0.21536   0.02384   0.00000  Uiso   1.00
C66    C     0.54589   0.22943   0.34574   0.00000  Uiso   1.00
C67    C     0.44719   0.22060   0.11872   0.00000  Uiso   1.00
C68    C     0.43817   0.15384   0.44199   0.00000  Uiso   1.00
C69    C     0.52725   0.15986   0.01219   0.00000  Uiso   1.00
C70    C     0.54630   0.11734   0.48199   0.00000  Uiso   1.00
C71    C     0.51053   0.09267   0.43438   0.00000  Uiso   1.00
C72    C     0.45691   0.11004   0.41521   0.00000  Uiso   1.00
C73    C     0.56519   0.18164   0.06057   0.00000  Uiso   1.00
C74    C     0.63264   0.11641   0.05362   0.00000  Uiso   1.00
H75    H     0.33725   0.09717   0.07169   0.00000  Uiso   1.00
H76    H     0.39838   0.00335   0.24380   0.00000  Uiso   1.00
H77    H     0.58601   0.25058   0.33793   0.00000  Uiso   1.00
H78    H     0.55473   0.19262   0.36719   0.00000  Uiso   1.00
H79    H     0.52780   0.25511   0.37517   0.00000  Uiso   1.00
H80    H     0.44708   0.17720   0.11809   0.00000  Uiso   1.00
H81    H     0.40278   0.23299   0.11722   0.00000  Uiso   1.00
H82    H     0.47411   0.23675   0.15950   0.00000  Uiso   1.00
H83    H     0.60180   0.33000   0.25680   0.00000  Uiso   1.00
H84    H     0.48994   0.12328   0.20985   0.00000  Uiso   1.00
H85    H     0.52379   0.05938   0.41213   0.00000  Uiso   1.00
H86    H     0.61481   0.06594   0.47843   0.00000  Uiso   1.00
H87    H     0.55853   0.21640   0.08375   0.00000  Uiso   1.00
H88    H     0.65586   0.22814   0.42746   0.00000  Uiso   1.00
H89    H     0.37012   0.26030   0.02202   0.00000  Uiso   1.00
H90    H     0.42980   0.08862   0.37883   0.00000  Uiso   1.00
N91    N     0.47827   0.15223   0.23542   0.00000  Uiso   1.00
N92    N     0.52173   0.18110   0.26457   0.00000  Uiso   1.00
O93    O     0.63102   0.24629   0.25357   0.00000  Uiso   1.00
O94    O     0.47144   0.24107   0.07436   0.00000  Uiso   1.00
O95    O     0.39075   0.23704   0.24423   0.00000  Uiso   1.00
O96    O     0.64823   0.17358   0.33380   0.00000  Uiso   1.00
O97    O     0.40796   0.16433   0.32446   0.00000  Uiso   1.00
O98    O     0.60925   0.09629   0.25576   0.00000  Uiso   1.00
O99    O     0.36898   0.08704   0.24642   0.00000  Uiso   1.00
O100   O     0.59204   0.16901   0.17554   0.00000  Uiso   1.00
O101   O     0.35177   0.15976   0.16620   0.00000  Uiso   1.00
O102   O     0.50481   0.22001   0.29549   0.00000  Uiso   1.00
Zn103  Zn    0.60453   0.17284   0.25623   0.00000  Uiso   1.00
Zn104  Zn    0.39547   0.16049   0.24376   0.00000  Uiso   1.00
C105   C     0.68155   0.26488   0.24871   0.00000  Uiso   1.00
C106   C     0.72083   0.17543   0.41644   0.00000  Uiso   1.00
C107   C     0.68928   0.31949   0.24805   0.00000  Uiso   1.00
C108   C     0.70204   0.16927   0.35532   0.00000  Uiso   1.00
C109   C     0.97755   0.01386   0.25250   0.00000  Uiso   1.00
C110   C     0.98518   0.06846   0.25148   0.00000  Uiso   1.00
C111   C     0.96472   0.16360   0.14481   0.00000  Uiso   1.00
C112   C     0.93350   0.09802   0.00140   0.00000  Uiso   1.00
C113   C     0.94601   0.15624   0.08427   0.00000  Uiso   1.00
C114   C     0.69527   0.21167   0.44662   0.00000  Uiso   1.00
C115   C     0.72295   0.23073   0.00006   0.00000  Uiso   1.00
C116   C     0.80418   0.17717   0.49373   0.00000  Uiso   1.00
C117   C     0.77753   0.21536   0.02384   0.00000  Uiso   1.00
C118   C     0.87923   0.22943   0.34574   0.00000  Uiso   1.00
C119   C     0.78052   0.22060   0.11872   0.00000  Uiso   1.00
C120   C     0.77150   0.15384   0.44199   0.00000  Uiso   1.00
C121   C     0.86059   0.15986   0.01219   0.00000  Uiso   1.00
C122   C     0.87963   0.11734   0.48199   0.00000  Uiso   1.00
C123   C     0.84386   0.09267   0.43438   0.00000  Uiso   1.00
C124   C     0.79024   0.11004   0.41521   0.00000  Uiso   1.00
C125   C     0.89852   0.18164   0.06057   0.00000  Uiso   1.00
C126   C     0.96597   0.11641   0.05362   0.00000  Uiso   1.00
H127   H     0.67058   0.09717   0.07169   0.00000  Uiso   1.00
H128   H     0.73171   0.00335   0.24380   0.00000  Uiso   1.00
H129   H     0.91934   0.25058   0.33793   0.00000  Uiso   1.00
H130   H     0.88806   0.19262   0.36719   0.00000  Uiso   1.00
H131   H     0.86113   0.25511   0.37517   0.00000  Uiso   1.00
H132   H     0.78041   0.17720   0.11809   0.00000  Uiso   1.00
H133   H     0.73611   0.23299   0.11722   0.00000  Uiso   1.00
H134   H     0.80744   0.23675   0.15950   0.00000  Uiso   1.00
H135   H     0.93513   0.33000   0.25680   0.00000  Uiso   1.00
H136   H     0.82327   0.12328   0.20985   0.00000  Uiso   1.00
H137   H     0.85713   0.05938   0.41213   0.00000  Uiso   1.00
H138   H     0.94814   0.06594   0.47843   0.00000  Uiso   1.00
H139   H     0.89186   0.21640   0.08375   0.00000  Uiso   1.00
H140   H     0.98920   0.22814   0.42746   0.00000  Uiso   1.00
H141   H     0.70345   0.26030   0.02202   0.00000  Uiso   1.00
H142   H     0.76313   0.08862   0.37883   0.00000  Uiso   1.00
N143   N     0.81160   0.15223   0.23542   0.00000  Uiso   1.00
N144   N     0.85507   0.18110   0.26457   0.00000  Uiso   1.00
O145   O     0.96435   0.24629   0.25357   0.00000  Uiso   1.00
O146   O     0.80478   0.24107   0.07436   0.00000  Uiso   1.00
O147   O     0.72408   0.23704   0.24423   0.00000  Uiso   1.00
O148   O     0.98157   0.17358   0.33380   0.00000  Uiso   1.00
O149   O     0.74130   0.16433   0.32446   0.00000  Uiso   1.00
O150   O     0.94258   0.09629   0.25576   0.00000  Uiso   1.00
O151   O     0.70231   0.08704   0.24642   0.00000  Uiso   1.00
O152   O     0.92537   0.16901   0.17554   0.00000  Uiso   1.00
O153   O     0.68510   0.15976   0.16620   0.00000  Uiso   1.00
O154   O     0.83814   0.22001   0.29549   0.00000  Uiso   1.00
Zn155  Zn    0.93786   0.17284   0.25623   0.00000  Uiso   1.00
Zn156  Zn    0.72881   0.16049   0.24376   0.00000  Uiso   1.00
C157   C     0.01488   0.59821   0.24871   0.00000  Uiso   1.00
C158   C     0.05416   0.50876   0.41644   0.00000  Uiso   1.00
C159   C     0.02261   0.65282   0.24805   0.00000  Uiso   1.00
C160   C     0.03538   0.50261   0.35532   0.00000  Uiso   1.00
C161   C     0.31088   0.34719   0.25250   0.00000  Uiso   1.00
C162   C     0.31851   0.40179   0.25148   0.00000  Uiso   1.00
C163   C     0.29805   0.49693   0.14481   0.00000  Uiso   1.00
C164   C     0.26683   0.43135   0.00140   0.00000  Uiso   1.00
C165   C     0.27935   0.48958   0.08427   0.00000  Uiso   1.00
C166   C     0.02860   0.54500   0.44662   0.00000  Uiso   1.00
C167   C     0.05628   0.56406   0.00006   0.00000  Uiso   1.00
C168   C     0.13752   0.51051   0.49373   0.00000  Uiso   1.00
C169   C     0.11086   0.54870   0.02384   0.00000  Uiso   1.00
C170   C     0.21256   0.56277   0.34574   0.00000  Uiso   1.00
C171   C     0.11386   0.55394   0.11872   0.00000  Uiso   1.00
C172   C     0.10483   0.48717   0.44199   0.00000  Uiso   1.00
C173   C     0.19392   0.49319   0.01219   0.00000  Uiso   1.00
C174   C     0.21297   0.45067   0.48199   0.00000  Uiso   1.00
C175   C     0.17720   0.42600   0.43438   0.00000  Uiso   1.00
C176   C     0.12358   0.44337   0.41521   0.00000  Uiso   1.00
C177   C     0.23185   0.51498   0.06057   0.00000  Uiso   1.00
C178   C     0.29931   0.44975   0.05362   0.00000  Uiso   1.00
H179   H     0.00391   0.43050   0.07169   0.00000  Uiso   1.00
H180   H     0.06504   0.33668   0.24380   0.00000  Uiso   1.00
H181   H     0.25268   0.58391   0.33793   0.00000  Uiso   1.00
H182   H     0.22139   0.52596   0.36719   0.00000  Uiso   1.00
H183   H     0.19446   0.58845   0.37517   0.00000  Uiso   1.00
H184   H     0.11375   0.51054   0.11809   0.00000  Uiso   1.00
H185   H     0.06944   0.56632   0.11722   0.00000  Uiso   1.00
H186   H     0.14077   0.57008   0.15950   0.00000  Uiso   1.00
H187   H     0.26846   0.66333   0.25680   0.00000  Uiso   1.00
H188   H     0.15660   0.45661   0.20985   0.00000  Uiso   1.00
H189   H     0.19046   0.39271   0.41213   0.00000  Uiso   1.00
H190   H     0.28148   0.39928   0.47843   0.00000  Uiso   1.00
H191   H     0.22519   0.54973   0.08375   0.00000  Uiso   1.00
H192   H     0.32253   0.56148   0.42746   0.00000  Uiso   1.00
H193   H     0.03678   0.59363   0.02202   0.00000  Uiso   1.00
H194   H     0.09646   0.42195   0.37883   0.00000  Uiso   1.00
N195   N     0.14493   0.48556   0.23542   0.00000  Uiso   1.00
N196   N     0.18840   0.51444   0.26457   0.00000  Uiso   1.00
O197   O     0.29769   0.57963   0.25357   0.00000  Uiso   1.00
O198   O     0.13811   0.57440   0.07436   0.00000  Uiso   1.00
O199   O     0.05742   0.57038   0.24423   0.00000  Uiso   1.00
O200   O     0.31490   0.50691   0.33380   0.00000  Uiso   1.00
O201   O     0.07463   0.49766   0.32446   0.00000  Uiso   1.00
O202   O     0.27592   0.42962   0.25576   0.00000  Uiso   1.00
O203   O     0.03565   0.42037   0.24642   0.00000  Uiso   1.00
O204   O     0.25870   0.50234   0.17554   0.00000  Uiso   1.00
O205   O     0.01843   0.49309   0.16620   0.00000  Uiso   1.00
O206   O     0.17148   0.55335   0.29549   0.00000  Uiso   1.00
Zn207  Zn    0.27119   0.50618   0.25623   0.00000  Uiso   1.00
Zn208  Zn    0.06214   0.49382   0.24376   0.00000  Uiso   1.00
C209   C     0.34821   0.59821   0.24871   0.00000  Uiso   1.00
C210   C     0.38750   0.50876   0.41644   0.00000  Uiso   1.00
C211   C     0.35594   0.65282   0.24805   0.00000  Uiso   1.00
C212   C     0.36871   0.50261   0.35532   0.00000  Uiso   1.00
C213   C     0.64422   0.34719   0.25250   0.00000  Uiso   1.00
C214   C     0.65184   0.40179   0.25148   0.00000  Uiso   1.00
C215   C     0.63138   0.49693   0.14481   0.00000  Uiso   1.00
C216   C     0.60016   0.43135   0.00140   0.00000  Uiso   1.00
C217   C     0.61268   0.48958   0.08427   0.00000  Uiso   1.00
C218   C     0.36193   0.54500   0.44662   0.00000  Uiso   1.00
C219   C     0.38962   0.56406   0.00006   0.00000  Uiso   1.00
C220   C     0.47085   0.51051   0.49373   0.00000  Uiso   1.00
C221   C     0.44420   0.54870   0.02384   0.00000  Uiso   1.00
C222   C     0.54589   0.56277   0.34574   0.00000  Uiso   1.00
C223   C     0.44719   0.55394   0.11872   0.00000  Uiso   1.00
C224   C     0.43817   0.48717   0.44199   0.00000  Uiso   1.00
C225   C     0.52725   0.49319   0.01219   0.00000  Uiso   1.00
C226   C     0.54630   0.45067   0.48199   0.00000  Uiso   1.00
C227   C     0.51053   0.42600   0.43438   0.00000  Uiso   1.00
C228   C     0.45691   0.44337   0.41521   0.00000  Uiso   1.00
C229   C     0.56519   0.51498   0.06057   0.00000  Uiso   1.00
C230   C     0.63264   0.44975   0.05362   0.00000  Uiso   1.00
H231   H     0.33725   0.43050   0.07169   0.00000  Uiso   1.00
H232   H     0.39838   0.33668   0.24380   0.00000  Uiso   1.00
H233   H     0.58601   0.58391   0.33793   0.00000  Uiso   1.00
H234   H     0.55473   0.52596   0.36719   0.00000  Uiso   1.00
H235   H     0.52780   0.58845   0.37517   0.00000  Uiso   1.00
H236   H     0.44708   0.51054   0.11809   0.00000  Uiso   1.00
H237   H     0.40278   0.56632   0.11722   0.00000  Uiso   1.00
H238   H     0.47411   0.57008   0.15950   0.00000  Uiso   1.00
H239   H     0.60180   0.66333   0.25680   0.00000  Uiso   1.00
H240   H     0.48994   0.45661   0.20985   0.00000  Uiso   1.00
H241   H     0.52379   0.39271   0.41213   0.00000  Uiso   1.00
H242   H     0.61481   0.39928   0.47843   0.00000  Uiso   1.00
H243   H     0.55853   0.54973   0.08375   0.00000  Uiso   1.00
H244   H     0.65586   0.56148   0.42746   0.00000  Uiso   1.00
H245   H     0.37012   0.59363   0.02202   0.00000  Uiso   1.00
H246   H     0.42980   0.42195   0.37883   0.00000  Uiso   1.00
N247   N     0.47827   0.48556   0.23542   0.00000  Uiso   1.00
N248   N     0.52173   0.51444   0.26457   0.00000  Uiso   1.00
O249   O     0.63102   0.57963   0.25357   0.00000  Uiso   1.00
O250   O     0.47144   0.57440   0.07436   0.00000  Uiso   1.00
O251   O     0.39075   0.57038   0.24423   0.00000  Uiso   1.00
O252   O     0.64823   0.50691   0.33380   0.00000  Uiso   1.00
O253   O     0.40796   0.49766   0.32446   0.00000  Uiso   1.00
O254   O     0.60925   0.42962   0.25576   0.00000  Uiso   1.00
O255   O     0.36898   0.42037   0.24642   0.00000  Uiso   1.00
O256   O     0.59204   0.50234   0.17554   0.00000  Uiso   1.00
O257   O     0.35177   0.49309   0.16620   0.00000  Uiso   1.00
O258   O     0.50481   0.55335   0.29549   0.00000  Uiso   1.00
Zn259  Zn    0.60453   0.50618   0.25623   0.00000  Uiso   1.00
Zn260  Zn    0.39547   0.49382   0.24376   0.00000  Uiso   1.00
C261   C     0.68155   0.59821   0.24871   0.00000  Uiso   1.00
C262   C     0.72083   0.50876   0.41644   0.00000  Uiso   1.00
C263   C     0.68928   0.65282   0.24805   0.00000  Uiso   1.00
C264   C     0.70204   0.50261   0.35532   0.00000  Uiso   1.00
C265   C     0.97755   0.34719   0.25250   0.00000  Uiso   1.00
C266   C     0.98518   0.40179   0.25148   0.00000  Uiso   1.00
C267   C     0.96472   0.49693   0.14481   0.00000  Uiso   1.00
C268   C     0.93350   0.43135   0.00140   0.00000  Uiso   1.00
C269   C     0.94601   0.48958   0.08427   0.00000  Uiso   1.00
C270   C     0.69527   0.54500   0.44662   0.00000  Uiso   1.00
C271   C     0.72295   0.56406   0.00006   0.00000  Uiso   1.00
C272   C     0.80418   0.51051   0.49373   0.00000  Uiso   1.00
C273   C     0.77753   0.54870   0.02384   0.00000  Uiso   1.00
C274   C     0.87923   0.56277   0.34574   0.00000  Uiso   1.00
C275   C     0.78052   0.55394   0.11872   0.00000  Uiso   1.00
C276   C     0.77150   0.48717   0.44199   0.00000  Uiso   1.00
C277   C     0.86059   0.49319   0.01219   0.00000  Uiso   1.00
C278   C     0.87963   0.45067   0.48199   0.00000  Uiso   1.00
C279   C     0.84386   0.42600   0.43438   0.00000  Uiso   1.00
C280   C     0.79024   0.44337   0.41521   0.00000  Uiso   1.00
C281   C     0.89852   0.51498   0.06057   0.00000  Uiso   1.00
C282   C     0.96597   0.44975   0.05362   0.00000  Uiso   1.00
H283   H     0.67058   0.43050   0.07169   0.00000  Uiso   1.00
H284   H     0.73171   0.33668   0.24380   0.00000  Uiso   1.00
H285   H     0.91934   0.58391   0.33793   0.00000  Uiso   1.00
H286   H     0.88806   0.52596   0.36719   0.00000  Uiso   1.00
H287   H     0.86113   0.58845   0.37517   0.00000  Uiso   1.00
H288   H     0.78041   0.51054   0.11809   0.00000  Uiso   1.00
H289   H     0.73611   0.56632   0.11722   0.00000  Uiso   1.00
H290   H     0.80744   0.57008   0.15950   0.00000  Uiso   1.00
H291   H     0.93513   0.66333   0.25680   0.00000  Uiso   1.00
H292   H     0.82327   0.45661   0.20985   0.00000  Uiso   1.00
H293   H     0.85713   0.39271   0.41213   0.00000  Uiso   1.00
H294   H     0.94814   0.39928   0.47843   0.00000  Uiso   1.00
H295   H     0.89186   0.54973   0.08375   0.00000  Uiso   1.00
H296   H     0.98920   0.56148   0.42746   0.00000  Uiso   1.00
H297   H     0.70345   0.59363   0.02202   0.00000  Uiso   1.00
H298   H     0.76313   0.42195   0.37883   0.00000  Uiso   1.00
N299   N     0.81160   0.48556   0.23542   0.00000  Uiso   1.00
N300   N     0.85507   0.51444   0.26457   0.00000  Uiso   1.00
O301   O     0.96435   0.57963   0.25357   0.00000  Uiso   1.00
O302   O     0.80478   0.57440   0.07436   0.00000  Uiso   1.00
O303   O     0.72408   0.57038   0.24423   0.00000  Uiso   1.00
O304   O     0.98157   0.50691   0.33380   0.00000  Uiso   1.00
O305   O     0.74130   0.49766   0.32446   0.00000  Uiso   1.00
O306   O     0.94258   0.42962   0.25576   0.00000  Uiso   1.00
O307   O     0.70231   0.42037   0.24642   0.00000  Uiso   1.00
O308   O     0.92537   0.50234   0.17554   0.00000  Uiso   1.00
O309   O     0.68510   0.49309   0.16620   0.00000  Uiso   1.00
O310   O     0.83814   0.55335   0.29549   0.00000  Uiso   1.00
Zn311  Zn    0.93786   0.50618   0.25623   0.00000  Uiso   1.00
Zn312  Zn    0.72881   0.49382   0.24376   0.00000  Uiso   1.00
C313   C     0.01488   0.93155   0.24871   0.00000  Uiso   1.00
C314   C     0.05416   0.84209   0.41644   0.00000  Uiso   1.00
C315   C     0.02261   0.98616   0.24805   0.00000  Uiso   1.00
C316   C     0.03538   0.83594   0.35532   0.00000  Uiso   1.00
C317   C     0.31088   0.68053   0.25250   0.00000  Uiso   1.00
C318   C     0.31851   0.73512   0.25148   0.00000  Uiso   1.00
C319   C     0.29805   0.83026   0.14481   0.00000  Uiso   1.00
C320   C     0.26683   0.76468   0.00140   0.00000  Uiso   1.00
C321   C     0.27935   0.82291   0.08427   0.00000  Uiso   1.00
C322   C     0.02860   0.87834   0.44662   0.00000  Uiso   1.00
C323   C     0.05628   0.89740   0.00006   0.00000  Uiso   1.00
C324   C     0.13752   0.84384   0.49373   0.00000  Uiso   1.00
C325   C     0.11086   0.88203   0.02384   0.00000  Uiso   1.00
C326   C     0.21256   0.89610   0.34574   0.00000  Uiso   1.00
C327   C     0.11386   0.88727   0.11872   0.00000  Uiso   1.00
C328   C     0.10483   0.82051   0.44199   0.00000  Uiso   1.00
C329   C     0.19392   0.82653   0.01219   0.00000  Uiso   1.00
C330   C     0.21297   0.78401   0.48199   0.00000  Uiso   1.00
C331   C     0.17720   0.75933   0.43438   0.00000  Uiso   1.00
C332   C     0.12358   0.77670   0.41521   0.00000  Uiso   1.00
C333   C     0.23185   0.84831   0.06057   0.00000  Uiso   1.00
C334   C     0.29931   0.78308   0.05362   0.00000  Uiso   1.00
H335   H     0.00391   0.76383   0.07169   0.00000  Uiso   1.00
H336   H     0.06504   0.67002   0.24380   0.00000  Uiso   1.00
H337   H     0.25268   0.91725   0.33793   0.00000  Uiso   1.00
H338   H     0.22139   0.85929   0.36719   0.00000  Uiso   1.00
H339   H     0.19446   0.92178   0.37517   0.00000  Uiso   1.00
H340   H     0.11375   0.84387   0.11809   0.00000  Uiso   1.00
H341   H     0.06944   0.89965   0.11722   0.00000  Uiso   1.00
H342   H     0.14077   0.90341   0.15950   0.00000  Uiso   1.00
H343   H     0.26846   0.99666   0.25680   0.00000  Uiso   1.00
H344   H     0.15660   0.78994   0.20985   0.00000  Uiso   1.00
H345   H     0.19046   0.72604   0.41213   0.00000  Uiso   1.00
H346   H     0.28148   0.73261   0.47843   0.00000  Uiso   1.00
H347   H     0.22519   0.88307   0.08375   0.00000  Uiso   1.00
H348   H     0.32253   0.89481   0.42746   0.00000  Uiso   1.00
H349   H     0.03678   0.92697   0.02202   0.00000  Uiso   1.00
H350   H     0.09646   0.75529   0.37883   0.00000  Uiso   1.00
N351   N     0.14493   0.81890   0.23542   0.00000  Uiso   1.00
N352   N     0.18840   0.84777   0.26457   0.00000  Uiso   1.00
O353   O     0.29769   0.91296   0.25357   0.00000  Uiso   1.00
O354   O     0.13811   0.90774   0.07436   0.00000  Uiso   1.00
O355   O     0.05742   0.90371   0.24423   0.00000  Uiso   1.00
O356   O     0.31490   0.84024   0.33380   0.00000  Uiso   1.00
O357   O     0.07463   0.83099   0.32446   0.00000  Uiso   1.00
O358   O     0.27592   0.76296   0.25576   0.00000  Uiso   1.00
O359   O     0.03565   0.75371   0.24642   0.00000  Uiso   1.00
O360   O     0.25870   0.83567   0.17554   0.00000  Uiso   1.00
O361   O     0.01843   0.82642   0.16620   0.00000  Uiso   1.00
O362   O     0.17148   0.88668   0.29549   0.00000  Uiso   1.00
Zn363  Zn    0.27119   0.83951   0.25623   0.00000  Uiso   1.00
Zn364  Zn    0.06214   0.82716   0.24376   0.00000  Uiso   1.00
C365   C     0.34821   0.93155   0.24871   0.00000  Uiso   1.00
C366   C     0.38750   0.84209   0.41644   0.00000  Uiso   1.00
C367   C     0.35594   0.98616   0.24805   0.00000  Uiso   1.00
C368   C     0.36871   0.83594   0.35532   0.00000  Uiso   1.00
C369   C     0.64422   0.68053   0.25250   0.00000  Uiso   1.00
C370   C     0.65184   0.73512   0.25148   0.00000  Uiso   1.00
C371   C     0.63138   0.83026   0.14481   0.00000  Uiso   1.00
C372   C     0.60016   0.76468   0.00140   0.00000  Uiso   1.00
C373   C     0.61268   0.82291   0.08427   0.00000  Uiso   1.00
C374   C     0.36193   0.87834   0.44662   0.00000  Uiso   1.00
C375   C     0.38962   0.89740   0.00006   0.00000  Uiso   1.00
C376   C     0.47085   0.84384   0.49373   0.00000  Uiso   1.00
C377   C     0.44420   0.88203   0.02384   0.00000  Uiso   1.00
C378   C     0.54589   0.89610   0.34574   0.00000  Uiso   1.00
C379   C     0.44719   0.88727   0.11872   0.00000  Uiso   1.00
C380   C     0.43817   0.82051   0.44199   0.00000  Uiso   1.00
C381   C     0.52725   0.82653   0.01219   0.00000  Uiso   1.00
C382   C     0.54630   0.78401   0.48199   0.00000  Uiso   1.00
C383   C     0.51053   0.75933   0.43438   0.00000  Uiso   1.00
C384   C     0.45691   0.77670   0.41521   0.00000  Uiso   1.00
C385   C     0.56519   0.84831   0.06057   0.00000  Uiso   1.00
C386   C     0.63264   0.78308   0.05362   0.00000  Uiso   1.00
H387   H     0.33725   0.76383   0.07169   0.00000  Uiso   1.00
H388   H     0.39838   0.67002   0.24380   0.00000  Uiso   1.00
H389   H     0.58601   0.91725   0.33793   0.00000  Uiso   1.00
H390   H     0.55473   0.85929   0.36719   0.00000  Uiso   1.00
H391   H     0.52780   0.92178   0.37517   0.00000  Uiso   1.00
H392   H     0.44708   0.84387   0.11809   0.00000  Uiso   1.00
H393   H     0.40278   0.89965   0.11722   0.00000  Uiso   1.00
H394   H     0.47411   0.90341   0.15950   0.00000  Uiso   1.00
H395   H     0.60180   0.99666   0.25680   0.00000  Uiso   1.00
H396   H     0.48994   0.78994   0.20985   0.00000  Uiso   1.00
H397   H     0.52379   0.72604   0.41213   0.00000  Uiso   1.00
H398   H     0.61481   0.73261   0.47843   0.00000  Uiso   1.00
H399   H     0.55853   0.88307   0.08375   0.00000  Uiso   1.00
H400   H     0.65586   0.89481   0.42746   0.00000  Uiso   1.00
H401   H     0.37012   0.92697   0.02202   0.00000  Uiso   1.00
H402   H     0.42980   0.75529   0.37883   0.00000  Uiso   1.00
N403   N     0.47827   0.81890   0.23542   0.00000  Uiso   1.00
N404   N     0.52173   0.84777   0.26457   0.00000  Uiso   1.00
O405   O     0.63102   0.91296   0.25357   0.00000  Uiso   1.00
O406   O     0.47144   0.90774   0.07436   0.00000  Uiso   1.00
O407   O     0.39075   0.90371   0.24423   0.00000  Uiso   1.00
O408   O     0.64823   0.84024   0.33380   0.00000  Uiso   1.00
O409   O     0.40796   0.83099   0.32446   0.00000  Uiso   1.00
O410   O     0.60925   0.76296   0.25576   0.00000  Uiso   1.00
O411   O     0.36898   0.75371   0.24642   0.00000  Uiso   1.00
O412   O     0.59204   0.83567   0.17554   0.00000  Uiso   1.00
O413   O     0.35177   0.82642   0.16620   0.00000  Uiso   1.00
O414   O     0.50481   0.88668   0.29549   0.00000  Uiso   1.00
Zn415  Zn    0.60453   0.83951   0.25623   0.00000  Uiso   1.00
Zn416  Zn    0.39547   0.82716   0.24376   0.00000  Uiso   1.00
C417   C     0.68155   0.93155   0.24871   0.00000  Uiso   1.00
C418   C     0.72083   0.84209   0.41644   0.00000  Uiso   1.00
C419   C     0.68928   0.98616   0.24805   0.00000  Uiso   1.00
C420   C     0.70204   0.83594   0.35532   0.00000  Uiso   1.00
C421   C     0.97755   0.68053   0.25250   0.00000  Uiso   1.00
C422   C     0.98518   0.73512   0.25148   0.00000  Uiso   1.00
C423   C     0.96472   0.83026   0.14481   0.00000  Uiso   1.00
C424   C     0.93350   0.76468   0.00140   0.00000  Uiso   1.00
C425   C     0.94601   0.82291   0.08427   0.00000  Uiso   1.00
C426   C     0.69527   0.87834   0.44662   0.00000  Uiso   1.00
C427   C     0.72295   0.89740   0.00006   0.00000  Uiso   1.00
C428   C     0.80418   0.84384   0.49373   0.00000  Uiso   1.00
C429   C     0.77753   0.88203   0.02384   0.00000  Uiso   1.00
C430   C     0.87923   0.89610   0.34574   0.00000  Uiso   1.00
C431   C     0.78052   0.88727   0.11872   0.00000  Uiso   1.00
C432   C     0.77150   0.82051   0.44199   0.00000  Uiso   1.00
C433   C     0.86059   0.82653   0.01219   0.00000  Uiso   1.00
C434   C     0.87963   0.78401   0.48199   0.00000  Uiso   1.00
C435   C     0.84386   0.75933   0.43438   0.00000  Uiso   1.00
C436   C     0.79024   0.77670   0.41521   0.00000  Uiso   1.00
C437   C     0.89852   0.84831   0.06057   0.00000  Uiso   1.00
C438   C     0.96597   0.78308   0.05362   0.00000  Uiso   1.00
H439   H     0.67058   0.76383   0.07169   0.00000  Uiso   1.00
H440   H     0.73171   0.67002   0.24380   0.00000  Uiso   1.00
H441   H     0.91934   0.91725   0.33793   0.00000  Uiso   1.00
H442   H     0.88806   0.85929   0.36719   0.00000  Uiso   1.00
H443   H     0.86113   0.92178   0.37517   0.00000  Uiso   1.00
H444   H     0.78041   0.84387   0.11809   0.00000  Uiso   1.00
H445   H     0.73611   0.89965   0.11722   0.00000  Uiso   1.00
H446   H     0.80744   0.90341   0.15950   0.00000  Uiso   1.00
H447   H     0.93513   0.99666   0.25680   0.00000  Uiso   1.00
H448   H     0.82327   0.78994   0.20985   0.00000  Uiso   1.00
H449   H     0.85713   0.72604   0.41213   0.00000  Uiso   1.00
H450   H     0.94814   0.73261   0.47843   0.00000  Uiso   1.00
H451   H     0.89186   0.88307   0.08375   0.00000  Uiso   1.00
H452   H     0.98920   0.89481   0.42746   0.00000  Uiso   1.00
H453   H     0.70345   0.92697   0.02202   0.00000  Uiso   1.00
H454   H     0.76313   0.75529   0.37883   0.00000  Uiso   1.00
N455   N     0.81160   0.81890   0.23542   0.00000  Uiso   1.00
N456   N     0.85507   0.84777   0.26457   0.00000  Uiso   1.00
O457   O     0.96435   0.91296   0.25357   0.00000  Uiso   1.00
O458   O     0.80478   0.90774   0.07436   0.00000  Uiso   1.00
O459   O     0.72408   0.90371   0.24423   0.00000  Uiso   1.00
O460   O     0.98157   0.84024   0.33380   0.00000  Uiso   1.00
O461   O     0.74130   0.83099   0.32446   0.00000  Uiso   1.00
O462   O     0.94258   0.76296   0.25576   0.00000  Uiso   1.00
O463   O     0.70231   0.75371   0.24642   0.00000  Uiso   1.00
O464   O     0.92537   0.83567   0.17554   0.00000  Uiso   1.00
O465   O     0.68510   0.82642   0.16620   0.00000  Uiso   1.00
O466   O     0.83814   0.88668   0.29549   0.00000  Uiso   1.00
Zn467  Zn    0.93786   0.83951   0.25623   0.00000  Uiso   1.00
Zn468  Zn    0.72881   0.82716   0.24376   0.00000  Uiso   1.00
C469   C     0.01488   0.26488   0.74871   0.00000  Uiso   1.00
C470   C     0.05416   0.17543   0.91644   0.00000  Uiso   1.00
C471   C     0.02261   0.31949   0.74805   0.00000  Uiso   1.00
C472   C     0.03538   0.16927   0.85532   0.00000  Uiso   1.00
C473   C     0.31088   0.01386   0.75250   0.00000  Uiso   1.00
C474   C     0.31851   0.06846   0.75148   0.00000  Uiso   1.00
C475   C     0.29805   0.16360   0.64481   0.00000  Uiso   1.00
C476   C     0.26683   0.09802   0.50140   0.00000  Uiso   1.00
C477   C     0.27935   0.15624   0.58427   0.00000  Uiso   1.00
C478   C     0.02860   0.21167   0.94662   0.00000  Uiso   1.00
C479   C     0.05628   0.23073   0.50006   0.00000  Uiso   1.00
C480   C     0.13752   0.17717   0.99373   0.00000  Uiso   1.00
C481   C     0.11086   0.21536   0.52384   0.00000  Uiso   1.00
C482   C     0.21256   0.22943   0.84574   0.00000  Uiso   1.00
C483   C     0.11386   0.22060   0.61872   0.00000  Uiso   1.00
C484   C     0.10483   0.15384   0.94199   0.00000  Uiso   1.00
C485   C     0.19392   0.15986   0.51219   0.00000  Uiso   1.00
C486   C     0.21297   0.11734   0.98199   0.00000  Uiso   1.00
C487   C     0.17720   0.09267   0.93438   0.00000  Uiso   1.00
C488   C     0.12358   0.11004   0.91521   0.00000  Uiso   1.00
C489   C     0.23185   0.18164   0.56057   0.00000  Uiso   1.00
C490   C     0.29931   0.11641   0.55362   0.00000  Uiso   1.00
H491   H     0.00391   0.09717   0.57169   0.00000  Uiso   1.00
H492   H     0.06504   0.00335   0.74380   0.00000  Uiso   1.00
H493   H     0.25268   0.25058   0.83793   0.00000  Uiso   1.00
H494   H     0.22139   0.19262   0.86719   0.00000  Uiso   1.00
H495   H     0.19446   0.25511   0.87517   0.00000  Uiso   1.00
H496   H     0.11375   0.17720   0.61809   0.00000  Uiso   1.00
H497   H     0.06944   0.23299   0.61722   0.00000  Uiso   1.00
H498   H     0.14077   0.23675   0.65950   0.00000  Uiso   1.00
H499   H     0.26846   0.33000   0.75680   0.00000  Uiso   1.00
H500   H     0.15660   0.12328   0.70985   0.00000  Uiso   1.00
H501   H     0.19046   0.05938   0.91213   0.00000  Uiso   1.00
H502   H     0.28148   0.06594   0.97843   0.00000  Uiso   1.00
H503   H     0.22519   0.21640   0.58375   0.00000  Uiso   1.00
H504   H     0.32253   0.22814   0.92746   0.00000  Uiso   1.00
H505   H     0.03678   0.26030   0.52202   0.00000  Uiso   1.00
H506   H     0.09646   0.08862   0.87883   0.00000  Uiso   1.00
N507   N     0.14493   0.15223   0.73542   0.00000  Uiso   1.00
N508   N     0.18840   0.18110   0.76457   0.00000  Uiso   1.00
O509   O     0.29769   0.24629   0.75357   0.00000  Uiso   1.00
O510   O     0.13811   0.24107   0.57436   0.00000  Uiso   1.00
O511   O     0.05742   0.23704   0.74423   0.00000  Uiso   1.00
O512   O     0.31490   0.17358   0.83380   0.00000  Uiso   1.00
O513   O     0.07463   0.16433   0.82446   0.00000  Uiso   1.00
O514   O     0.27592   0.09629   0.75576   0.00000  Uiso   1.00
O515   O     0.03565   0.08704   0.74642   0.00000  Uiso   1.00
O516   O     0.25870   0.16901   0.67554   0.00000  Uiso   1.00
O517   O     0.01843   0.15976   0.66620   0.00000  Uiso   1.00
O518   O     0.17148   0.22001   0.79549   0.00000  Uiso   1.00
Zn519  Zn    0.27119   0.17284   0.75623   0.00000  Uiso   1.00
Zn520  Zn    0.06214   0.16049   0.74376   0.00000  Uiso   1.00
C521   C     0.34821   0.26488   0.74871   0.00000  Uiso   1.00
C522   C     0.38750   0.17543   0.91644   0.00000  Uiso   1.00
C523   C     0.35594   0.31949   0.74805   0.00000  Uiso   1.00
C524   C     0.36871   0.16927   0.85532   0.00000  Uiso   1.00
C525   C     0.64422   0.01386   0.75250   0.00000  Uiso   1.00
C526   C     0.65184   0.06846   0.75148   0.00000  Uiso   1.00
C527   C     0.63138   0.16360   0.64481   0.00000  Uiso   1.00
C528   C     0.60016   0.09802   0.50140   0.00000  Uiso   1.00
C529   C     0.61268   0.15624   0.58427   0.00000  Uiso   1.00
C530   C     0.36193   0.21167   0.94662   0.00000  Uiso   1.00
C531   C     0.38962   0.23073   0.50006   0.00000  Uiso   1.00
C532   C     0.47085   0.17717   0.99373   0.00000  Uiso   1.00
C533   C     0.44420   0.21536   0.52384   0.00000  Uiso   1.00
C534   C     0.54589   0.22943   0.84574   0.00000  Uiso   1.00
C535   C     0.44719   0.22060   0.61872   0.00000  Uiso   1.00
C536   C     0.43817   0.15384   0.94199   0.00000  Uiso   1.00
C537   C     0.52725   0.15986   0.51219   0.00000  Uiso   1.00
C538   C     0.54630   0.11734   0.98199   0.00000  Uiso   1.00
C539   C     0.51053   0.09267   0.93438   0.00000  Uiso   1.00
C540   C     0.45691   0.11004   0.91521   0.00000  Uiso   1.00
C541   C     0.56519   0.18164   0.56057   0.00000  Uiso   1.00
C542   C     0.63264   0.11641   0.55362   0.00000  Uiso   1.00
H543   H     0.33725   0.09717   0.57169   0.00000  Uiso   1.00
H544   H     0.39838   0.00335   0.74380   0.00000  Uiso   1.00
H545   H     0.58601   0.25058   0.83793   0.00000  Uiso   1.00
H546   H     0.55473   0.19262   0.86719   0.00000  Uiso   1.00
H547   H     0.52780   0.25511   0.87517   0.00000  Uiso   1.00
H548   H     0.44708   0.17720   0.61809   0.00000  Uiso   1.00
H549   H     0.40278   0.23299   0.61722   0.00000  Uiso   1.00
H550   H     0.47411   0.23675   0.65950   0.00000  Uiso   1.00
H551   H     0.60180   0.33000   0.75680   0.00000  Uiso   1.00
H552   H     0.48994   0.12328   0.70985   0.00000  Uiso   1.00
H553   H     0.52379   0.05938   0.91213   0.00000  Uiso   1.00
H554   H     0.61481   0.06594   0.97843   0.00000  Uiso   1.00
H555   H     0.55853   0.21640   0.58375   0.00000  Uiso   1.00
H556   H     0.65586   0.22814   0.92746   0.00000  Uiso   1.00
H557   H     0.37012   0.26030   0.52202   0.00000  Uiso   1.00
H558   H     0.42980   0.08862   0.87883   0.00000  Uiso   1.00
N559   N     0.47827   0.15223   0.73542   0.00000  Uiso   1.00
N560   N     0.52173   0.18110   0.76457   0.00000  Uiso   1.00
O561   O     0.63102   0.24629   0.75357   0.00000  Uiso   1.00
O562   O     0.47144   0.24107   0.57436   0.00000  Uiso   1.00
O563   O     0.39075   0.23704   0.74423   0.00000  Uiso   1.00
O564   O     0.64823   0.17358   0.83380   0.00000  Uiso   1.00
O565   O     0.40796   0.16433   0.82446   0.00000  Uiso   1.00
O566   O     0.60925   0.09629   0.75576   0.00000  Uiso   1.00
O567   O     0.36898   0.08704   0.74642   0.00000  Uiso   1.00
O568   O     0.59204   0.16901   0.67554   0.00000  Uiso   1.00
O569   O     0.35177   0.15976   0.66620   0.00000  Uiso   1.00
O570   O     0.50481   0.22001   0.79549   0.00000  Uiso   1.00
Zn571  Zn    0.60453   0.17284   0.75623   0.00000  Uiso   1.00
Zn572  Zn    0.39547   0.16049   0.74376   0.00000  Uiso   1.00
C573   C     0.68155   0.26488   0.74871   0.00000  Uiso   1.00
C574   C     0.72083   0.17543   0.91644   0.00000  Uiso   1.00
C575   C     0.68928   0.31949   0.74805   0.00000  Uiso   1.00
C576   C     0.70204   0.16927   0.85532   0.00000  Uiso   1.00
C577   C     0.97755   0.01386   0.75250   0.00000  Uiso   1.00
C578   C     0.98518   0.06846   0.75148   0.00000  Uiso   1.00
C579   C     0.96472   0.16360   0.64481   0.00000  Uiso   1.00
C580   C     0.93350   0.09802   0.50140   0.00000  Uiso   1.00
C581   C     0.94601   0.15624   0.58427   0.00000  Uiso   1.00
C582   C     0.69527   0.21167   0.94662   0.00000  Uiso   1.00
C583   C     0.72295   0.23073   0.50006   0.00000  Uiso   1.00
C584   C     0.80418   0.17717   0.99373   0.00000  Uiso   1.00
C585   C     0.77753   0.21536   0.52384   0.00000  Uiso   1.00
C586   C     0.87923   0.22943   0.84574   0.00000  Uiso   1.00
C587   C     0.78052   0.22060   0.61872   0.00000  Uiso   1.00
C588   C     0.77150   0.15384   0.94199   0.00000  Uiso   1.00
C589   C     0.86059   0.15986   0.51219   0.00000  Uiso   1.00
C590   C     0.87963   0.11734   0.98199   0.00000  Uiso   1.00
C591   C     0.84386   0.09267   0.93438   0.00000  Uiso   1.00
C592   C     0.79024   0.11004   0.91521   0.00000  Uiso   1.00
C593   C     0.89852   0.18164   0.56057   0.00000  Uiso   1.00
C594   C     0.96597   0.11641   0.55362   0.00000  Uiso   1.00
H595   H     0.67058   0.09717   0.57169   0.00000  Uiso   1.00
H596   H     0.73171   0.00335   0.74380   0.00000  Uiso   1.00
H597   H     0.91934   0.25058   0.83793   0.00000  Uiso   1.00
H598   H     0.88806   0.19262   0.86719   0.00000  Uiso   1.00
H599   H     0.86113   0.25511   0.87517   0.00000  Uiso   1.00
H600   H     0.78041   0.17720   0.61809   0.00000  Uiso   1.00
H601   H     0.73611   0.23299   0.61722   0.00000  Uiso   1.00
H602   H     0.80744   0.23675   0.65950   0.00000  Uiso   1.00
H603   H     0.93513   0.33000   0.75680   0.00000  Uiso   1.00
H604   H     0.82327   0.12328   0.70985   0.00000  Uiso   1.00
H605   H     0.85713   0.05938   0.91213   0.00000  Uiso   1.00
H606   H     0.94814   0.06594   0.97843   0.00000  Uiso   1.00
H607   H     0.89186   0.21640   0.58375   0.00000  Uiso   1.00
H608   H     0.98920   0.22814   0.92746   0.00000  Uiso   1.00
H609   H     0.70345   0.26030   0.52202   0.00000  Uiso   1.00
H610   H     0.76313   0.08862   0.87883   0.00000  Uiso   1.00
N611   N     0.81160   0.15223   0.73542   0.00000  Uiso   1.00
N612   N     0.85507   0.18110   0.76457   0.00000  Uiso   1.00
O613   O     0.96435   0.24629   0.75357   0.00000  Uiso   1.00
O614   O     0.80478   0.24107   0.57436   0.00000  Uiso   1.00
O615   O     0.72408   0.23704   0.74423   0.00000  Uiso   1.00
O616   O     0.98157   0.17358   0.83380   0.00000  Uiso   1.00
O617   O     0.74130   0.16433   0.82446   0.00000  Uiso   1.00
O618   O     0.94258   0.09629   0.75576   0.00000  Uiso   1.00
O619   O     0.70231   0.08704   0.74642   0.00000  Uiso   1.00
O620   O     0.92537   0.16901   0.67554   0.00000  Uiso   1.00
O621   O     0.68510   0.15976   0.66620   0.00000  Uiso   1.00
O622   O     0.83814   0.22001   0.79549   0.00000  Uiso   1.00
Zn623  Zn    0.93786   0.17284   0.75623   0.00000  Uiso   1.00
Zn624  Zn    0.72881   0.16049   0.74376   0.00000  Uiso   1.00
C625   C     0.01488   0.59821   0.74871   0.00000  Uiso   1.00
C626   C     0.05416   0.50876   0.91644   0.00000  Uiso   1.00
C627   C     0.02261   0.65282   0.74805   0.00000  Uiso   1.00
C628   C     0.03538   0.50261   0.85532   0.00000  Uiso   1.00
C629   C     0.31088   0.34719   0.75250   0.00000  Uiso   1.00
C630   C     0.31851   0.40179   0.75148   0.00000  Uiso   1.00
C631   C     0.29805   0.49693   0.64481   0.00000  Uiso   1.00
C632   C     0.26683   0.43135   0.50140   0.00000  Uiso   1.00
C633   C     0.27935   0.48958   0.58427   0.00000  Uiso   1.00
C634   C     0.02860   0.54500   0.94662   0.00000  Uiso   1.00
C635   C     0.05628   0.56406   0.50006   0.00000  Uiso   1.00
C636   C     0.13752   0.51051   0.99373   0.00000  Uiso   1.00
C637   C     0.11086   0.54870   0.52384   0.00000  Uiso   1.00
C638   C     0.21256   0.56277   0.84574   0.00000  Uiso   1.00
C639   C     0.11386   0.55394   0.61872   0.00000  Uiso   1.00
C640   C     0.10483   0.48717   0.94199   0.00000  Uiso   1.00
C641   C     0.19392   0.49319   0.51219   0.00000  Uiso   1.00
C642   C     0.21297   0.45067   0.98199   0.00000  Uiso   1.00
C643   C     0.17720   0.42600   0.93438   0.00000  Uiso   1.00
C644   C     0.12358   0.44337   0.91521   0.00000  Uiso   1.00
C645   C     0.23185   0.51498   0.56057   0.00000  Uiso   1.00
C646   C     0.29931   0.44975   0.55362   0.00000  Uiso   1.00
H647   H     0.00391   0.43050   0.57169   0.00000  Uiso   1.00
H648   H     0.06504   0.33668   0.74380   0.00000  Uiso   1.00
H649   H     0.25268   0.58391   0.83793   0.00000  Uiso   1.00
H650   H     0.22139   0.52596   0.86719   0.00000  Uiso   1.00
H651   H     0.19446   0.58845   0.87517   0.00000  Uiso   1.00
H652   H     0.11375   0.51054   0.61809   0.00000  Uiso   1.00
H653   H     0.06944   0.56632   0.61722   0.00000  Uiso   1.00
H654   H     0.14077   0.57008   0.65950   0.00000  Uiso   1.00
H655   H     0.26846   0.66333   0.75680   0.00000  Uiso   1.00
H656   H     0.15660   0.45661   0.70985   0.00000  Uiso   1.00
H657   H     0.19046   0.39271   0.91213   0.00000  Uiso   1.00
H658   H     0.28148   0.39928   0.97843   0.00000  Uiso   1.00
H659   H     0.22519   0.54973   0.58375   0.00000  Uiso   1.00
H660   H     0.32253   0.56148   0.92746   0.00000  Uiso   1.00
H661   H     0.03678   0.59363   0.52202   0.00000  Uiso   1.00
H662   H     0.09646   0.42195   0.87883   0.00000  Uiso   1.00
N663   N     0.14493   0.48556   0.73542   0.00000  Uiso   1.00
N664   N     0.18840   0.51444   0.76457   0.00000  Uiso   1.00
O665   O     0.29769   0.57963   0.75357   0.00000  Uiso   1.00
O666   O     0.13811   0.57440   0.57436   0.00000  Uiso   1.00
O667   O     0.05742   0.57038   0.74423   0.00000  Uiso   1.00
O668   O     0.31490   0.50691   0.83380   0.00000  Uiso   1.00
O669   O     0.07463   0.49766   0.82446   0.00000  Uiso   1.00
O670   O     0.27592   0.42962   0.75576   0.00000  Uiso   1.00
O671   O     0.03565   0.42037   0.74642   0.00000  Uiso   1.00
O672   O     0.25870   0.50234   0.67554   0.00000  Uiso   1.00
O673   O     0.01843   0.49309   0.66620   0.00000  Uiso   1.00
O674   O     0.17148   0.55335   0.79549   0.00000  Uiso   1.00
Zn675  Zn    0.27119   0.50618   0.75623   0.00000  Uiso   1.00
Zn676  Zn    0.06214   0.49382   0.74376   0.00000  Uiso   1.00
C677   C     0.34821   0.59821   0.74871   0.00000  Uiso   1.00
C678   C     0.38750   0.50876   0.91644   0.00000  Uiso   1.00
C679   C     0.35594   0.65282   0.74805   0.00000  Uiso   1.00
C680   C     0.36871   0.50261   0.85532   0.00000  Uiso   1.00
C681   C     0.64422   0.34719   0.75250   0.00000  Uiso   1.00
C682   C     0.65184   0.40179   0.75148   0.00000  Uiso   1.00
C683   C     0.63138   0.49693   0.64481   0.00000  Uiso   1.00
C684   C     0.60016   0.43135   0.50140   0.00000  Uiso   1.00
C685   C     0.61268   0.48958   0.58427   0.00000  Uiso   1.00
C686   C     0.36193   0.54500   0.94662   0.00000  Uiso   1.00
C687   C     0.38962   0.56406   0.50006   0.00000  Uiso   1.00
C688   C     0.47085   0.51051   0.99373   0.00000  Uiso   1.00
C689   C     0.44420   0.54870   0.52384   0.00000  Uiso   1.00
C690   C     0.54589   0.56277   0.84574   0.00000  Uiso   1.00
C691   C     0.44719   0.55394   0.61872   0.00000  Uiso   1.00
C692   C     0.43817   0.48717   0.94199   0.00000  Uiso   1.00
C693   C     0.52725   0.49319   0.51219   0.00000  Uiso   1.00
C694   C     0.54630   0.45067   0.98199   0.00000  Uiso   1.00
C695   C     0.51053   0.42600   0.93438   0.00000  Uiso   1.00
C696   C     0.45691   0.44337   0.91521   0.00000  Uiso   1.00
C697   C     0.56519   0.51498   0.56057   0.00000  Uiso   1.00
C698   C     0.63264   0.44975   0.55362   0.00000  Uiso   1.00
H699   H     0.33725   0.43050   0.57169   0.00000  Uiso   1.00
H700   H     0.39838   0.33668   0.74380   0.00000  Uiso   1.00
H701   H     0.58601   0.58391   0.83793   0.00000  Uiso   1.00
H702   H     0.55473   0.52596   0.86719   0.00000  Uiso   1.00
H703   H     0.52780   0.58845   0.87517   0.00000  Uiso   1.00
H704   H     0.44708   0.51054   0.61809   0.00000  Uiso   1.00
H705   H     0.40278   0.56632   0.61722   0.00000  Uiso   1.00
H706   H     0.47411   0.57008   0.65950   0.00000  Uiso   1.00
H707   H     0.60180   0.66333   0.75680   0.00000  Uiso   1.00
H708   H     0.48994   0.45661   0.70985   0.00000  Uiso   1.00
H709   H     0.52379   0.39271   0.91213   0.00000  Uiso   1.00
H710   H     0.61481   0.39928   0.97843   0.00000  Uiso   1.00
H711   H     0.55853   0.54973   0.58375   0.00000  Uiso   1.00
H712   H     0.65586   0.56148   0.92746   0.00000  Uiso   1.00
H713   H     0.37012   0.59363   0.52202   0.00000  Uiso   1.00
H714   H     0.42980   0.42195   0.87883   0.00000  Uiso   1.00
N715   N     0.47827   0.48556   0.73542   0.00000  Uiso   1.00
N716   N     0.52173   0.51444   0.76457   0.00000  Uiso   1.00
O717   O     0.63102   0.57963   0.75357   0.00000  Uiso   1.00
O718   O     0.47144   0.57440   0.57436   0.00000  Uiso   1.00
O719   O     0.39075   0.57038   0.74423   0.00000  Uiso   1.00
O720   O     0.64823   0.50691   0.83380   0.00000  Uiso   1.00
O721   O     0.40796   0.49766   0.82446   0.00000  Uiso   1.00
O722   O     0.60925   0.42962   0.75576   0.00000  Uiso   1.00
O723   O     0.36898   0.42037   0.74642   0.00000  Uiso   1.00
O724   O     0.59204   0.50234   0.67554   0.00000  Uiso   1.00
O725   O     0.35177   0.49309   0.66620   0.00000  Uiso   1.00
O726   O     0.50481   0.55335   0.79549   0.00000  Uiso   1.00
Zn727  Zn    0.60453   0.50618   0.75623   0.00000  Uiso   1.00
Zn728  Zn    0.39547   0.49382   0.74376   0.00000  Uiso   1.00
C729   C     0.68155   0.59821   0.74871   0.00000  Uiso   1.00
C730   C     0.72083   0.50876   0.91644   0.00000  Uiso   1.00
C731   C     0.68928   0.65282   0.74805   0.00000  Uiso   1.00
C732   C     0.70204   0.50261   0.85532   0.00000  Uiso   1.00
C733   C     0.97755   0.34719   0.75250   0.00000  Uiso   1.00
C734   C     0.98518   0.40179   0.75148   0.00000  Uiso   1.00
C735   C     0.96472   0.49693   0.64481   0.00000  Uiso   1.00
C736   C     0.93350   0.43135   0.50140   0.00000  Uiso   1.00
C737   C     0.94601   0.48958   0.58427   0.00000  Uiso   1.00
C738   C     0.69527   0.54500   0.94662   0.00000  Uiso   1.00
C739   C     0.72295   0.56406   0.50006   0.00000  Uiso   1.00
C740   C     0.80418   0.51051   0.99373   0.00000  Uiso   1.00
C741   C     0.77753   0.54870   0.52384   0.00000  Uiso   1.00
C742   C     0.87923   0.56277   0.84574   0.00000  Uiso   1.00
C743   C     0.78052   0.55394   0.61872   0.00000  Uiso   1.00
C744   C     0.77150   0.48717   0.94199   0.00000  Uiso   1.00
C745   C     0.86059   0.49319   0.51219   0.00000  Uiso   1.00
C746   C     0.87963   0.45067   0.98199   0.00000  Uiso   1.00
C747   C     0.84386   0.42600   0.93438   0.00000  Uiso   1.00
C748   C     0.79024   0.44337   0.91521   0.00000  Uiso   1.00
C749   C     0.89852   0.51498   0.56057   0.00000  Uiso   1.00
C750   C     0.96597   0.44975   0.55362   0.00000  Uiso   1.00
H751   H     0.67058   0.43050   0.57169   0.00000  Uiso   1.00
H752   H     0.73171   0.33668   0.74380   0.00000  Uiso   1.00
H753   H     0.91934   0.58391   0.83793   0.00000  Uiso   1.00
H754   H     0.88806   0.52596   0.86719   0.00000  Uiso   1.00
H755   H     0.86113   0.58845   0.87517   0.00000  Uiso   1.00
H756   H     0.78041   0.51054   0.61809   0.00000  Uiso   1.00
H757   H     0.73611   0.56632   0.61722   0.00000  Uiso   1.00
H758   H     0.80744   0.57008   0.65950   0.00000  Uiso   1.00
H759   H     0.93513   0.66333   0.75680   0.00000  Uiso   1.00
H760   H     0.82327   0.45661   0.70985   0.00000  Uiso   1.00
H761   H     0.85713   0.39271   0.91213   0.00000  Uiso   1.00
H762   H     0.94814   0.39928   0.97843   0.00000  Uiso   1.00
H763   H     0.89186   0.54973   0.58375   0.00000  Uiso   1.00
H764   H     0.98920   0.56148   0.92746   0.00000  Uiso   1.00
H765   H     0.70345   0.59363   0.52202   0.00000  Uiso   1.00
H766   H     0.76313   0.42195   0.87883   0.00000  Uiso   1.00
N767   N     0.81160   0.48556   0.73542   0.00000  Uiso   1.00
N768   N     0.85507   0.51444   0.76457   0.00000  Uiso   1.00
O769   O     0.96435   0.57963   0.75357   0.00000  Uiso   1.00
O770   O     0.80478   0.57440   0.57436   0.00000  Uiso   1.00
O771   O     0.72408   0.57038   0.74423   0.00000  Uiso   1.00
O772   O     0.98157   0.50691   0.83380   0.00000  Uiso   1.00
O773   O     0.74130   0.49766   0.82446   0.00000  Uiso   1.00
O774   O     0.94258   0.42962   0.75576   0.00000  Uiso   1.00
O775   O     0.70231   0.42037   0.74642   0.00000  Uiso   1.00
O776   O     0.92537   0.50234   0.67554   0.00000  Uiso   1.00
O777   O     0.68510   0.49309   0.66620   0.00000  Uiso   1.00
O778   O     0.83814   0.55335   0.79549   0.00000  Uiso   1.00
Zn779  Zn    0.93786   0.50618   0.75623   0.00000  Uiso   1.00
Zn780  Zn    0.72881   0.49382   0.74376   0.00000  Uiso   1.00
C781   C     0.01488   0.93155   0.74871   0.00000  Uiso   1.00
C782   C     0.05416   0.84209   0.91644   0.00000  Uiso   1.00
C783   C     0.02261   0.98616   0.74805   0.00000  Uiso   1.00
C784   C     0.03538   0.83594   0.85532   0.00000  Uiso   1.00
C785   C     0.31088   0.68053   0.75250   0.00000  Uiso   1.00
C786   C     0.31851   0.73512   0.75148   0.00000  Uiso   1.00
C787   C     0.29805   0.83026   0.64481   0.00000  Uiso   1.00
C788   C     0.26683   0.76468   0.50140   0.00000  Uiso   1.00
C789   C     0.27935   0.82291   0.58427   0.00000  Uiso   1.00
C790   C     0.02860   0.87834   0.94662   0.00000  Uiso   1.00
C791   C     0.05628   0.89740   0.50006   0.00000  Uiso   1.00
C792   C     0.13752   0.84384   0.99373   0.00000  Uiso   1.00
C793   C     0.11086   0.88203   0.52384   0.00000  Uiso   1.00
C794   C     0.21256   0.89610   0.84574   0.00000  Uiso   1.00
C795   C     0.11386   0.88727   0.61872   0.00000  Uiso   1.00
C796   C     0.10483   0.82051   0.94199   0.00000  Uiso   1.00
C797   C     0.19392   0.82653   0.51219   0.00000  Uiso   1.00
C798   C     0.21297   0.78401   0.98199   0.00000  Uiso   1.00
C799   C     0.17720   0.75933   0.93438   0.00000  Uiso   1.00
C800   C     0.12358   0.77670   0.91521   0.00000  Uiso   1.00
C801   C     0.23185   0.84831   0.56057   0.00000  Uiso   1.00
C802   C     0.29931   0.78308   0.55362   0.00000  Uiso   1.00
H803   H     0.00391   0.76383   0.57169   0.00000  Uiso   1.00
H804   H     0.06504   0.67002   0.74380   0.00000  Uiso   1.00
H805   H     0.25268   0.91725   0.83793   0.00000  Uiso   1.00
H806   H     0.22139   0.85929   0.86719   0.00000  Uiso   1.00
H807   H     0.19446   0.92178   0.87517   0.00000  Uiso   1.00
H808   H     0.11375   0.84387   0.61809   0.00000  Uiso   1.00
H809   H     0.06944   0.89965   0.61722   0.00000  Uiso   1.00
H810   H     0.14077   0.90341   0.65950   0.00000  Uiso   1.00
H811   H     0.26846   0.99666   0.75680   0.00000  Uiso   1.00
H812   H     0.15660   0.78994   0.70985   0.00000  Uiso   1.00
H813   H     0.19046   0.72604   0.91213   0.00000  Uiso   1.00
H814   H     0.28148   0.73261   0.97843   0.00000  Uiso   1.00
H815   H     0.22519   0.88307   0.58375   0.00000  Uiso   1.00
H816   H     0.32253   0.89481   0.92746   0.00000  Uiso   1.00
H817   H     0.03678   0.92697   0.52202   0.00000  Uiso   1.00
H818   H     0.09646   0.75529   0.87883   0.00000  Uiso   1.00
N819   N     0.14493   0.81890   0.73542   0.00000  Uiso   1.00
N820   N     0.18840   0.84777   0.76457   0.00000  Uiso   1.00
O821   O     0.29769   0.91296   0.75357   0.00000  Uiso   1.00
O822   O     0.13811   0.90774   0.57436   0.00000  Uiso   1.00
O823   O     0.05742   0.90371   0.74423   0.00000  Uiso   1.00
O824   O     0.31490   0.84024   0.83380   0.00000  Uiso   1.00
O825   O     0.07463   0.83099   0.82446   0.00000  Uiso   1.00
O826   O     0.27592   0.76296   0.75576   0.00000  Uiso   1.00
O827   O     0.03565   0.75371   0.74642   0.00000  Uiso   1.00
O828   O     0.25870   0.83567   0.67554   0.00000  Uiso   1.00
O829   O     0.01843   0.82642   0.66620   0.00000  Uiso   1.00
O830   O     0.17148   0.88668   0.79549   0.00000  Uiso   1.00
Zn831  Zn    0.27119   0.83951   0.75623   0.00000  Uiso   1.00
Zn832  Zn    0.06214   0.82716   0.74376   0.00000  Uiso   1.00
C833   C     0.34821   0.93155   0.74871   0.00000  Uiso   1.00
C834   C     0.38750   0.84209   0.91644   0.00000  Uiso   1.00
C835   C     0.35594   0.98616   0.74805   0.00000  Uiso   1.00
C836   C     0.36871   0.83594   0.85532   0.00000  Uiso   1.00
C837   C     0.64422   0.68053   0.75250   0.00000  Uiso   1.00
C838   C     0.65184   0.73512   0.75148   0.00000  Uiso   1.00
C839   C     0.63138   0.83026   0.64481   0.00000  Uiso   1.00
C840   C     0.60016   0.76468   0.50140   0.00000  Uiso   1.00
C841   C     0.61268   0.82291   0.58427   0.00000  Uiso   1.00
C842   C     0.36193   0.87834   0.94662   0.00000  Uiso   1.00
C843   C     0.38962   0.89740   0.50006   0.00000  Uiso   1.00
C844   C     0.47085   0.84384   0.99373   0.00000  Uiso   1.00
C845   C     0.44420   0.88203   0.52384   0.00000  Uiso   1.00
C846   C     0.54589   0.89610   0.84574   0.00000  Uiso   1.00
C847   C     0.44719   0.88727   0.61872   0.00000  Uiso   1.00
C848   C     0.43817   0.82051   0.94199   0.00000  Uiso   1.00
C849   C     0.52725   0.82653   0.51219   0.00000  Uiso   1.00
C850   C     0.54630   0.78401   0.98199   0.00000  Uiso   1.00
C851   C     0.51053   0.75933   0.93438   0.00000  Uiso   1.00
C852   C     0.45691   0.77670   0.91521   0.00000  Uiso   1.00
C853   C     0.56519   0.84831   0.56057   0.00000  Uiso   1.00
C854   C     0.63264   0.78308   0.55362   0.00000  Uiso   1.00
H855   H     0.33725   0.76383   0.57169   0.00000  Uiso   1.00
H856   H     0.39838   0.67002   0.74380   0.00000  Uiso   1.00
H857   H     0.58601   0.91725   0.83793   0.00000  Uiso   1.00
H858   H     0.55473   0.85929   0.86719   0.00000  Uiso   1.00
H859   H     0.52780   0.92178   0.87517   0.00000  Uiso   1.00
H860   H     0.44708   0.84387   0.61809   0.00000  Uiso   1.00
H861   H     0.40278   0.89965   0.61722   0.00000  Uiso   1.00
H862   H     0.47411   0.90341   0.65950   0.00000  Uiso   1.00
H863   H     0.60180   0.99666   0.75680   0.00000  Uiso   1.00
H864   H     0.48994   0.78994   0.70985   0.00000  Uiso   1.00
H865   H     0.52379   0.72604   0.91213   0.00000  Uiso   1.00
H866   H     0.61481   0.73261   0.97843   0.00000  Uiso   1.00
H867   H     0.55853   0.88307   0.58375   0.00000  Uiso   1.00
H868   H     0.65586   0.89481   0.92746   0.00000  Uiso   1.00
H869   H     0.37012   0.92697   0.52202   0.00000  Uiso   1.00
H870   H     0.42980   0.75529   0.87883   0.00000  Uiso   1.00
N871   N     0.47827   0.81890   0.73542   0.00000  Uiso   1.00
N872   N     0.52173   0.84777   0.76457   0.00000  Uiso   1.00
O873   O     0.63102   0.91296   0.75357   0.00000  Uiso   1.00
O874   O     0.47144   0.90774   0.57436   0.00000  Uiso   1.00
O875   O     0.39075   0.90371   0.74423   0.00000  Uiso   1.00
O876   O     0.64823   0.84024   0.83380   0.00000  Uiso   1.00
O877   O     0.40796   0.83099   0.82446   0.00000  Uiso   1.00
O878   O     0.60925   0.76296   0.75576   0.00000  Uiso   1.00
O879   O     0.36898   0.75371   0.74642   0.00000  Uiso   1.00
O880   O     0.59204   0.83567   0.67554   0.00000  Uiso   1.00
O881   O     0.35177   0.82642   0.66620   0.00000  Uiso   1.00
O882   O     0.50481   0.88668   0.79549   0.00000  Uiso   1.00
Zn883  Zn    0.60453   0.83951   0.75623   0.00000  Uiso   1.00
Zn884  Zn    0.39547   0.82716   0.74376   0.00000  Uiso   1.00
C885   C     0.68155   0.93155   0.74871   0.00000  Uiso   1.00
C886   C     0.72083   0.84209   0.91644   0.00000  Uiso   1.00
C887   C     0.68928   0.98616   0.74805   0.00000  Uiso   1.00
C888   C     0.70204   0.83594   0.85532   0.00000  Uiso   1.00
C889   C     0.97755   0.68053   0.75250   0.00000  Uiso   1.00
C890   C     0.98518   0.73512   0.75148   0.00000  Uiso   1.00
C891   C     0.96472   0.83026   0.64481   0.00000  Uiso   1.00
C892   C     0.93350   0.76468   0.50140   0.00000  Uiso   1.00
C893   C     0.94601   0.82291   0.58427   0.00000  Uiso   1.00
C894   C     0.69527   0.87834   0.94662   0.00000  Uiso   1.00
C895   C     0.72295   0.89740   0.50006   0.00000  Uiso   1.00
C896   C     0.80418   0.84384   0.99373   0.00000  Uiso   1.00
C897   C     0.77753   0.88203   0.52384   0.00000  Uiso   1.00
C898   C     0.87923   0.89610   0.84574   0.00000  Uiso   1.00
C899   C     0.78052   0.88727   0.61872   0.00000  Uiso   1.00
C900   C     0.77150   0.82051   0.94199   0.00000  Uiso   1.00
C901   C     0.86059   0.82653   0.51219   0.00000  Uiso   1.00
C902   C     0.87963   0.78401   0.98199   0.00000  Uiso   1.00
C903   C     0.84386   0.75933   0.93438   0.00000  Uiso   1.00
C904   C     0.79024   0.77670   0.91521   0.00000  Uiso   1.00
C905   C     0.89852   0.84831   0.56057   0.00000  Uiso   1.00
C906   C     0.96597   0.78308   0.55362   0.00000  Uiso   1.00
H907   H     0.67058   0.76383   0.57169   0.00000  Uiso   1.00
H908   H     0.73171   0.67002   0.74380   0.00000  Uiso   1.00
H909   H     0.91934   0.91725   0.83793   0.00000  Uiso   1.00
H910   H     0.88806   0.85929   0.86719   0.00000  Uiso   1.00
H911   H     0.86113   0.92178   0.87517   0.00000  Uiso   1.00
H912   H     0.78041   0.84387   0.61809   0.00000  Uiso   1.00
H913   H     0.73611   0.89965   0.61722   0.00000  Uiso   1.00
H914   H     0.80744   0.90341   0.65950   0.00000  Uiso   1.00
H915   H     0.93513   0.99666   0.75680   0.00000  Uiso   1.00
H916   H     0.82327   0.78994   0.70985   0.00000  Uiso   1.00
H917   H     0.85713   0.72604   0.91213   0.00000  Uiso   1.00
H918   H     0.94814   0.73261   0.97843   0.00000  Uiso   1.00
H919   H     0.89186   0.88307   0.58375   0.00000  Uiso   1.00
H920   H     0.98920   0.89481   0.92746   0.00000  Uiso   1.00
H921   H     0.70345   0.92697   0.52202   0.00000  Uiso   1.00
H922   H     0.76313   0.75529   0.87883   0.00000  Uiso   1.00
N923   N     0.81160   0.81890   0.73542   0.00000  Uiso   1.00
N924   N     0.85507   0.84777   0.76457   0.00000  Uiso   1.00
O925   O     0.96435   0.91296   0.75357   0.00000  Uiso   1.00
O926   O     0.80478   0.90774   0.57436   0.00000  Uiso   1.00
O927   O     0.72408   0.90371   0.74423   0.00000  Uiso   1.00
O928   O     0.98157   0.84024   0.83380   0.00000  Uiso   1.00
O929   O     0.74130   0.83099   0.82446   0.00000  Uiso   1.00
O930   O     0.94258   0.76296   0.75576   0.00000  Uiso   1.00
O931   O     0.70231   0.75371   0.74642   0.00000  Uiso   1.00
O932   O     0.92537   0.83567   0.67554   0.00000  Uiso   1.00
O933   O     0.68510   0.82642   0.66620   0.00000  Uiso   1.00
O934   O     0.83814   0.88668   0.79549   0.00000  Uiso   1.00
Zn935  Zn    0.93786   0.83951   0.75623   0.00000  Uiso   1.00
Zn936  Zn    0.72881   0.82716   0.74376   0.00000  Uiso   1.00
loop_
_geom_bond_atom_site_label_1
_geom_bond_atom_site_label_2
_geom_bond_distance
_geom_bond_site_symmetry_2
_ccdc_geom_bond_type
C1     O43     1.291   .     A
C1     C3      1.403   .     S
C1     O145    1.278   1_455 S
C2     C4      1.454   .     S
C2     C16     1.403   .     A
C2     C10     1.394   .     A
C3     C265    1.339   1_455 S
C3     H180    1.088   .     S
C4     O45     1.300   .     A
C4     O148    1.292   1_455 S
C5     C6      1.403   .     S
C5     C367    1.339   1_545 S
C5     H343    1.088   1_545 S
C6     O46     1.291   .     A
C6     O99     1.278   .     S
C7     O48     1.301   .     A
C7     C9      1.442   .     S
C7     O101    1.288   .     S
C8     C22     1.387   .     A
C8     C486    1.404   1_554 S
C8     H502    1.084   1_554 S
C9     C21     1.382   .     A
C9     C22     1.394   .     A
C10    C479    1.379   .     S
C10    H140    1.082   1_455 S
C11    C13     1.400   .     A
C11    H37     1.083   .     S
C11    C478    1.379   1_554 S
C12    C16     1.418   .     A
C12    C481    1.442   .     S
C12    C485    1.431   .     S
C13    O42     1.379   .     S
C13    C480    1.442   1_554 S
C14    H27     1.109   .     S
C14    H26     1.113   .     S
C14    O50     1.401   .     S
C14    H25     1.107   .     S
C15    H28     1.114   .     S
C15    H29     1.111   .     S
C15    H30     1.109   .     S
C15    O42     1.408   .     S
C16    C20     1.411   .     A
C17    C21     1.395   .     A
C17    C480    1.431   1_554 S
C17    C486    1.430   1_554 S
C18    C19     1.386   .     A
C18    C476    1.404   .     S
C18    C485    1.430   .     S
C19    C20     1.376   .     A
C19    H33     1.084   .     S
C20    H38     1.083   .     S
C21    H35     1.068   .     S
C22    H75     1.083   .     S
H23    C126    1.083   1_455 S
H24    C315    1.088   1_545 S
H31    C161    1.088   .     S
H32    N39     1.029   .     S
H34    C476    1.084   .     S
H36    C62     1.082   .     S
N39    N40     1.290   .     D
N39    Zn52    2.024   .     S
N40    Zn51    2.024   .     S
N40    O50     1.347   .     S
O41    Zn51    1.951   .     S
O41    C53     1.278   .     S
O43    Zn52    1.978   .     S
O44    Zn51    1.957   .     S
O44    C56     1.292   .     S
O45    Zn52    1.908   .     S
O46    Zn51    1.978   .     S
O47    Zn52    1.951   .     S
O47    C110    1.278   1_455 S
O48    Zn51    1.908   .     S
O49    Zn52    1.957   .     S
O49    C111    1.288   1_455 S
C53    O95     1.291   .     A
C53    C55     1.403   .     S
C54    C56     1.454   .     S
C54    C68     1.403   .     A
C54    C62     1.394   .     A
C55    C161    1.339   .     S
C55    H232    1.088   .     S
C56    O97     1.300   .     A
C57    C58     1.403   .     S
C57    C419    1.339   1_545 S
C57    H395    1.088   1_545 S
C58    O98     1.291   .     A
C58    O151    1.278   .     S
C59    O100    1.301   .     A
C59    C61     1.442   .     S
C59    O153    1.288   .     S
C60    C74     1.387   .     A
C60    C538    1.404   1_554 S
C60    H554    1.084   1_554 S
C61    C73     1.382   .     A
C61    C74     1.394   .     A
C62    C531    1.379   .     S
C63    C65     1.400   .     A
C63    H89     1.083   .     S
C63    C530    1.379   1_554 S
C64    C68     1.418   .     A
C64    C533    1.442   .     S
C64    C537    1.431   .     S
C65    O94     1.379   .     S
C65    C532    1.442   1_554 S
C66    H79     1.109   .     S
C66    H78     1.113   .     S
C66    O102    1.401   .     S
C66    H77     1.107   .     S
C67    H80     1.114   .     S
C67    H81     1.111   .     S
C67    H82     1.109   .     S
C67    O94     1.408   .     S
C68    C72     1.411   .     A
C69    C73     1.395   .     A
C69    C532    1.431   1_554 S
C69    C538    1.430   1_554 S
C70    C71     1.386   .     A
C70    C528    1.404   .     S
C70    C537    1.430   .     S
C71    C72     1.376   .     A
C71    H85     1.084   .     S
C72    H90     1.083   .     S
C73    H87     1.068   .     S
C74    H127    1.083   .     S
H76    C367    1.088   1_545 S
H83    C213    1.088   .     S
H84    N91     1.029   .     S
H86    C528    1.084   .     S
H88    C114    1.082   .     S
N91    N92     1.290   .     D
N91    Zn104   2.024   .     S
N92    Zn103   2.024   .     S
N92    O102    1.347   .     S
O93    Zn103   1.951   .     S
O93    C105    1.278   .     S
O95    Zn104   1.978   .     S
O96    Zn103   1.957   .     S
O96    C108    1.292   .     S
O97    Zn104   1.908   .     S
O98    Zn103   1.978   .     S
O99    Zn104   1.951   .     S
O100   Zn103   1.908   .     S
O101   Zn104   1.957   .     S
C105   O147    1.291   .     A
C105   C107    1.403   .     S
C106   C108    1.454   .     S
C106   C120    1.403   .     A
C106   C114    1.394   .     A
C107   C213    1.339   .     S
C107   H284    1.088   .     S
C108   O149    1.300   .     A
C109   C110    1.403   .     S
C109   C315    1.339   1_645 S
C109   H447    1.088   1_545 S
C110   O150    1.291   .     A
C110   O47     1.278   1_655 S
C111   O152    1.301   .     A
C111   C113    1.442   .     S
C111   O49     1.288   1_655 S
C112   C126    1.387   .     A
C112   C590    1.404   1_554 S
C112   H606    1.084   1_554 S
C113   C125    1.382   .     A
C113   C126    1.394   .     A
C114   C583    1.379   .     S
C115   C117    1.400   .     A
C115   H141    1.083   .     S
C115   C582    1.379   1_554 S
C116   C120    1.418   .     A
C116   C585    1.442   .     S
C116   C589    1.431   .     S
C117   O146    1.379   .     S
C117   C584    1.442   1_554 S
C118   H131    1.109   .     S
C118   H130    1.113   .     S
C118   O154    1.401   .     S
C118   H129    1.107   .     S
C119   H132    1.114   .     S
C119   H133    1.111   .     S
C119   H134    1.109   .     S
C119   O146    1.408   .     S
C120   C124    1.411   .     A
C121   C125    1.395   .     A
C121   C584    1.431   1_554 S
C121   C590    1.430   1_554 S
C122   C123    1.386   .     A
C122   C580    1.404   .     S
C122   C589    1.430   .     S
C123   C124    1.376   .     A
C123   H137    1.084   .     S
C124   H142    1.083   .     S
C125   H139    1.068   .     S
C126   H23     1.083   1_655 S
H128   C419    1.088   1_545 S
H135   C265    1.088   .     S
H136   N143    1.029   .     S
H138   C580    1.084   .     S
H140   C10     1.082   1_655 S
N143   N144    1.290   .     D
N143   Zn156   2.024   .     S
N144   Zn155   2.024   .     S
N144   O154    1.347   .     S
O145   Zn155   1.951   .     S
O145   C1      1.278   1_655 S
O147   Zn156   1.978   .     S
O148   Zn155   1.957   .     S
O148   C4      1.292   1_655 S
O149   Zn156   1.908   .     S
O150   Zn155   1.978   .     S
O151   Zn156   1.951   .     S
O152   Zn155   1.908   .     S
O153   Zn156   1.957   .     S
C157   O199    1.291   .     A
C157   C159    1.403   .     S
C157   O301    1.278   1_455 S
C158   C160    1.454   .     S
C158   C172    1.403   .     A
C158   C166    1.394   .     A
C159   C421    1.339   1_455 S
C159   H336    1.088   .     S
C160   O201    1.300   .     A
C160   O304    1.292   1_455 S
C161   C162    1.403   .     S
C162   O202    1.291   .     A
C162   O255    1.278   .     S
C163   O204    1.301   .     A
C163   C165    1.442   .     S
C163   O257    1.288   .     S
C164   C178    1.387   .     A
C164   C642    1.404   1_554 S
C164   H658    1.084   1_554 S
C165   C177    1.382   .     A
C165   C178    1.394   .     A
C166   C635    1.379   .     S
C166   H296    1.082   1_455 S
C167   C169    1.400   .     A
C167   H193    1.083   .     S
C167   C634    1.379   1_554 S
C168   C172    1.418   .     A
C168   C637    1.442   .     S
C168   C641    1.431   .     S
C169   O198    1.379   .     S
C169   C636    1.442   1_554 S
C170   H183    1.109   .     S
C170   H182    1.113   .     S
C170   O206    1.401   .     S
C170   H181    1.107   .     S
C171   H184    1.114   .     S
C171   H185    1.111   .     S
C171   H186    1.109   .     S
C171   O198    1.408   .     S
C172   C176    1.411   .     A
C173   C177    1.395   .     A
C173   C636    1.431   1_554 S
C173   C642    1.430   1_554 S
C174   C175    1.386   .     A
C174   C632    1.404   .     S
C174   C641    1.430   .     S
C175   C176    1.376   .     A
C175   H189    1.084   .     S
C176   H194    1.083   .     S
C177   H191    1.068   .     S
C178   H231    1.083   .     S
H179   C282    1.083   1_455 S
H187   C317    1.088   .     S
H188   N195    1.029   .     S
H190   C632    1.084   .     S
H192   C218    1.082   .     S
N195   N196    1.290   .     D
N195   Zn208   2.024   .     S
N196   Zn207   2.024   .     S
N196   O206    1.347   .     S
O197   Zn207   1.951   .     S
O197   C209    1.278   .     S
O199   Zn208   1.978   .     S
O200   Zn207   1.957   .     S
O200   C212    1.292   .     S
O201   Zn208   1.908   .     S
O202   Zn207   1.978   .     S
O203   Zn208   1.951   .     S
O203   C266    1.278   1_455 S
O204   Zn207   1.908   .     S
O205   Zn208   1.957   .     S
O205   C267    1.288   1_455 S
C209   O251    1.291   .     A
C209   C211    1.403   .     S
C210   C212    1.454   .     S
C210   C224    1.403   .     A
C210   C218    1.394   .     A
C211   C317    1.339   .     S
C211   H388    1.088   .     S
C212   O253    1.300   .     A
C213   C214    1.403   .     S
C214   O254    1.291   .     A
C214   O307    1.278   .     S
C215   O256    1.301   .     A
C215   C217    1.442   .     S
C215   O309    1.288   .     S
C216   C230    1.387   .     A
C216   C694    1.404   1_554 S
C216   H710    1.084   1_554 S
C217   C229    1.382   .     A
C217   C230    1.394   .     A
C218   C687    1.379   .     S
C219   C221    1.400   .     A
C219   H245    1.083   .     S
C219   C686    1.379   1_554 S
C220   C224    1.418   .     A
C220   C689    1.442   .     S
C220   C693    1.431   .     S
C221   O250    1.379   .     S
C221   C688    1.442   1_554 S
C222   H235    1.109   .     S
C222   H234    1.113   .     S
C222   O258    1.401   .     S
C222   H233    1.107   .     S
C223   H236    1.114   .     S
C223   H237    1.111   .     S
C223   H238    1.109   .     S
C223   O250    1.408   .     S
C224   C228    1.411   .     A
C225   C229    1.395   .     A
C225   C688    1.431   1_554 S
C225   C694    1.430   1_554 S
C226   C227    1.386   .     A
C226   C684    1.404   .     S
C226   C693    1.430   .     S
C227   C228    1.376   .     A
C227   H241    1.084   .     S
C228   H246    1.083   .     S
C229   H243    1.068   .     S
C230   H283    1.083   .     S
H239   C369    1.088   .     S
H240   N247    1.029   .     S
H242   C684    1.084   .     S
H244   C270    1.082   .     S
N247   N248    1.290   .     D
N247   Zn260   2.024   .     S
N248   Zn259   2.024   .     S
N248   O258    1.347   .     S
O249   Zn259   1.951   .     S
O249   C261    1.278   .     S
O251   Zn260   1.978   .     S
O252   Zn259   1.957   .     S
O252   C264    1.292   .     S
O253   Zn260   1.908   .     S
O254   Zn259   1.978   .     S
O255   Zn260   1.951   .     S
O256   Zn259   1.908   .     S
O257   Zn260   1.957   .     S
C261   O303    1.291   .     A
C261   C263    1.403   .     S
C262   C264    1.454   .     S
C262   C276    1.403   .     A
C262   C270    1.394   .     A
C263   C369    1.339   .     S
C263   H440    1.088   .     S
C264   O305    1.300   .     A
C265   C266    1.403   .     S
C265   C3      1.339   1_655 S
C266   O306    1.291   .     A
C266   O203    1.278   1_655 S
C267   O308    1.301   .     A
C267   C269    1.442   .     S
C267   O205    1.288   1_655 S
C268   C282    1.387   .     A
C268   C746    1.404   1_554 S
C268   H762    1.084   1_554 S
C269   C281    1.382   .     A
C269   C282    1.394   .     A
C270   C739    1.379   .     S
C271   C273    1.400   .     A
C271   H297    1.083   .     S
C271   C738    1.379   1_554 S
C272   C276    1.418   .     A
C272   C741    1.442   .     S
C272   C745    1.431   .     S
C273   O302    1.379   .     S
C273   C740    1.442   1_554 S
C274   H287    1.109   .     S
C274   H286    1.113   .     S
C274   O310    1.401   .     S
C274   H285    1.107   .     S
C275   H288    1.114   .     S
C275   H289    1.111   .     S
C275   H290    1.109   .     S
C275   O302    1.408   .     S
C276   C280    1.411   .     A
C277   C281    1.395   .     A
C277   C740    1.431   1_554 S
C277   C746    1.430   1_554 S
C278   C279    1.386   .     A
C278   C736    1.404   .     S
C278   C745    1.430   .     S
C279   C280    1.376   .     A
C279   H293    1.084   .     S
C280   H298    1.083   .     S
C281   H295    1.068   .     S
C282   H179    1.083   1_655 S
H291   C421    1.088   .     S
H292   N299    1.029   .     S
H294   C736    1.084   .     S
H296   C166    1.082   1_655 S
N299   N300    1.290   .     D
N299   Zn312   2.024   .     S
N300   Zn311   2.024   .     S
N300   O310    1.347   .     S
O301   Zn311   1.951   .     S
O301   C157    1.278   1_655 S
O303   Zn312   1.978   .     S
O304   Zn311   1.957   .     S
O304   C160    1.292   1_655 S
O305   Zn312   1.908   .     S
O306   Zn311   1.978   .     S
O307   Zn312   1.951   .     S
O308   Zn311   1.908   .     S
O309   Zn312   1.957   .     S
C313   O355    1.291   .     A
C313   C315    1.403   .     S
C313   O457    1.278   1_455 S
C314   C316    1.454   .     S
C314   C328    1.403   .     A
C314   C322    1.394   .     A
C315   C109    1.339   1_465 S
C315   H24     1.088   1_565 S
C316   O357    1.300   .     A
C316   O460    1.292   1_455 S
C317   C318    1.403   .     S
C318   O358    1.291   .     A
C318   O411    1.278   .     S
C319   O360    1.301   .     A
C319   C321    1.442   .     S
C319   O413    1.288   .     S
C320   C334    1.387   .     A
C320   C798    1.404   1_554 S
C320   H814    1.084   1_554 S
C321   C333    1.382   .     A
C321   C334    1.394   .     A
C322   C791    1.379   .     S
C322   H452    1.082   1_455 S
C323   C325    1.400   .     A
C323   H349    1.083   .     S
C323   C790    1.379   1_554 S
C324   C328    1.418   .     A
C324   C793    1.442   .     S
C324   C797    1.431   .     S
C325   O354    1.379   .     S
C325   C792    1.442   1_554 S
C326   H339    1.109   .     S
C326   H338    1.113   .     S
C326   O362    1.401   .     S
C326   H337    1.107   .     S
C327   H340    1.114   .     S
C327   H341    1.111   .     S
C327   H342    1.109   .     S
C327   O354    1.408   .     S
C328   C332    1.411   .     A
C329   C333    1.395   .     A
C329   C792    1.431   1_554 S
C329   C798    1.430   1_554 S
C330   C331    1.386   .     A
C330   C788    1.404   .     S
C330   C797    1.430   .     S
C331   C332    1.376   .     A
C331   H345    1.084   .     S
C332   H350    1.083   .     S
C333   H347    1.068   .     S
C334   H387    1.083   .     S
H335   C438    1.083   1_455 S
H343   C5      1.088   1_565 S
H344   N351    1.029   .     S
H346   C788    1.084   .     S
H348   C374    1.082   .     S
N351   N352    1.290   .     D
N351   Zn364   2.024   .     S
N352   Zn363   2.024   .     S
N352   O362    1.347   .     S
O353   Zn363   1.951   .     S
O353   C365    1.278   .     S
O355   Zn364   1.978   .     S
O356   Zn363   1.957   .     S
O356   C368    1.292   .     S
O357   Zn364   1.908   .     S
O358   Zn363   1.978   .     S
O359   Zn364   1.951   .     S
O359   C422    1.278   1_455 S
O360   Zn363   1.908   .     S
O361   Zn364   1.957   .     S
O361   C423    1.288   1_455 S
C365   O407    1.291   .     A
C365   C367    1.403   .     S
C366   C368    1.454   .     S
C366   C380    1.403   .     A
C366   C374    1.394   .     A
C367   C5      1.339   1_565 S
C367   H76     1.088   1_565 S
C368   O409    1.300   .     A
C369   C370    1.403   .     S
C370   O410    1.291   .     A
C370   O463    1.278   .     S
C371   O412    1.301   .     A
C371   C373    1.442   .     S
C371   O465    1.288   .     S
C372   C386    1.387   .     A
C372   C850    1.404   1_554 S
C372   H866    1.084   1_554 S
C373   C385    1.382   .     A
C373   C386    1.394   .     A
C374   C843    1.379   .     S
C375   C377    1.400   .     A
C375   H401    1.083   .     S
C375   C842    1.379   1_554 S
C376   C380    1.418   .     A
C376   C845    1.442   .     S
C376   C849    1.431   .     S
C377   O406    1.379   .     S
C377   C844    1.442   1_554 S
C378   H391    1.109   .     S
C378   H390    1.113   .     S
C378   O414    1.401   .     S
C378   H389    1.107   .     S
C379   H392    1.114   .     S
C379   H393    1.111   .     S
C379   H394    1.109   .     S
C379   O406    1.408   .     S
C380   C384    1.411   .     A
C381   C385    1.395   .     A
C381   C844    1.431   1_554 S
C381   C850    1.430   1_554 S
C382   C383    1.386   .     A
C382   C840    1.404   .     S
C382   C849    1.430   .     S
C383   C384    1.376   .     A
C383   H397    1.084   .     S
C384   H402    1.083   .     S
C385   H399    1.068   .     S
C386   H439    1.083   .     S
H395   C57     1.088   1_565 S
H396   N403    1.029   .     S
H398   C840    1.084   .     S
H400   C426    1.082   .     S
N403   N404    1.290   .     D
N403   Zn416   2.024   .     S
N404   Zn415   2.024   .     S
N404   O414    1.347   .     S
O405   Zn415   1.951   .     S
O405   C417    1.278   .     S
O407   Zn416   1.978   .     S
O408   Zn415   1.957   .     S
O408   C420    1.292   .     S
O409   Zn416   1.908   .     S
O410   Zn415   1.978   .     S
O411   Zn416   1.951   .     S
O412   Zn415   1.908   .     S
O413   Zn416   1.957   .     S
C417   O459    1.291   .     A
C417   C419    1.403   .     S
C418   C420    1.454   .     S
C418   C432    1.403   .     A
C418   C426    1.394   .     A
C419   C57     1.339   1_565 S
C419   H128    1.088   1_565 S
C420   O461    1.300   .     A
C421   C422    1.403   .     S
C421   C159    1.339   1_655 S
C422   O462    1.291   .     A
C422   O359    1.278   1_655 S
C423   O464    1.301   .     A
C423   C425    1.442   .     S
C423   O361    1.288   1_655 S
C424   C438    1.387   .     A
C424   C902    1.404   1_554 S
C424   H918    1.084   1_554 S
C425   C437    1.382   .     A
C425   C438    1.394   .     A
C426   C895    1.379   .     S
C427   C429    1.400   .     A
C427   H453    1.083   .     S
C427   C894    1.379   1_554 S
C428   C432    1.418   .     A
C428   C897    1.442   .     S
C428   C901    1.431   .     S
C429   O458    1.379   .     S
C429   C896    1.442   1_554 S
C430   H443    1.109   .     S
C430   H442    1.113   .     S
C430   O466    1.401   .     S
C430   H441    1.107   .     S
C431   H444    1.114   .     S
C431   H445    1.111   .     S
C431   H446    1.109   .     S
C431   O458    1.408   .     S
C432   C436    1.411   .     A
C433   C437    1.395   .     A
C433   C896    1.431   1_554 S
C433   C902    1.430   1_554 S
C434   C435    1.386   .     A
C434   C892    1.404   .     S
C434   C901    1.430   .     S
C435   C436    1.376   .     A
C435   H449    1.084   .     S
C436   H454    1.083   .     S
C437   H451    1.068   .     S
C438   H335    1.083   1_655 S
H447   C109    1.088   1_565 S
H448   N455    1.029   .     S
H450   C892    1.084   .     S
H452   C322    1.082   1_655 S
N455   N456    1.290   .     D
N455   Zn468   2.024   .     S
N456   Zn467   2.024   .     S
N456   O466    1.347   .     S
O457   Zn467   1.951   .     S
O457   C313    1.278   1_655 S
O459   Zn468   1.978   .     S
O460   Zn467   1.957   .     S
O460   C316    1.292   1_655 S
O461   Zn468   1.908   .     S
O462   Zn467   1.978   .     S
O463   Zn468   1.951   .     S
O464   Zn467   1.908   .     S
O465   Zn468   1.957   .     S
C469   O511    1.291   .     A
C469   C471    1.403   .     S
C469   O613    1.278   1_455 S
C470   C472    1.454   .     S
C470   C484    1.403   .     A
C470   C478    1.394   .     A
C471   C733    1.339   1_455 S
C471   H648    1.088   .     S
C472   O513    1.300   .     A
C472   O616    1.292   1_455 S
C473   C474    1.403   .     S
C473   C835    1.339   1_545 S
C473   H811    1.088   1_545 S
C474   O514    1.291   .     A
C474   O567    1.278   .     S
C475   O516    1.301   .     A
C475   C477    1.442   .     S
C475   O569    1.288   .     S
C476   C490    1.387   .     A
C477   C489    1.382   .     A
C477   C490    1.394   .     A
C478   C11     1.379   1_556 S
C478   H608    1.082   1_455 S
C479   C481    1.400   .     A
C479   H505    1.083   .     S
C480   C484    1.418   .     A
C480   C13     1.442   1_556 S
C480   C17     1.431   1_556 S
C481   O510    1.379   .     S
C482   H495    1.109   .     S
C482   H494    1.113   .     S
C482   O518    1.401   .     S
C482   H493    1.107   .     S
C483   H496    1.114   .     S
C483   H497    1.111   .     S
C483   H498    1.109   .     S
C483   O510    1.408   .     S
C484   C488    1.411   .     A
C485   C489    1.395   .     A
C486   C487    1.386   .     A
C486   C8      1.404   1_556 S
C486   C17     1.430   1_556 S
C487   C488    1.376   .     A
C487   H501    1.084   .     S
C488   H506    1.083   .     S
C489   H503    1.068   .     S
C490   H543    1.083   .     S
H491   C594    1.083   1_455 S
H492   C783    1.088   1_545 S
H499   C629    1.088   .     S
H500   N507    1.029   .     S
H502   C8      1.084   1_556 S
H504   C530    1.082   .     S
N507   N508    1.290   .     D
N507   Zn520   2.024   .     S
N508   Zn519   2.024   .     S
N508   O518    1.347   .     S
O509   Zn519   1.951   .     S
O509   C521    1.278   .     S
O511   Zn520   1.978   .     S
O512   Zn519   1.957   .     S
O512   C524    1.292   .     S
O513   Zn520   1.908   .     S
O514   Zn519   1.978   .     S
O515   Zn520   1.951   .     S
O515   C578    1.278   1_455 S
O516   Zn519   1.908   .     S
O517   Zn520   1.957   .     S
O517   C579    1.288   1_455 S
C521   O563    1.291   .     A
C521   C523    1.403   .     S
C522   C524    1.454   .     S
C522   C536    1.403   .     A
C522   C530    1.394   .     A
C523   C629    1.339   .     S
C523   H700    1.088   .     S
C524   O565    1.300   .     A
C525   C526    1.403   .     S
C525   C887    1.339   1_545 S
C525   H863    1.088   1_545 S
C526   O566    1.291   .     A
C526   O619    1.278   .     S
C527   O568    1.301   .     A
C527   C529    1.442   .     S
C527   O621    1.288   .     S
C528   C542    1.387   .     A
C529   C541    1.382   .     A
C529   C542    1.394   .     A
C530   C63     1.379   1_556 S
C531   C533    1.400   .     A
C531   H557    1.083   .     S
C532   C536    1.418   .     A
C532   C65     1.442   1_556 S
C532   C69     1.431   1_556 S
C533   O562    1.379   .     S
C534   H547    1.109   .     S
C534   H546    1.113   .     S
C534   O570    1.401   .     S
C534   H545    1.107   .     S
C535   H548    1.114   .     S
C535   H549    1.111   .     S
C535   H550    1.109   .     S
C535   O562    1.408   .     S
C536   C540    1.411   .     A
C537   C541    1.395   .     A
C538   C539    1.386   .     A
C538   C60     1.404   1_556 S
C538   C69     1.430   1_556 S
C539   C540    1.376   .     A
C539   H553    1.084   .     S
C540   H558    1.083   .     S
C541   H555    1.068   .     S
C542   H595    1.083   .     S
H544   C835    1.088   1_545 S
H551   C681    1.088   .     S
H552   N559    1.029   .     S
H554   C60     1.084   1_556 S
H556   C582    1.082   .     S
N559   N560    1.290   .     D
N559   Zn572   2.024   .     S
N560   Zn571   2.024   .     S
N560   O570    1.347   .     S
O561   Zn571   1.951   .     S
O561   C573    1.278   .     S
O563   Zn572   1.978   .     S
O564   Zn571   1.957   .     S
O564   C576    1.292   .     S
O565   Zn572   1.908   .     S
O566   Zn571   1.978   .     S
O567   Zn572   1.951   .     S
O568   Zn571   1.908   .     S
O569   Zn572   1.957   .     S
C573   O615    1.291   .     A
C573   C575    1.403   .     S
C574   C576    1.454   .     S
C574   C588    1.403   .     A
C574   C582    1.394   .     A
C575   C681    1.339   .     S
C575   H752    1.088   .     S
C576   O617    1.300   .     A
C577   C578    1.403   .     S
C577   C783    1.339   1_645 S
C577   H915    1.088   1_545 S
C578   O618    1.291   .     A
C578   O515    1.278   1_655 S
C579   O620    1.301   .     A
C579   C581    1.442   .     S
C579   O517    1.288   1_655 S
C580   C594    1.387   .     A
C581   C593    1.382   .     A
C581   C594    1.394   .     A
C582   C115    1.379   1_556 S
C583   C585    1.400   .     A
C583   H609    1.083   .     S
C584   C588    1.418   .     A
C584   C117    1.442   1_556 S
C584   C121    1.431   1_556 S
C585   O614    1.379   .     S
C586   H599    1.109   .     S
C586   H598    1.113   .     S
C586   O622    1.401   .     S
C586   H597    1.107   .     S
C587   H600    1.114   .     S
C587   H601    1.111   .     S
C587   H602    1.109   .     S
C587   O614    1.408   .     S
C588   C592    1.411   .     A
C589   C593    1.395   .     A
C590   C591    1.386   .     A
C590   C112    1.404   1_556 S
C590   C121    1.430   1_556 S
C591   C592    1.376   .     A
C591   H605    1.084   .     S
C592   H610    1.083   .     S
C593   H607    1.068   .     S
C594   H491    1.083   1_655 S
H596   C887    1.088   1_545 S
H603   C733    1.088   .     S
H604   N611    1.029   .     S
H606   C112    1.084   1_556 S
H608   C478    1.082   1_655 S
N611   N612    1.290   .     D
N611   Zn624   2.024   .     S
N612   Zn623   2.024   .     S
N612   O622    1.347   .     S
O613   Zn623   1.951   .     S
O613   C469    1.278   1_655 S
O615   Zn624   1.978   .     S
O616   Zn623   1.957   .     S
O616   C472    1.292   1_655 S
O617   Zn624   1.908   .     S
O618   Zn623   1.978   .     S
O619   Zn624   1.951   .     S
O620   Zn623   1.908   .     S
O621   Zn624   1.957   .     S
C625   O667    1.291   .     A
C625   C627    1.403   .     S
C625   O769    1.278   1_455 S
C626   C628    1.454   .     S
C626   C640    1.403   .     A
C626   C634    1.394   .     A
C627   C889    1.339   1_455 S
C627   H804    1.088   .     S
C628   O669    1.300   .     A
C628   O772    1.292   1_455 S
C629   C630    1.403   .     S
C630   O670    1.291   .     A
C630   O723    1.278   .     S
C631   O672    1.301   .     A
C631   C633    1.442   .     S
C631   O725    1.288   .     S
C632   C646    1.387   .     A
C633   C645    1.382   .     A
C633   C646    1.394   .     A
C634   C167    1.379   1_556 S
C634   H764    1.082   1_455 S
C635   C637    1.400   .     A
C635   H661    1.083   .     S
C636   C640    1.418   .     A
C636   C169    1.442   1_556 S
C636   C173    1.431   1_556 S
C637   O666    1.379   .     S
C638   H651    1.109   .     S
C638   H650    1.113   .     S
C638   O674    1.401   .     S
C638   H649    1.107   .     S
C639   H652    1.114   .     S
C639   H653    1.111   .     S
C639   H654    1.109   .     S
C639   O666    1.408   .     S
C640   C644    1.411   .     A
C641   C645    1.395   .     A
C642   C643    1.386   .     A
C642   C164    1.404   1_556 S
C642   C173    1.430   1_556 S
C643   C644    1.376   .     A
C643   H657    1.084   .     S
C644   H662    1.083   .     S
C645   H659    1.068   .     S
C646   H699    1.083   .     S
H647   C750    1.083   1_455 S
H655   C785    1.088   .     S
H656   N663    1.029   .     S
H658   C164    1.084   1_556 S
H660   C686    1.082   .     S
N663   N664    1.290   .     D
N663   Zn676   2.024   .     S
N664   Zn675   2.024   .     S
N664   O674    1.347   .     S
O665   Zn675   1.951   .     S
O665   C677    1.278   .     S
O667   Zn676   1.978   .     S
O668   Zn675   1.957   .     S
O668   C680    1.292   .     S
O669   Zn676   1.908   .     S
O670   Zn675   1.978   .     S
O671   Zn676   1.951   .     S
O671   C734    1.278   1_455 S
O672   Zn675   1.908   .     S
O673   Zn676   1.957   .     S
O673   C735    1.288   1_455 S
C677   O719    1.291   .     A
C677   C679    1.403   .     S
C678   C680    1.454   .     S
C678   C692    1.403   .     A
C678   C686    1.394   .     A
C679   C785    1.339   .     S
C679   H856    1.088   .     S
C680   O721    1.300   .     A
C681   C682    1.403   .     S
C682   O722    1.291   .     A
C682   O775    1.278   .     S
C683   O724    1.301   .     A
C683   C685    1.442   .     S
C683   O777    1.288   .     S
C684   C698    1.387   .     A
C685   C697    1.382   .     A
C685   C698    1.394   .     A
C686   C219    1.379   1_556 S
C687   C689    1.400   .     A
C687   H713    1.083   .     S
C688   C692    1.418   .     A
C688   C221    1.442   1_556 S
C688   C225    1.431   1_556 S
C689   O718    1.379   .     S
C690   H703    1.109   .     S
C690   H702    1.113   .     S
C690   O726    1.401   .     S
C690   H701    1.107   .     S
C691   H704    1.114   .     S
C691   H705    1.111   .     S
C691   H706    1.109   .     S
C691   O718    1.408   .     S
C692   C696    1.411   .     A
C693   C697    1.395   .     A
C694   C695    1.386   .     A
C694   C216    1.404   1_556 S
C694   C225    1.430   1_556 S
C695   C696    1.376   .     A
C695   H709    1.084   .     S
C696   H714    1.083   .     S
C697   H711    1.068   .     S
C698   H751    1.083   .     S
H707   C837    1.088   .     S
H708   N715    1.029   .     S
H710   C216    1.084   1_556 S
H712   C738    1.082   .     S
N715   N716    1.290   .     D
N715   Zn728   2.024   .     S
N716   Zn727   2.024   .     S
N716   O726    1.347   .     S
O717   Zn727   1.951   .     S
O717   C729    1.278   .     S
O719   Zn728   1.978   .     S
O720   Zn727   1.957   .     S
O720   C732    1.292   .     S
O721   Zn728   1.908   .     S
O722   Zn727   1.978   .     S
O723   Zn728   1.951   .     S
O724   Zn727   1.908   .     S
O725   Zn728   1.957   .     S
C729   O771    1.291   .     A
C729   C731    1.403   .     S
C730   C732    1.454   .     S
C730   C744    1.403   .     A
C730   C738    1.394   .     A
C731   C837    1.339   .     S
C731   H908    1.088   .     S
C732   O773    1.300   .     A
C733   C734    1.403   .     S
C733   C471    1.339   1_655 S
C734   O774    1.291   .     A
C734   O671    1.278   1_655 S
C735   O776    1.301   .     A
C735   C737    1.442   .     S
C735   O673    1.288   1_655 S
C736   C750    1.387   .     A
C737   C749    1.382   .     A
C737   C750    1.394   .     A
C738   C271    1.379   1_556 S
C739   C741    1.400   .     A
C739   H765    1.083   .     S
C740   C744    1.418   .     A
C740   C273    1.442   1_556 S
C740   C277    1.431   1_556 S
C741   O770    1.379   .     S
C742   H755    1.109   .     S
C742   H754    1.113   .     S
C742   O778    1.401   .     S
C742   H753    1.107   .     S
C743   H756    1.114   .     S
C743   H757    1.111   .     S
C743   H758    1.109   .     S
C743   O770    1.408   .     S
C744   C748    1.411   .     A
C745   C749    1.395   .     A
C746   C747    1.386   .     A
C746   C268    1.404   1_556 S
C746   C277    1.430   1_556 S
C747   C748    1.376   .     A
C747   H761    1.084   .     S
C748   H766    1.083   .     S
C749   H763    1.068   .     S
C750   H647    1.083   1_655 S
H759   C889    1.088   .     S
H760   N767    1.029   .     S
H762   C268    1.084   1_556 S
H764   C634    1.082   1_655 S
N767   N768    1.290   .     D
N767   Zn780   2.024   .     S
N768   Zn779   2.024   .     S
N768   O778    1.347   .     S
O769   Zn779   1.951   .     S
O769   C625    1.278   1_655 S
O771   Zn780   1.978   .     S
O772   Zn779   1.957   .     S
O772   C628    1.292   1_655 S
O773   Zn780   1.908   .     S
O774   Zn779   1.978   .     S
O775   Zn780   1.951   .     S
O776   Zn779   1.908   .     S
O777   Zn780   1.957   .     S
C781   O823    1.291   .     A
C781   C783    1.403   .     S
C781   O925    1.278   1_455 S
C782   C784    1.454   .     S
C782   C796    1.403   .     A
C782   C790    1.394   .     A
C783   C577    1.339   1_465 S
C783   H492    1.088   1_565 S
C784   O825    1.300   .     A
C784   O928    1.292   1_455 S
C785   C786    1.403   .     S
C786   O826    1.291   .     A
C786   O879    1.278   .     S
C787   O828    1.301   .     A
C787   C789    1.442   .     S
C787   O881    1.288   .     S
C788   C802    1.387   .     A
C789   C801    1.382   .     A
C789   C802    1.394   .     A
C790   C323    1.379   1_556 S
C790   H920    1.082   1_455 S
C791   C793    1.400   .     A
C791   H817    1.083   .     S
C792   C796    1.418   .     A
C792   C325    1.442   1_556 S
C792   C329    1.431   1_556 S
C793   O822    1.379   .     S
C794   H807    1.109   .     S
C794   H806    1.113   .     S
C794   O830    1.401   .     S
C794   H805    1.107   .     S
C795   H808    1.114   .     S
C795   H809    1.111   .     S
C795   H810    1.109   .     S
C795   O822    1.408   .     S
C796   C800    1.411   .     A
C797   C801    1.395   .     A
C798   C799    1.386   .     A
C798   C320    1.404   1_556 S
C798   C329    1.430   1_556 S
C799   C800    1.376   .     A
C799   H813    1.084   .     S
C800   H818    1.083   .     S
C801   H815    1.068   .     S
C802   H855    1.083   .     S
H803   C906    1.083   1_455 S
H811   C473    1.088   1_565 S
H812   N819    1.029   .     S
H814   C320    1.084   1_556 S
H816   C842    1.082   .     S
N819   N820    1.290   .     D
N819   Zn832   2.024   .     S
N820   Zn831   2.024   .     S
N820   O830    1.347   .     S
O821   Zn831   1.951   .     S
O821   C833    1.278   .     S
O823   Zn832   1.978   .     S
O824   Zn831   1.957   .     S
O824   C836    1.292   .     S
O825   Zn832   1.908   .     S
O826   Zn831   1.978   .     S
O827   Zn832   1.951   .     S
O827   C890    1.278   1_455 S
O828   Zn831   1.908   .     S
O829   Zn832   1.957   .     S
O829   C891    1.288   1_455 S
C833   O875    1.291   .     A
C833   C835    1.403   .     S
C834   C836    1.454   .     S
C834   C848    1.403   .     A
C834   C842    1.394   .     A
C835   C473    1.339   1_565 S
C835   H544    1.088   1_565 S
C836   O877    1.300   .     A
C837   C838    1.403   .     S
C838   O878    1.291   .     A
C838   O931    1.278   .     S
C839   O880    1.301   .     A
C839   C841    1.442   .     S
C839   O933    1.288   .     S
C840   C854    1.387   .     A
C841   C853    1.382   .     A
C841   C854    1.394   .     A
C842   C375    1.379   1_556 S
C843   C845    1.400   .     A
C843   H869    1.083   .     S
C844   C848    1.418   .     A
C844   C377    1.442   1_556 S
C844   C381    1.431   1_556 S
C845   O874    1.379   .     S
C846   H859    1.109   .     S
C846   H858    1.113   .     S
C846   O882    1.401   .     S
C846   H857    1.107   .     S
C847   H860    1.114   .     S
C847   H861    1.111   .     S
C847   H862    1.109   .     S
C847   O874    1.408   .     S
C848   C852    1.411   .     A
C849   C853    1.395   .     A
C850   C851    1.386   .     A
C850   C372    1.404   1_556 S
C850   C381    1.430   1_556 S
C851   C852    1.376   .     A
C851   H865    1.084   .     S
C852   H870    1.083   .     S
C853   H867    1.068   .     S
C854   H907    1.083   .     S
H863   C525    1.088   1_565 S
H864   N871    1.029   .     S
H866   C372    1.084   1_556 S
H868   C894    1.082   .     S
N871   N872    1.290   .     D
N871   Zn884   2.024   .     S
N872   Zn883   2.024   .     S
N872   O882    1.347   .     S
O873   Zn883   1.951   .     S
O873   C885    1.278   .     S
O875   Zn884   1.978   .     S
O876   Zn883   1.957   .     S
O876   C888    1.292   .     S
O877   Zn884   1.908   .     S
O878   Zn883   1.978   .     S
O879   Zn884   1.951   .     S
O880   Zn883   1.908   .     S
O881   Zn884   1.957   .     S
C885   O927    1.291   .     A
C885   C887    1.403   .     S
C886   C888    1.454   .     S
C886   C900    1.403   .     A
C886   C894    1.394   .     A
C887   C525    1.339   1_565 S
C887   H596    1.088   1_565 S
C888   O929    1.300   .     A
C889   C890    1.403   .     S
C889   C627    1.339   1_655 S
C890   O930    1.291   .     A
C890   O827    1.278   1_655 S
C891   O932    1.301   .     A
C891   C893    1.442   .     S
C891   O829    1.288   1_655 S
C892   C906    1.387   .     A
C893   C905    1.382   .     A
C893   C906    1.394   .     A
C894   C427    1.379   1_556 S
C895   C897    1.400   .     A
C895   H921    1.083   .     S
C896   C900    1.418   .     A
C896   C429    1.442   1_556 S
C896   C433    1.431   1_556 S
C897   O926    1.379   .     S
C898   H911    1.109   .     S
C898   H910    1.113   .     S
C898   O934    1.401   .     S
C898   H909    1.107   .     S
C899   H912    1.114   .     S
C899   H913    1.111   .     S
C899   H914    1.109   .     S
C899   O926    1.408   .     S
C900   C904    1.411   .     A
C901   C905    1.395   .     A
C902   C903    1.386   .     A
C902   C424    1.404   1_556 S
C902   C433    1.430   1_556 S
C903   C904    1.376   .     A
C903   H917    1.084   .     S
C904   H922    1.083   .     S
C905   H919    1.068   .     S
C906   H803    1.083   1_655 S
H915   C577    1.088   1_565 S
H916   N923    1.029   .     S
H918   C424    1.084   1_556 S
H920   C790    1.082   1_655 S
N923   N924    1.290   .     D
N923   Zn936   2.024   .     S
N924   Zn935   2.024   .     S
N924   O934    1.347   .     S
O925   Zn935   1.951   .     S
O925   C781    1.278   1_655 S
O927   Zn936   1.978   .     S
O928   Zn935   1.957   .     S
O928   C784    1.292   1_655 S
O929   Zn936   1.908   .     S
O930   Zn935   1.978   .     S
O931   Zn936   1.951   .     S
O932   Zn935   1.908   .     S
O933   Zn936   1.957   .     S
