data_str_m3_o1_o18_pcu_sym.58
_audit_creation_date              2020-01-03
_audit_creation_method            'Materials Studio'
_symmetry_space_group_name_H-M    'P1'
_symmetry_Int_Tables_number       1
_symmetry_cell_setting            triclinic
loop_
_symmetry_equiv_pos_as_xyz
  x,y,z
_cell_length_a                    29.4638
_cell_length_b                    32.4553
_cell_length_c                    30.9787
_cell_angle_alpha                 89.6832
_cell_angle_beta                  68.0022
_cell_angle_gamma                 88.4643
loop_
_atom_site_label
_atom_site_type_symbol
_atom_site_fract_x
_atom_site_fract_y
_atom_site_fract_z
_atom_site_U_iso_or_equiv
_atom_site_adp_type
_atom_site_occupancy
O1     O     0.12846   0.22775   0.25000   0.00000  Uiso   1.00
O2     O     0.20488   0.10558   0.24999   0.00000  Uiso   1.00
O3     O     0.20490   0.22774   0.25000   0.00000  Uiso   1.00
O4     O     0.12843   0.10559   0.25000   0.00000  Uiso   1.00
C5     C     0.16653   0.24675   0.24829   0.00000  Uiso   1.00
C6     C     0.16819   0.08656   0.24817   0.00000  Uiso   1.00
O7     O     0.10661   0.16667   0.31612   0.00000  Uiso   1.00
O8     O     0.22672   0.16666   0.18387   0.00000  Uiso   1.00
O9     O     0.18305   0.16666   0.31612   0.00000  Uiso   1.00
O10    O     0.15028   0.16667   0.18388   0.00000  Uiso   1.00
C11    C     0.13613   0.16737   0.33803   0.00000  Uiso   1.00
C12    C     0.19709   0.16723   0.16197   0.00000  Uiso   1.00
Zn13   Zn    0.11562   0.16667   0.25000   0.00000  Uiso   1.00
Zn14   Zn    0.21771   0.16666   0.25000   0.00000  Uiso   1.00
C15    C     0.11666   0.17104   0.38861   0.00000  Uiso   1.00
C16    C     0.21492   0.17450   0.11201   0.00000  Uiso   1.00
C17    C     0.05231   0.16274   0.46403   0.00000  Uiso   1.00
C18    C     0.27036   0.20699   0.04260   0.00000  Uiso   1.00
C19    C     0.06812   0.16184   0.41567   0.00000  Uiso   1.00
C20    C     0.25962   0.19321   0.08805   0.00000  Uiso   1.00
C21    C     0.14817   0.18355   0.40984   0.00000  Uiso   1.00
C22    C     0.18191   0.16898   0.09027   0.00000  Uiso   1.00
C23    C     0.13316   0.18504   0.45820   0.00000  Uiso   1.00
C24    C     0.18969   0.18609   0.04685   0.00000  Uiso   1.00
C25    C     0.08485   0.17314   0.48546   0.00000  Uiso   1.00
C26    C     0.23567   0.20347   0.02177   0.00000  Uiso   1.00
C27    C     0.16637   0.19448   0.47982   0.00000  Uiso   1.00
C28    C     0.15323   0.18518   0.02748   0.00000  Uiso   1.00
C29    C     0.10401   0.17570   0.05436   0.00000  Uiso   1.00
C30    C     0.21245   0.21213   0.45539   0.00000  Uiso   1.00
C31    C     0.07022   0.17041   0.03359   0.00000  Uiso   1.00
C32    C     0.24614   0.21719   0.47648   0.00000  Uiso   1.00
H33    H     0.03315   0.16230   0.05506   0.00000  Uiso   1.00
H34    H     0.28091   0.23103   0.45690   0.00000  Uiso   1.00
H35    H     0.14960   0.15159   0.10834   0.00000  Uiso   1.00
H36    H     0.18539   0.18979   0.38790   0.00000  Uiso   1.00
H37    H     0.28529   0.19834   0.10484   0.00000  Uiso   1.00
H38    H     0.04309   0.15257   0.39955   0.00000  Uiso   1.00
H39    H     0.01533   0.15375   0.48458   0.00000  Uiso   1.00
H40    H     0.30510   0.22131   0.02423   0.00000  Uiso   1.00
H41    H     0.09038   0.17303   0.09180   0.00000  Uiso   1.00
H42    H     0.22285   0.22359   0.42033   0.00000  Uiso   1.00
C43    C     0.20943   0.30969   0.24276   0.00000  Uiso   1.00
C44    C     0.13012   0.02350   0.24128   0.00000  Uiso   1.00
H45    H     0.24082   0.29125   0.24233   0.00000  Uiso   1.00
H46    H     0.09949   0.04192   0.23983   0.00000  Uiso   1.00
C47    C     0.21298   0.01857   0.24212   0.00000  Uiso   1.00
C48    C     0.12708   0.31456   0.24080   0.00000  Uiso   1.00
C49    C     0.17127   0.04237   0.24381   0.00000  Uiso   1.00
C50    C     0.16684   0.29087   0.24397   0.00000  Uiso   1.00
C51    C     0.32493   0.15551   0.21104   0.00000  Uiso   1.00
C52    C     0.00850   0.17867   0.28867   0.00000  Uiso   1.00
H53    H     0.31927   0.14667   0.17987   0.00000  Uiso   1.00
H54    H     0.01428   0.18836   0.31953   0.00000  Uiso   1.00
C55    C     0.03950   0.15504   0.21120   0.00000  Uiso   1.00
C56    C     0.29390   0.17867   0.28866   0.00000  Uiso   1.00
H57    H     0.06987   0.14539   0.18018   0.00000  Uiso   1.00
H58    H     0.26357   0.18857   0.31956   0.00000  Uiso   1.00
N59    N     0.04759   0.16668   0.25001   0.00000  Uiso   1.00
N60    N     0.28574   0.16666   0.24999   0.00000  Uiso   1.00
C61    C     0.26226   0.03515   0.23844   0.00000  Uiso   1.00
C62    C     0.29195   0.04965   0.18874   0.00000  Uiso   1.00
C63    C     0.01227   0.05556   0.18147   0.00000  Uiso   1.00
H64    H     0.01531   0.07245   0.21125   0.00000  Uiso   1.00
H65    H     0.03157   0.02531   0.17831   0.00000  Uiso   1.00
H66    H     0.03068   0.07308   0.14895   0.00000  Uiso   1.00
H67    H     0.29049   0.02642   0.16306   0.00000  Uiso   1.00
H68    H     0.27620   0.07910   0.18153   0.00000  Uiso   1.00
H69    H     0.25827   0.05938   0.26477   0.00000  Uiso   1.00
H70    H     0.28432   0.01050   0.24724   0.00000  Uiso   1.00
C71    C     0.08112   0.29745   0.23671   0.00000  Uiso   1.00
C72    C     0.09161   0.28034   0.18763   0.00000  Uiso   1.00
C73    C     0.04548   0.26326   0.18375   0.00000  Uiso   1.00
H74    H     0.02923   0.24009   0.21120   0.00000  Uiso   1.00
H75    H     0.01772   0.28823   0.18782   0.00000  Uiso   1.00
H76    H     0.05478   0.24844   0.14916   0.00000  Uiso   1.00
H77    H     0.10535   0.30537   0.16170   0.00000  Uiso   1.00
H78    H     0.12029   0.25549   0.17858   0.00000  Uiso   1.00
H79    H     0.06383   0.27453   0.26426   0.00000  Uiso   1.00
H80    H     0.05233   0.32216   0.24345   0.00000  Uiso   1.00
O81    O     0.46179   0.22775   0.25000   0.00000  Uiso   1.00
O82    O     0.53821   0.10558   0.24999   0.00000  Uiso   1.00
O83    O     0.53823   0.22774   0.25000   0.00000  Uiso   1.00
O84    O     0.46177   0.10559   0.25000   0.00000  Uiso   1.00
C85    C     0.49986   0.24675   0.24829   0.00000  Uiso   1.00
C86    C     0.50153   0.08656   0.24817   0.00000  Uiso   1.00
O87    O     0.43994   0.16667   0.31612   0.00000  Uiso   1.00
O88    O     0.56006   0.16666   0.18387   0.00000  Uiso   1.00
O89    O     0.51639   0.16666   0.31612   0.00000  Uiso   1.00
O90    O     0.48361   0.16667   0.18388   0.00000  Uiso   1.00
C91    C     0.46947   0.16737   0.33803   0.00000  Uiso   1.00
C92    C     0.53042   0.16723   0.16197   0.00000  Uiso   1.00
Zn93   Zn    0.44896   0.16667   0.25000   0.00000  Uiso   1.00
Zn94   Zn    0.55104   0.16666   0.25000   0.00000  Uiso   1.00
C95    C     0.44999   0.17104   0.38861   0.00000  Uiso   1.00
C96    C     0.54825   0.17450   0.11201   0.00000  Uiso   1.00
C97    C     0.38565   0.16274   0.46403   0.00000  Uiso   1.00
C98    C     0.60369   0.20699   0.04260   0.00000  Uiso   1.00
C99    C     0.40146   0.16184   0.41567   0.00000  Uiso   1.00
C100   C     0.59295   0.19321   0.08805   0.00000  Uiso   1.00
C101   C     0.48150   0.18355   0.40984   0.00000  Uiso   1.00
C102   C     0.51524   0.16898   0.09027   0.00000  Uiso   1.00
C103   C     0.46649   0.18504   0.45820   0.00000  Uiso   1.00
C104   C     0.52303   0.18609   0.04685   0.00000  Uiso   1.00
C105   C     0.41818   0.17314   0.48546   0.00000  Uiso   1.00
C106   C     0.56901   0.20347   0.02177   0.00000  Uiso   1.00
C107   C     0.49970   0.19448   0.47982   0.00000  Uiso   1.00
C108   C     0.48656   0.18518   0.02748   0.00000  Uiso   1.00
C109   C     0.43734   0.17570   0.05436   0.00000  Uiso   1.00
C110   C     0.54579   0.21213   0.45539   0.00000  Uiso   1.00
C111   C     0.40356   0.17041   0.03359   0.00000  Uiso   1.00
C112   C     0.57947   0.21719   0.47648   0.00000  Uiso   1.00
H113   H     0.36648   0.16230   0.05506   0.00000  Uiso   1.00
H114   H     0.61424   0.23103   0.45690   0.00000  Uiso   1.00
H115   H     0.48293   0.15159   0.10834   0.00000  Uiso   1.00
H116   H     0.51873   0.18979   0.38790   0.00000  Uiso   1.00
H117   H     0.61862   0.19834   0.10484   0.00000  Uiso   1.00
H118   H     0.37643   0.15257   0.39955   0.00000  Uiso   1.00
H119   H     0.34866   0.15375   0.48458   0.00000  Uiso   1.00
H120   H     0.63844   0.22131   0.02423   0.00000  Uiso   1.00
H121   H     0.42371   0.17303   0.09180   0.00000  Uiso   1.00
H122   H     0.55618   0.22359   0.42033   0.00000  Uiso   1.00
C123   C     0.54277   0.30969   0.24276   0.00000  Uiso   1.00
C124   C     0.46346   0.02350   0.24128   0.00000  Uiso   1.00
H125   H     0.57415   0.29125   0.24233   0.00000  Uiso   1.00
H126   H     0.43283   0.04192   0.23983   0.00000  Uiso   1.00
C127   C     0.54632   0.01857   0.24212   0.00000  Uiso   1.00
C128   C     0.46042   0.31456   0.24080   0.00000  Uiso   1.00
C129   C     0.50460   0.04237   0.24381   0.00000  Uiso   1.00
C130   C     0.50017   0.29087   0.24397   0.00000  Uiso   1.00
C131   C     0.65826   0.15551   0.21104   0.00000  Uiso   1.00
C132   C     0.34183   0.17867   0.28867   0.00000  Uiso   1.00
H133   H     0.65261   0.14667   0.17987   0.00000  Uiso   1.00
H134   H     0.34761   0.18836   0.31953   0.00000  Uiso   1.00
C135   C     0.37283   0.15504   0.21120   0.00000  Uiso   1.00
C136   C     0.62723   0.17867   0.28866   0.00000  Uiso   1.00
H137   H     0.40320   0.14539   0.18018   0.00000  Uiso   1.00
H138   H     0.59690   0.18857   0.31956   0.00000  Uiso   1.00
N139   N     0.38093   0.16668   0.25001   0.00000  Uiso   1.00
N140   N     0.61907   0.16666   0.24999   0.00000  Uiso   1.00
C141   C     0.59559   0.03515   0.23844   0.00000  Uiso   1.00
C142   C     0.62529   0.04965   0.18874   0.00000  Uiso   1.00
C143   C     0.34561   0.05556   0.18147   0.00000  Uiso   1.00
H144   H     0.34864   0.07245   0.21125   0.00000  Uiso   1.00
H145   H     0.36490   0.02531   0.17831   0.00000  Uiso   1.00
H146   H     0.36401   0.07308   0.14895   0.00000  Uiso   1.00
H147   H     0.62383   0.02642   0.16306   0.00000  Uiso   1.00
H148   H     0.60953   0.07910   0.18153   0.00000  Uiso   1.00
H149   H     0.59160   0.05938   0.26477   0.00000  Uiso   1.00
H150   H     0.61765   0.01050   0.24724   0.00000  Uiso   1.00
C151   C     0.41445   0.29745   0.23671   0.00000  Uiso   1.00
C152   C     0.42494   0.28034   0.18763   0.00000  Uiso   1.00
C153   C     0.37881   0.26326   0.18375   0.00000  Uiso   1.00
H154   H     0.36256   0.24009   0.21120   0.00000  Uiso   1.00
H155   H     0.35106   0.28823   0.18782   0.00000  Uiso   1.00
H156   H     0.38811   0.24844   0.14916   0.00000  Uiso   1.00
H157   H     0.43869   0.30537   0.16170   0.00000  Uiso   1.00
H158   H     0.45362   0.25549   0.17858   0.00000  Uiso   1.00
H159   H     0.39716   0.27453   0.26426   0.00000  Uiso   1.00
H160   H     0.38567   0.32216   0.24345   0.00000  Uiso   1.00
O161   O     0.79512   0.22775   0.25000   0.00000  Uiso   1.00
O162   O     0.87154   0.10558   0.24999   0.00000  Uiso   1.00
O163   O     0.87157   0.22774   0.25000   0.00000  Uiso   1.00
O164   O     0.79510   0.10559   0.25000   0.00000  Uiso   1.00
C165   C     0.83320   0.24675   0.24829   0.00000  Uiso   1.00
C166   C     0.83486   0.08656   0.24817   0.00000  Uiso   1.00
O167   O     0.77328   0.16667   0.31612   0.00000  Uiso   1.00
O168   O     0.89339   0.16666   0.18387   0.00000  Uiso   1.00
O169   O     0.84972   0.16666   0.31612   0.00000  Uiso   1.00
O170   O     0.81695   0.16667   0.18388   0.00000  Uiso   1.00
C171   C     0.80280   0.16737   0.33803   0.00000  Uiso   1.00
C172   C     0.86375   0.16723   0.16197   0.00000  Uiso   1.00
Zn173  Zn    0.78229   0.16667   0.25000   0.00000  Uiso   1.00
Zn174  Zn    0.88438   0.16666   0.25000   0.00000  Uiso   1.00
C175   C     0.78332   0.17104   0.38861   0.00000  Uiso   1.00
C176   C     0.88158   0.17450   0.11201   0.00000  Uiso   1.00
C177   C     0.71898   0.16274   0.46403   0.00000  Uiso   1.00
C178   C     0.93703   0.20699   0.04260   0.00000  Uiso   1.00
C179   C     0.73479   0.16184   0.41567   0.00000  Uiso   1.00
C180   C     0.92628   0.19321   0.08805   0.00000  Uiso   1.00
C181   C     0.81484   0.18355   0.40984   0.00000  Uiso   1.00
C182   C     0.84858   0.16898   0.09027   0.00000  Uiso   1.00
C183   C     0.79982   0.18504   0.45820   0.00000  Uiso   1.00
C184   C     0.85636   0.18609   0.04685   0.00000  Uiso   1.00
C185   C     0.75151   0.17314   0.48546   0.00000  Uiso   1.00
C186   C     0.90234   0.20347   0.02177   0.00000  Uiso   1.00
C187   C     0.83303   0.19448   0.47982   0.00000  Uiso   1.00
C188   C     0.81990   0.18518   0.02748   0.00000  Uiso   1.00
C189   C     0.77068   0.17570   0.05436   0.00000  Uiso   1.00
C190   C     0.87912   0.21213   0.45539   0.00000  Uiso   1.00
C191   C     0.73689   0.17041   0.03359   0.00000  Uiso   1.00
C192   C     0.91281   0.21719   0.47648   0.00000  Uiso   1.00
H193   H     0.69982   0.16230   0.05506   0.00000  Uiso   1.00
H194   H     0.94758   0.23103   0.45690   0.00000  Uiso   1.00
H195   H     0.81627   0.15159   0.10834   0.00000  Uiso   1.00
H196   H     0.85206   0.18979   0.38790   0.00000  Uiso   1.00
H197   H     0.95196   0.19834   0.10484   0.00000  Uiso   1.00
H198   H     0.70976   0.15257   0.39955   0.00000  Uiso   1.00
H199   H     0.68200   0.15375   0.48458   0.00000  Uiso   1.00
H200   H     0.97177   0.22131   0.02423   0.00000  Uiso   1.00
H201   H     0.75705   0.17303   0.09180   0.00000  Uiso   1.00
H202   H     0.88951   0.22359   0.42033   0.00000  Uiso   1.00
C203   C     0.87610   0.30969   0.24276   0.00000  Uiso   1.00
C204   C     0.79679   0.02350   0.24128   0.00000  Uiso   1.00
H205   H     0.90749   0.29125   0.24233   0.00000  Uiso   1.00
H206   H     0.76616   0.04192   0.23983   0.00000  Uiso   1.00
C207   C     0.87965   0.01857   0.24212   0.00000  Uiso   1.00
C208   C     0.79375   0.31456   0.24080   0.00000  Uiso   1.00
C209   C     0.83794   0.04237   0.24381   0.00000  Uiso   1.00
C210   C     0.83351   0.29087   0.24397   0.00000  Uiso   1.00
C211   C     0.99160   0.15551   0.21104   0.00000  Uiso   1.00
C212   C     0.67517   0.17867   0.28867   0.00000  Uiso   1.00
H213   H     0.98594   0.14667   0.17987   0.00000  Uiso   1.00
H214   H     0.68094   0.18836   0.31953   0.00000  Uiso   1.00
C215   C     0.70616   0.15504   0.21120   0.00000  Uiso   1.00
C216   C     0.96056   0.17867   0.28866   0.00000  Uiso   1.00
H217   H     0.73653   0.14539   0.18018   0.00000  Uiso   1.00
H218   H     0.93023   0.18857   0.31956   0.00000  Uiso   1.00
N219   N     0.71426   0.16668   0.25001   0.00000  Uiso   1.00
N220   N     0.95241   0.16666   0.24999   0.00000  Uiso   1.00
C221   C     0.92892   0.03515   0.23844   0.00000  Uiso   1.00
C222   C     0.95862   0.04965   0.18874   0.00000  Uiso   1.00
C223   C     0.67894   0.05556   0.18147   0.00000  Uiso   1.00
H224   H     0.68197   0.07245   0.21125   0.00000  Uiso   1.00
H225   H     0.69823   0.02531   0.17831   0.00000  Uiso   1.00
H226   H     0.69735   0.07308   0.14895   0.00000  Uiso   1.00
H227   H     0.95716   0.02642   0.16306   0.00000  Uiso   1.00
H228   H     0.94286   0.07910   0.18153   0.00000  Uiso   1.00
H229   H     0.92494   0.05938   0.26477   0.00000  Uiso   1.00
H230   H     0.95098   0.01050   0.24724   0.00000  Uiso   1.00
C231   C     0.74778   0.29745   0.23671   0.00000  Uiso   1.00
C232   C     0.75828   0.28034   0.18763   0.00000  Uiso   1.00
C233   C     0.71215   0.26326   0.18375   0.00000  Uiso   1.00
H234   H     0.69590   0.24009   0.21120   0.00000  Uiso   1.00
H235   H     0.68439   0.28823   0.18782   0.00000  Uiso   1.00
H236   H     0.72144   0.24844   0.14916   0.00000  Uiso   1.00
H237   H     0.77202   0.30537   0.16170   0.00000  Uiso   1.00
H238   H     0.78695   0.25549   0.17858   0.00000  Uiso   1.00
H239   H     0.73049   0.27453   0.26426   0.00000  Uiso   1.00
H240   H     0.71900   0.32216   0.24345   0.00000  Uiso   1.00
O241   O     0.12846   0.56108   0.25000   0.00000  Uiso   1.00
O242   O     0.20488   0.43892   0.24999   0.00000  Uiso   1.00
O243   O     0.20490   0.56107   0.25000   0.00000  Uiso   1.00
O244   O     0.12843   0.43893   0.25000   0.00000  Uiso   1.00
C245   C     0.16653   0.58008   0.24829   0.00000  Uiso   1.00
C246   C     0.16819   0.41989   0.24817   0.00000  Uiso   1.00
O247   O     0.10661   0.50001   0.31612   0.00000  Uiso   1.00
O248   O     0.22672   0.49999   0.18387   0.00000  Uiso   1.00
O249   O     0.18305   0.50000   0.31612   0.00000  Uiso   1.00
O250   O     0.15028   0.50000   0.18388   0.00000  Uiso   1.00
C251   C     0.13613   0.50071   0.33803   0.00000  Uiso   1.00
C252   C     0.19709   0.50057   0.16197   0.00000  Uiso   1.00
Zn253  Zn    0.11562   0.50001   0.25000   0.00000  Uiso   1.00
Zn254  Zn    0.21771   0.49999   0.25000   0.00000  Uiso   1.00
C255   C     0.11666   0.50437   0.38861   0.00000  Uiso   1.00
C256   C     0.21492   0.50783   0.11201   0.00000  Uiso   1.00
C257   C     0.05231   0.49608   0.46403   0.00000  Uiso   1.00
C258   C     0.27036   0.54032   0.04260   0.00000  Uiso   1.00
C259   C     0.06812   0.49518   0.41567   0.00000  Uiso   1.00
C260   C     0.25962   0.52655   0.08805   0.00000  Uiso   1.00
C261   C     0.14817   0.51688   0.40984   0.00000  Uiso   1.00
C262   C     0.18191   0.50232   0.09027   0.00000  Uiso   1.00
C263   C     0.13316   0.51837   0.45820   0.00000  Uiso   1.00
C264   C     0.18969   0.51942   0.04685   0.00000  Uiso   1.00
C265   C     0.08485   0.50647   0.48546   0.00000  Uiso   1.00
C266   C     0.23567   0.53680   0.02177   0.00000  Uiso   1.00
C267   C     0.16637   0.52781   0.47982   0.00000  Uiso   1.00
C268   C     0.15323   0.51851   0.02748   0.00000  Uiso   1.00
C269   C     0.10401   0.50903   0.05436   0.00000  Uiso   1.00
C270   C     0.21245   0.54546   0.45539   0.00000  Uiso   1.00
C271   C     0.07022   0.50374   0.03359   0.00000  Uiso   1.00
C272   C     0.24614   0.55052   0.47648   0.00000  Uiso   1.00
H273   H     0.03315   0.49563   0.05506   0.00000  Uiso   1.00
H274   H     0.28091   0.56436   0.45690   0.00000  Uiso   1.00
H275   H     0.14960   0.48492   0.10834   0.00000  Uiso   1.00
H276   H     0.18539   0.52312   0.38790   0.00000  Uiso   1.00
H277   H     0.28529   0.53167   0.10484   0.00000  Uiso   1.00
H278   H     0.04309   0.48591   0.39955   0.00000  Uiso   1.00
H279   H     0.01533   0.48708   0.48458   0.00000  Uiso   1.00
H280   H     0.30510   0.55464   0.02423   0.00000  Uiso   1.00
H281   H     0.09038   0.50637   0.09180   0.00000  Uiso   1.00
H282   H     0.22285   0.55692   0.42033   0.00000  Uiso   1.00
C283   C     0.20943   0.64303   0.24276   0.00000  Uiso   1.00
C284   C     0.13012   0.35683   0.24128   0.00000  Uiso   1.00
H285   H     0.24082   0.62458   0.24233   0.00000  Uiso   1.00
H286   H     0.09949   0.37525   0.23983   0.00000  Uiso   1.00
C287   C     0.21298   0.35190   0.24212   0.00000  Uiso   1.00
C288   C     0.12708   0.64790   0.24080   0.00000  Uiso   1.00
C289   C     0.17127   0.37570   0.24381   0.00000  Uiso   1.00
C290   C     0.16684   0.62420   0.24397   0.00000  Uiso   1.00
C291   C     0.32493   0.48884   0.21104   0.00000  Uiso   1.00
C292   C     0.00850   0.51200   0.28867   0.00000  Uiso   1.00
H293   H     0.31927   0.48001   0.17987   0.00000  Uiso   1.00
H294   H     0.01428   0.52169   0.31953   0.00000  Uiso   1.00
C295   C     0.03950   0.48838   0.21120   0.00000  Uiso   1.00
C296   C     0.29390   0.51200   0.28866   0.00000  Uiso   1.00
H297   H     0.06987   0.47872   0.18018   0.00000  Uiso   1.00
H298   H     0.26357   0.52190   0.31956   0.00000  Uiso   1.00
N299   N     0.04759   0.50001   0.25001   0.00000  Uiso   1.00
N300   N     0.28574   0.49999   0.24999   0.00000  Uiso   1.00
C301   C     0.26226   0.36848   0.23844   0.00000  Uiso   1.00
C302   C     0.29195   0.38298   0.18874   0.00000  Uiso   1.00
C303   C     0.01227   0.38889   0.18147   0.00000  Uiso   1.00
H304   H     0.01531   0.40578   0.21125   0.00000  Uiso   1.00
H305   H     0.03157   0.35865   0.17831   0.00000  Uiso   1.00
H306   H     0.03068   0.40641   0.14895   0.00000  Uiso   1.00
H307   H     0.29049   0.35975   0.16306   0.00000  Uiso   1.00
H308   H     0.27620   0.41243   0.18153   0.00000  Uiso   1.00
H309   H     0.25827   0.39272   0.26477   0.00000  Uiso   1.00
H310   H     0.28432   0.34383   0.24724   0.00000  Uiso   1.00
C311   C     0.08112   0.63079   0.23671   0.00000  Uiso   1.00
C312   C     0.09161   0.61367   0.18763   0.00000  Uiso   1.00
C313   C     0.04548   0.59659   0.18375   0.00000  Uiso   1.00
H314   H     0.02923   0.57342   0.21120   0.00000  Uiso   1.00
H315   H     0.01772   0.62156   0.18782   0.00000  Uiso   1.00
H316   H     0.05478   0.58178   0.14916   0.00000  Uiso   1.00
H317   H     0.10535   0.63870   0.16170   0.00000  Uiso   1.00
H318   H     0.12029   0.58883   0.17858   0.00000  Uiso   1.00
H319   H     0.06383   0.60786   0.26426   0.00000  Uiso   1.00
H320   H     0.05233   0.65549   0.24345   0.00000  Uiso   1.00
O321   O     0.46179   0.56108   0.25000   0.00000  Uiso   1.00
O322   O     0.53821   0.43892   0.24999   0.00000  Uiso   1.00
O323   O     0.53823   0.56107   0.25000   0.00000  Uiso   1.00
O324   O     0.46177   0.43893   0.25000   0.00000  Uiso   1.00
C325   C     0.49986   0.58008   0.24829   0.00000  Uiso   1.00
C326   C     0.50153   0.41989   0.24817   0.00000  Uiso   1.00
O327   O     0.43994   0.50001   0.31612   0.00000  Uiso   1.00
O328   O     0.56006   0.49999   0.18387   0.00000  Uiso   1.00
O329   O     0.51639   0.50000   0.31612   0.00000  Uiso   1.00
O330   O     0.48361   0.50000   0.18388   0.00000  Uiso   1.00
C331   C     0.46947   0.50071   0.33803   0.00000  Uiso   1.00
C332   C     0.53042   0.50057   0.16197   0.00000  Uiso   1.00
Zn333  Zn    0.44896   0.50001   0.25000   0.00000  Uiso   1.00
Zn334  Zn    0.55104   0.49999   0.25000   0.00000  Uiso   1.00
C335   C     0.44999   0.50437   0.38861   0.00000  Uiso   1.00
C336   C     0.54825   0.50783   0.11201   0.00000  Uiso   1.00
C337   C     0.38565   0.49608   0.46403   0.00000  Uiso   1.00
C338   C     0.60369   0.54032   0.04260   0.00000  Uiso   1.00
C339   C     0.40146   0.49518   0.41567   0.00000  Uiso   1.00
C340   C     0.59295   0.52655   0.08805   0.00000  Uiso   1.00
C341   C     0.48150   0.51688   0.40984   0.00000  Uiso   1.00
C342   C     0.51524   0.50232   0.09027   0.00000  Uiso   1.00
C343   C     0.46649   0.51837   0.45820   0.00000  Uiso   1.00
C344   C     0.52303   0.51942   0.04685   0.00000  Uiso   1.00
C345   C     0.41818   0.50647   0.48546   0.00000  Uiso   1.00
C346   C     0.56901   0.53680   0.02177   0.00000  Uiso   1.00
C347   C     0.49970   0.52781   0.47982   0.00000  Uiso   1.00
C348   C     0.48656   0.51851   0.02748   0.00000  Uiso   1.00
C349   C     0.43734   0.50903   0.05436   0.00000  Uiso   1.00
C350   C     0.54579   0.54546   0.45539   0.00000  Uiso   1.00
C351   C     0.40356   0.50374   0.03359   0.00000  Uiso   1.00
C352   C     0.57947   0.55052   0.47648   0.00000  Uiso   1.00
H353   H     0.36648   0.49563   0.05506   0.00000  Uiso   1.00
H354   H     0.61424   0.56436   0.45690   0.00000  Uiso   1.00
H355   H     0.48293   0.48492   0.10834   0.00000  Uiso   1.00
H356   H     0.51873   0.52312   0.38790   0.00000  Uiso   1.00
H357   H     0.61862   0.53167   0.10484   0.00000  Uiso   1.00
H358   H     0.37643   0.48591   0.39955   0.00000  Uiso   1.00
H359   H     0.34866   0.48708   0.48458   0.00000  Uiso   1.00
H360   H     0.63844   0.55464   0.02423   0.00000  Uiso   1.00
H361   H     0.42371   0.50637   0.09180   0.00000  Uiso   1.00
H362   H     0.55618   0.55692   0.42033   0.00000  Uiso   1.00
C363   C     0.54277   0.64303   0.24276   0.00000  Uiso   1.00
C364   C     0.46346   0.35683   0.24128   0.00000  Uiso   1.00
H365   H     0.57415   0.62458   0.24233   0.00000  Uiso   1.00
H366   H     0.43283   0.37525   0.23983   0.00000  Uiso   1.00
C367   C     0.54632   0.35190   0.24212   0.00000  Uiso   1.00
C368   C     0.46042   0.64790   0.24080   0.00000  Uiso   1.00
C369   C     0.50460   0.37570   0.24381   0.00000  Uiso   1.00
C370   C     0.50017   0.62420   0.24397   0.00000  Uiso   1.00
C371   C     0.65826   0.48884   0.21104   0.00000  Uiso   1.00
C372   C     0.34183   0.51200   0.28867   0.00000  Uiso   1.00
H373   H     0.65261   0.48001   0.17987   0.00000  Uiso   1.00
H374   H     0.34761   0.52169   0.31953   0.00000  Uiso   1.00
C375   C     0.37283   0.48838   0.21120   0.00000  Uiso   1.00
C376   C     0.62723   0.51200   0.28866   0.00000  Uiso   1.00
H377   H     0.40320   0.47872   0.18018   0.00000  Uiso   1.00
H378   H     0.59690   0.52190   0.31956   0.00000  Uiso   1.00
N379   N     0.38093   0.50001   0.25001   0.00000  Uiso   1.00
N380   N     0.61907   0.49999   0.24999   0.00000  Uiso   1.00
C381   C     0.59559   0.36848   0.23844   0.00000  Uiso   1.00
C382   C     0.62529   0.38298   0.18874   0.00000  Uiso   1.00
C383   C     0.34561   0.38889   0.18147   0.00000  Uiso   1.00
H384   H     0.34864   0.40578   0.21125   0.00000  Uiso   1.00
H385   H     0.36490   0.35865   0.17831   0.00000  Uiso   1.00
H386   H     0.36401   0.40641   0.14895   0.00000  Uiso   1.00
H387   H     0.62383   0.35975   0.16306   0.00000  Uiso   1.00
H388   H     0.60953   0.41243   0.18153   0.00000  Uiso   1.00
H389   H     0.59160   0.39272   0.26477   0.00000  Uiso   1.00
H390   H     0.61765   0.34383   0.24724   0.00000  Uiso   1.00
C391   C     0.41445   0.63079   0.23671   0.00000  Uiso   1.00
C392   C     0.42494   0.61367   0.18763   0.00000  Uiso   1.00
C393   C     0.37881   0.59659   0.18375   0.00000  Uiso   1.00
H394   H     0.36256   0.57342   0.21120   0.00000  Uiso   1.00
H395   H     0.35106   0.62156   0.18782   0.00000  Uiso   1.00
H396   H     0.38811   0.58178   0.14916   0.00000  Uiso   1.00
H397   H     0.43869   0.63870   0.16170   0.00000  Uiso   1.00
H398   H     0.45362   0.58883   0.17858   0.00000  Uiso   1.00
H399   H     0.39716   0.60786   0.26426   0.00000  Uiso   1.00
H400   H     0.38567   0.65549   0.24345   0.00000  Uiso   1.00
O401   O     0.79512   0.56108   0.25000   0.00000  Uiso   1.00
O402   O     0.87154   0.43892   0.24999   0.00000  Uiso   1.00
O403   O     0.87157   0.56107   0.25000   0.00000  Uiso   1.00
O404   O     0.79510   0.43893   0.25000   0.00000  Uiso   1.00
C405   C     0.83320   0.58008   0.24829   0.00000  Uiso   1.00
C406   C     0.83486   0.41989   0.24817   0.00000  Uiso   1.00
O407   O     0.77328   0.50001   0.31612   0.00000  Uiso   1.00
O408   O     0.89339   0.49999   0.18387   0.00000  Uiso   1.00
O409   O     0.84972   0.50000   0.31612   0.00000  Uiso   1.00
O410   O     0.81695   0.50000   0.18388   0.00000  Uiso   1.00
C411   C     0.80280   0.50071   0.33803   0.00000  Uiso   1.00
C412   C     0.86375   0.50057   0.16197   0.00000  Uiso   1.00
Zn413  Zn    0.78229   0.50001   0.25000   0.00000  Uiso   1.00
Zn414  Zn    0.88438   0.49999   0.25000   0.00000  Uiso   1.00
C415   C     0.78332   0.50437   0.38861   0.00000  Uiso   1.00
C416   C     0.88158   0.50783   0.11201   0.00000  Uiso   1.00
C417   C     0.71898   0.49608   0.46403   0.00000  Uiso   1.00
C418   C     0.93703   0.54032   0.04260   0.00000  Uiso   1.00
C419   C     0.73479   0.49518   0.41567   0.00000  Uiso   1.00
C420   C     0.92628   0.52655   0.08805   0.00000  Uiso   1.00
C421   C     0.81484   0.51688   0.40984   0.00000  Uiso   1.00
C422   C     0.84858   0.50232   0.09027   0.00000  Uiso   1.00
C423   C     0.79982   0.51837   0.45820   0.00000  Uiso   1.00
C424   C     0.85636   0.51942   0.04685   0.00000  Uiso   1.00
C425   C     0.75151   0.50647   0.48546   0.00000  Uiso   1.00
C426   C     0.90234   0.53680   0.02177   0.00000  Uiso   1.00
C427   C     0.83303   0.52781   0.47982   0.00000  Uiso   1.00
C428   C     0.81990   0.51851   0.02748   0.00000  Uiso   1.00
C429   C     0.77068   0.50903   0.05436   0.00000  Uiso   1.00
C430   C     0.87912   0.54546   0.45539   0.00000  Uiso   1.00
C431   C     0.73689   0.50374   0.03359   0.00000  Uiso   1.00
C432   C     0.91281   0.55052   0.47648   0.00000  Uiso   1.00
H433   H     0.69982   0.49563   0.05506   0.00000  Uiso   1.00
H434   H     0.94758   0.56436   0.45690   0.00000  Uiso   1.00
H435   H     0.81627   0.48492   0.10834   0.00000  Uiso   1.00
H436   H     0.85206   0.52312   0.38790   0.00000  Uiso   1.00
H437   H     0.95196   0.53167   0.10484   0.00000  Uiso   1.00
H438   H     0.70976   0.48591   0.39955   0.00000  Uiso   1.00
H439   H     0.68200   0.48708   0.48458   0.00000  Uiso   1.00
H440   H     0.97177   0.55464   0.02423   0.00000  Uiso   1.00
H441   H     0.75705   0.50637   0.09180   0.00000  Uiso   1.00
H442   H     0.88951   0.55692   0.42033   0.00000  Uiso   1.00
C443   C     0.87610   0.64303   0.24276   0.00000  Uiso   1.00
C444   C     0.79679   0.35683   0.24128   0.00000  Uiso   1.00
H445   H     0.90749   0.62458   0.24233   0.00000  Uiso   1.00
H446   H     0.76616   0.37525   0.23983   0.00000  Uiso   1.00
C447   C     0.87965   0.35190   0.24212   0.00000  Uiso   1.00
C448   C     0.79375   0.64790   0.24080   0.00000  Uiso   1.00
C449   C     0.83794   0.37570   0.24381   0.00000  Uiso   1.00
C450   C     0.83351   0.62420   0.24397   0.00000  Uiso   1.00
C451   C     0.99160   0.48884   0.21104   0.00000  Uiso   1.00
C452   C     0.67517   0.51200   0.28867   0.00000  Uiso   1.00
H453   H     0.98594   0.48001   0.17987   0.00000  Uiso   1.00
H454   H     0.68094   0.52169   0.31953   0.00000  Uiso   1.00
C455   C     0.70616   0.48838   0.21120   0.00000  Uiso   1.00
C456   C     0.96056   0.51200   0.28866   0.00000  Uiso   1.00
H457   H     0.73653   0.47872   0.18018   0.00000  Uiso   1.00
H458   H     0.93023   0.52190   0.31956   0.00000  Uiso   1.00
N459   N     0.71426   0.50001   0.25001   0.00000  Uiso   1.00
N460   N     0.95241   0.49999   0.24999   0.00000  Uiso   1.00
C461   C     0.92892   0.36848   0.23844   0.00000  Uiso   1.00
C462   C     0.95862   0.38298   0.18874   0.00000  Uiso   1.00
C463   C     0.67894   0.38889   0.18147   0.00000  Uiso   1.00
H464   H     0.68197   0.40578   0.21125   0.00000  Uiso   1.00
H465   H     0.69823   0.35865   0.17831   0.00000  Uiso   1.00
H466   H     0.69735   0.40641   0.14895   0.00000  Uiso   1.00
H467   H     0.95716   0.35975   0.16306   0.00000  Uiso   1.00
H468   H     0.94286   0.41243   0.18153   0.00000  Uiso   1.00
H469   H     0.92494   0.39272   0.26477   0.00000  Uiso   1.00
H470   H     0.95098   0.34383   0.24724   0.00000  Uiso   1.00
C471   C     0.74778   0.63079   0.23671   0.00000  Uiso   1.00
C472   C     0.75828   0.61367   0.18763   0.00000  Uiso   1.00
C473   C     0.71215   0.59659   0.18375   0.00000  Uiso   1.00
H474   H     0.69590   0.57342   0.21120   0.00000  Uiso   1.00
H475   H     0.68439   0.62156   0.18782   0.00000  Uiso   1.00
H476   H     0.72144   0.58178   0.14916   0.00000  Uiso   1.00
H477   H     0.77202   0.63870   0.16170   0.00000  Uiso   1.00
H478   H     0.78695   0.58883   0.17858   0.00000  Uiso   1.00
H479   H     0.73049   0.60786   0.26426   0.00000  Uiso   1.00
H480   H     0.71900   0.65549   0.24345   0.00000  Uiso   1.00
O481   O     0.12846   0.89442   0.25000   0.00000  Uiso   1.00
O482   O     0.20488   0.77225   0.24999   0.00000  Uiso   1.00
O483   O     0.20490   0.89441   0.25000   0.00000  Uiso   1.00
O484   O     0.12843   0.77226   0.25000   0.00000  Uiso   1.00
C485   C     0.16653   0.91342   0.24829   0.00000  Uiso   1.00
C486   C     0.16819   0.75322   0.24817   0.00000  Uiso   1.00
O487   O     0.10661   0.83334   0.31612   0.00000  Uiso   1.00
O488   O     0.22672   0.83333   0.18387   0.00000  Uiso   1.00
O489   O     0.18305   0.83333   0.31612   0.00000  Uiso   1.00
O490   O     0.15028   0.83334   0.18388   0.00000  Uiso   1.00
C491   C     0.13613   0.83404   0.33803   0.00000  Uiso   1.00
C492   C     0.19709   0.83390   0.16197   0.00000  Uiso   1.00
Zn493  Zn    0.11562   0.83334   0.25000   0.00000  Uiso   1.00
Zn494  Zn    0.21771   0.83333   0.25000   0.00000  Uiso   1.00
C495   C     0.11666   0.83770   0.38861   0.00000  Uiso   1.00
C496   C     0.21492   0.84116   0.11201   0.00000  Uiso   1.00
C497   C     0.05231   0.82941   0.46403   0.00000  Uiso   1.00
C498   C     0.27036   0.87365   0.04260   0.00000  Uiso   1.00
C499   C     0.06812   0.82851   0.41567   0.00000  Uiso   1.00
C500   C     0.25962   0.85988   0.08805   0.00000  Uiso   1.00
C501   C     0.14817   0.85021   0.40984   0.00000  Uiso   1.00
C502   C     0.18191   0.83565   0.09027   0.00000  Uiso   1.00
C503   C     0.13316   0.85171   0.45820   0.00000  Uiso   1.00
C504   C     0.18969   0.85275   0.04685   0.00000  Uiso   1.00
C505   C     0.08485   0.83980   0.48546   0.00000  Uiso   1.00
C506   C     0.23567   0.87014   0.02177   0.00000  Uiso   1.00
C507   C     0.16637   0.86114   0.47982   0.00000  Uiso   1.00
C508   C     0.15323   0.85185   0.02748   0.00000  Uiso   1.00
C509   C     0.10401   0.84236   0.05436   0.00000  Uiso   1.00
C510   C     0.21245   0.87880   0.45539   0.00000  Uiso   1.00
C511   C     0.07022   0.83707   0.03359   0.00000  Uiso   1.00
C512   C     0.24614   0.88385   0.47648   0.00000  Uiso   1.00
H513   H     0.03315   0.82896   0.05506   0.00000  Uiso   1.00
H514   H     0.28091   0.89769   0.45690   0.00000  Uiso   1.00
H515   H     0.14960   0.81826   0.10834   0.00000  Uiso   1.00
H516   H     0.18539   0.85646   0.38790   0.00000  Uiso   1.00
H517   H     0.28529   0.86500   0.10484   0.00000  Uiso   1.00
H518   H     0.04309   0.81924   0.39955   0.00000  Uiso   1.00
H519   H     0.01533   0.82041   0.48458   0.00000  Uiso   1.00
H520   H     0.30510   0.88798   0.02423   0.00000  Uiso   1.00
H521   H     0.09038   0.83970   0.09180   0.00000  Uiso   1.00
H522   H     0.22285   0.89025   0.42033   0.00000  Uiso   1.00
C523   C     0.20943   0.97636   0.24276   0.00000  Uiso   1.00
C524   C     0.13012   0.69017   0.24128   0.00000  Uiso   1.00
H525   H     0.24082   0.95792   0.24233   0.00000  Uiso   1.00
H526   H     0.09949   0.70858   0.23983   0.00000  Uiso   1.00
C527   C     0.21298   0.68523   0.24212   0.00000  Uiso   1.00
C528   C     0.12708   0.98123   0.24080   0.00000  Uiso   1.00
C529   C     0.17127   0.70904   0.24381   0.00000  Uiso   1.00
C530   C     0.16684   0.95753   0.24397   0.00000  Uiso   1.00
C531   C     0.32493   0.82218   0.21104   0.00000  Uiso   1.00
C532   C     0.00850   0.84533   0.28867   0.00000  Uiso   1.00
H533   H     0.31927   0.81334   0.17987   0.00000  Uiso   1.00
H534   H     0.01428   0.85502   0.31953   0.00000  Uiso   1.00
C535   C     0.03950   0.82171   0.21120   0.00000  Uiso   1.00
C536   C     0.29390   0.84534   0.28866   0.00000  Uiso   1.00
H537   H     0.06987   0.81206   0.18018   0.00000  Uiso   1.00
H538   H     0.26357   0.85524   0.31956   0.00000  Uiso   1.00
N539   N     0.04759   0.83334   0.25001   0.00000  Uiso   1.00
N540   N     0.28574   0.83332   0.24999   0.00000  Uiso   1.00
C541   C     0.26226   0.70182   0.23844   0.00000  Uiso   1.00
C542   C     0.29195   0.71632   0.18874   0.00000  Uiso   1.00
C543   C     0.01227   0.72223   0.18147   0.00000  Uiso   1.00
H544   H     0.01531   0.73911   0.21125   0.00000  Uiso   1.00
H545   H     0.03157   0.69198   0.17831   0.00000  Uiso   1.00
H546   H     0.03068   0.73975   0.14895   0.00000  Uiso   1.00
H547   H     0.29049   0.69308   0.16306   0.00000  Uiso   1.00
H548   H     0.27620   0.74577   0.18153   0.00000  Uiso   1.00
H549   H     0.25827   0.72605   0.26477   0.00000  Uiso   1.00
H550   H     0.28432   0.67716   0.24724   0.00000  Uiso   1.00
C551   C     0.08112   0.96412   0.23671   0.00000  Uiso   1.00
C552   C     0.09161   0.94700   0.18763   0.00000  Uiso   1.00
C553   C     0.04548   0.92993   0.18375   0.00000  Uiso   1.00
H554   H     0.02923   0.90675   0.21120   0.00000  Uiso   1.00
H555   H     0.01772   0.95489   0.18782   0.00000  Uiso   1.00
H556   H     0.05478   0.91511   0.14916   0.00000  Uiso   1.00
H557   H     0.10535   0.97204   0.16170   0.00000  Uiso   1.00
H558   H     0.12029   0.92216   0.17858   0.00000  Uiso   1.00
H559   H     0.06383   0.94120   0.26426   0.00000  Uiso   1.00
H560   H     0.05233   0.98882   0.24345   0.00000  Uiso   1.00
O561   O     0.46179   0.89442   0.25000   0.00000  Uiso   1.00
O562   O     0.53821   0.77225   0.24999   0.00000  Uiso   1.00
O563   O     0.53823   0.89441   0.25000   0.00000  Uiso   1.00
O564   O     0.46177   0.77226   0.25000   0.00000  Uiso   1.00
C565   C     0.49986   0.91342   0.24829   0.00000  Uiso   1.00
C566   C     0.50153   0.75322   0.24817   0.00000  Uiso   1.00
O567   O     0.43994   0.83334   0.31612   0.00000  Uiso   1.00
O568   O     0.56006   0.83333   0.18387   0.00000  Uiso   1.00
O569   O     0.51639   0.83333   0.31612   0.00000  Uiso   1.00
O570   O     0.48361   0.83334   0.18388   0.00000  Uiso   1.00
C571   C     0.46947   0.83404   0.33803   0.00000  Uiso   1.00
C572   C     0.53042   0.83390   0.16197   0.00000  Uiso   1.00
Zn573  Zn    0.44896   0.83334   0.25000   0.00000  Uiso   1.00
Zn574  Zn    0.55104   0.83333   0.25000   0.00000  Uiso   1.00
C575   C     0.44999   0.83770   0.38861   0.00000  Uiso   1.00
C576   C     0.54825   0.84116   0.11201   0.00000  Uiso   1.00
C577   C     0.38565   0.82941   0.46403   0.00000  Uiso   1.00
C578   C     0.60369   0.87365   0.04260   0.00000  Uiso   1.00
C579   C     0.40146   0.82851   0.41567   0.00000  Uiso   1.00
C580   C     0.59295   0.85988   0.08805   0.00000  Uiso   1.00
C581   C     0.48150   0.85021   0.40984   0.00000  Uiso   1.00
C582   C     0.51524   0.83565   0.09027   0.00000  Uiso   1.00
C583   C     0.46649   0.85171   0.45820   0.00000  Uiso   1.00
C584   C     0.52303   0.85275   0.04685   0.00000  Uiso   1.00
C585   C     0.41818   0.83980   0.48546   0.00000  Uiso   1.00
C586   C     0.56901   0.87014   0.02177   0.00000  Uiso   1.00
C587   C     0.49970   0.86114   0.47982   0.00000  Uiso   1.00
C588   C     0.48656   0.85185   0.02748   0.00000  Uiso   1.00
C589   C     0.43734   0.84236   0.05436   0.00000  Uiso   1.00
C590   C     0.54579   0.87880   0.45539   0.00000  Uiso   1.00
C591   C     0.40356   0.83707   0.03359   0.00000  Uiso   1.00
C592   C     0.57947   0.88385   0.47648   0.00000  Uiso   1.00
H593   H     0.36648   0.82896   0.05506   0.00000  Uiso   1.00
H594   H     0.61424   0.89769   0.45690   0.00000  Uiso   1.00
H595   H     0.48293   0.81826   0.10834   0.00000  Uiso   1.00
H596   H     0.51873   0.85646   0.38790   0.00000  Uiso   1.00
H597   H     0.61862   0.86500   0.10484   0.00000  Uiso   1.00
H598   H     0.37643   0.81924   0.39955   0.00000  Uiso   1.00
H599   H     0.34866   0.82041   0.48458   0.00000  Uiso   1.00
H600   H     0.63844   0.88798   0.02423   0.00000  Uiso   1.00
H601   H     0.42371   0.83970   0.09180   0.00000  Uiso   1.00
H602   H     0.55618   0.89025   0.42033   0.00000  Uiso   1.00
C603   C     0.54277   0.97636   0.24276   0.00000  Uiso   1.00
C604   C     0.46346   0.69017   0.24128   0.00000  Uiso   1.00
H605   H     0.57415   0.95792   0.24233   0.00000  Uiso   1.00
H606   H     0.43283   0.70858   0.23983   0.00000  Uiso   1.00
C607   C     0.54632   0.68523   0.24212   0.00000  Uiso   1.00
C608   C     0.46042   0.98123   0.24080   0.00000  Uiso   1.00
C609   C     0.50460   0.70904   0.24381   0.00000  Uiso   1.00
C610   C     0.50017   0.95753   0.24397   0.00000  Uiso   1.00
C611   C     0.65826   0.82218   0.21104   0.00000  Uiso   1.00
C612   C     0.34183   0.84533   0.28867   0.00000  Uiso   1.00
H613   H     0.65261   0.81334   0.17987   0.00000  Uiso   1.00
H614   H     0.34761   0.85502   0.31953   0.00000  Uiso   1.00
C615   C     0.37283   0.82171   0.21120   0.00000  Uiso   1.00
C616   C     0.62723   0.84534   0.28866   0.00000  Uiso   1.00
H617   H     0.40320   0.81206   0.18018   0.00000  Uiso   1.00
H618   H     0.59690   0.85524   0.31956   0.00000  Uiso   1.00
N619   N     0.38093   0.83334   0.25001   0.00000  Uiso   1.00
N620   N     0.61907   0.83332   0.24999   0.00000  Uiso   1.00
C621   C     0.59559   0.70182   0.23844   0.00000  Uiso   1.00
C622   C     0.62529   0.71632   0.18874   0.00000  Uiso   1.00
C623   C     0.34561   0.72223   0.18147   0.00000  Uiso   1.00
H624   H     0.34864   0.73911   0.21125   0.00000  Uiso   1.00
H625   H     0.36490   0.69198   0.17831   0.00000  Uiso   1.00
H626   H     0.36401   0.73975   0.14895   0.00000  Uiso   1.00
H627   H     0.62383   0.69308   0.16306   0.00000  Uiso   1.00
H628   H     0.60953   0.74577   0.18153   0.00000  Uiso   1.00
H629   H     0.59160   0.72605   0.26477   0.00000  Uiso   1.00
H630   H     0.61765   0.67716   0.24724   0.00000  Uiso   1.00
C631   C     0.41445   0.96412   0.23671   0.00000  Uiso   1.00
C632   C     0.42494   0.94700   0.18763   0.00000  Uiso   1.00
C633   C     0.37881   0.92993   0.18375   0.00000  Uiso   1.00
H634   H     0.36256   0.90675   0.21120   0.00000  Uiso   1.00
H635   H     0.35106   0.95489   0.18782   0.00000  Uiso   1.00
H636   H     0.38811   0.91511   0.14916   0.00000  Uiso   1.00
H637   H     0.43869   0.97204   0.16170   0.00000  Uiso   1.00
H638   H     0.45362   0.92216   0.17858   0.00000  Uiso   1.00
H639   H     0.39716   0.94120   0.26426   0.00000  Uiso   1.00
H640   H     0.38567   0.98882   0.24345   0.00000  Uiso   1.00
O641   O     0.79512   0.89442   0.25000   0.00000  Uiso   1.00
O642   O     0.87154   0.77225   0.24999   0.00000  Uiso   1.00
O643   O     0.87157   0.89441   0.25000   0.00000  Uiso   1.00
O644   O     0.79510   0.77226   0.25000   0.00000  Uiso   1.00
C645   C     0.83320   0.91342   0.24829   0.00000  Uiso   1.00
C646   C     0.83486   0.75322   0.24817   0.00000  Uiso   1.00
O647   O     0.77328   0.83334   0.31612   0.00000  Uiso   1.00
O648   O     0.89339   0.83333   0.18387   0.00000  Uiso   1.00
O649   O     0.84972   0.83333   0.31612   0.00000  Uiso   1.00
O650   O     0.81695   0.83334   0.18388   0.00000  Uiso   1.00
C651   C     0.80280   0.83404   0.33803   0.00000  Uiso   1.00
C652   C     0.86375   0.83390   0.16197   0.00000  Uiso   1.00
Zn653  Zn    0.78229   0.83334   0.25000   0.00000  Uiso   1.00
Zn654  Zn    0.88438   0.83333   0.25000   0.00000  Uiso   1.00
C655   C     0.78332   0.83770   0.38861   0.00000  Uiso   1.00
C656   C     0.88158   0.84116   0.11201   0.00000  Uiso   1.00
C657   C     0.71898   0.82941   0.46403   0.00000  Uiso   1.00
C658   C     0.93703   0.87365   0.04260   0.00000  Uiso   1.00
C659   C     0.73479   0.82851   0.41567   0.00000  Uiso   1.00
C660   C     0.92628   0.85988   0.08805   0.00000  Uiso   1.00
C661   C     0.81484   0.85021   0.40984   0.00000  Uiso   1.00
C662   C     0.84858   0.83565   0.09027   0.00000  Uiso   1.00
C663   C     0.79982   0.85171   0.45820   0.00000  Uiso   1.00
C664   C     0.85636   0.85275   0.04685   0.00000  Uiso   1.00
C665   C     0.75151   0.83980   0.48546   0.00000  Uiso   1.00
C666   C     0.90234   0.87014   0.02177   0.00000  Uiso   1.00
C667   C     0.83303   0.86114   0.47982   0.00000  Uiso   1.00
C668   C     0.81990   0.85185   0.02748   0.00000  Uiso   1.00
C669   C     0.77068   0.84236   0.05436   0.00000  Uiso   1.00
C670   C     0.87912   0.87880   0.45539   0.00000  Uiso   1.00
C671   C     0.73689   0.83707   0.03359   0.00000  Uiso   1.00
C672   C     0.91281   0.88385   0.47648   0.00000  Uiso   1.00
H673   H     0.69982   0.82896   0.05506   0.00000  Uiso   1.00
H674   H     0.94758   0.89769   0.45690   0.00000  Uiso   1.00
H675   H     0.81627   0.81826   0.10834   0.00000  Uiso   1.00
H676   H     0.85206   0.85646   0.38790   0.00000  Uiso   1.00
H677   H     0.95196   0.86500   0.10484   0.00000  Uiso   1.00
H678   H     0.70976   0.81924   0.39955   0.00000  Uiso   1.00
H679   H     0.68200   0.82041   0.48458   0.00000  Uiso   1.00
H680   H     0.97177   0.88798   0.02423   0.00000  Uiso   1.00
H681   H     0.75705   0.83970   0.09180   0.00000  Uiso   1.00
H682   H     0.88951   0.89025   0.42033   0.00000  Uiso   1.00
C683   C     0.87610   0.97636   0.24276   0.00000  Uiso   1.00
C684   C     0.79679   0.69017   0.24128   0.00000  Uiso   1.00
H685   H     0.90749   0.95792   0.24233   0.00000  Uiso   1.00
H686   H     0.76616   0.70858   0.23983   0.00000  Uiso   1.00
C687   C     0.87965   0.68523   0.24212   0.00000  Uiso   1.00
C688   C     0.79375   0.98123   0.24080   0.00000  Uiso   1.00
C689   C     0.83794   0.70904   0.24381   0.00000  Uiso   1.00
C690   C     0.83351   0.95753   0.24397   0.00000  Uiso   1.00
C691   C     0.99160   0.82218   0.21104   0.00000  Uiso   1.00
C692   C     0.67517   0.84533   0.28867   0.00000  Uiso   1.00
H693   H     0.98594   0.81334   0.17987   0.00000  Uiso   1.00
H694   H     0.68094   0.85502   0.31953   0.00000  Uiso   1.00
C695   C     0.70616   0.82171   0.21120   0.00000  Uiso   1.00
C696   C     0.96056   0.84534   0.28866   0.00000  Uiso   1.00
H697   H     0.73653   0.81206   0.18018   0.00000  Uiso   1.00
H698   H     0.93023   0.85524   0.31956   0.00000  Uiso   1.00
N699   N     0.71426   0.83334   0.25001   0.00000  Uiso   1.00
N700   N     0.95241   0.83332   0.24999   0.00000  Uiso   1.00
C701   C     0.92892   0.70182   0.23844   0.00000  Uiso   1.00
C702   C     0.95862   0.71632   0.18874   0.00000  Uiso   1.00
C703   C     0.67894   0.72223   0.18147   0.00000  Uiso   1.00
H704   H     0.68197   0.73911   0.21125   0.00000  Uiso   1.00
H705   H     0.69823   0.69198   0.17831   0.00000  Uiso   1.00
H706   H     0.69735   0.73975   0.14895   0.00000  Uiso   1.00
H707   H     0.95716   0.69308   0.16306   0.00000  Uiso   1.00
H708   H     0.94286   0.74577   0.18153   0.00000  Uiso   1.00
H709   H     0.92494   0.72605   0.26477   0.00000  Uiso   1.00
H710   H     0.95098   0.67716   0.24724   0.00000  Uiso   1.00
C711   C     0.74778   0.96412   0.23671   0.00000  Uiso   1.00
C712   C     0.75828   0.94700   0.18763   0.00000  Uiso   1.00
C713   C     0.71215   0.92993   0.18375   0.00000  Uiso   1.00
H714   H     0.69590   0.90675   0.21120   0.00000  Uiso   1.00
H715   H     0.68439   0.95489   0.18782   0.00000  Uiso   1.00
H716   H     0.72144   0.91511   0.14916   0.00000  Uiso   1.00
H717   H     0.77202   0.97204   0.16170   0.00000  Uiso   1.00
H718   H     0.78695   0.92216   0.17858   0.00000  Uiso   1.00
H719   H     0.73049   0.94120   0.26426   0.00000  Uiso   1.00
H720   H     0.71900   0.98882   0.24345   0.00000  Uiso   1.00
O721   O     0.12846   0.22775   0.75000   0.00000  Uiso   1.00
O722   O     0.20488   0.10558   0.74999   0.00000  Uiso   1.00
O723   O     0.20490   0.22774   0.75000   0.00000  Uiso   1.00
O724   O     0.12843   0.10559   0.75000   0.00000  Uiso   1.00
C725   C     0.16653   0.24675   0.74829   0.00000  Uiso   1.00
C726   C     0.16819   0.08656   0.74817   0.00000  Uiso   1.00
O727   O     0.10661   0.16667   0.81612   0.00000  Uiso   1.00
O728   O     0.22672   0.16666   0.68387   0.00000  Uiso   1.00
O729   O     0.18305   0.16666   0.81612   0.00000  Uiso   1.00
O730   O     0.15028   0.16667   0.68388   0.00000  Uiso   1.00
C731   C     0.13613   0.16737   0.83803   0.00000  Uiso   1.00
C732   C     0.19709   0.16723   0.66197   0.00000  Uiso   1.00
Zn733  Zn    0.11562   0.16667   0.75000   0.00000  Uiso   1.00
Zn734  Zn    0.21771   0.16666   0.75000   0.00000  Uiso   1.00
C735   C     0.11666   0.17104   0.88861   0.00000  Uiso   1.00
C736   C     0.21492   0.17450   0.61201   0.00000  Uiso   1.00
C737   C     0.05231   0.16274   0.96403   0.00000  Uiso   1.00
C738   C     0.27036   0.20699   0.54260   0.00000  Uiso   1.00
C739   C     0.06812   0.16184   0.91567   0.00000  Uiso   1.00
C740   C     0.25962   0.19321   0.58805   0.00000  Uiso   1.00
C741   C     0.14817   0.18355   0.90984   0.00000  Uiso   1.00
C742   C     0.18191   0.16898   0.59027   0.00000  Uiso   1.00
C743   C     0.13316   0.18504   0.95820   0.00000  Uiso   1.00
C744   C     0.18969   0.18609   0.54685   0.00000  Uiso   1.00
C745   C     0.08485   0.17314   0.98546   0.00000  Uiso   1.00
C746   C     0.23567   0.20347   0.52177   0.00000  Uiso   1.00
C747   C     0.16637   0.19448   0.97982   0.00000  Uiso   1.00
C748   C     0.15323   0.18518   0.52748   0.00000  Uiso   1.00
C749   C     0.10401   0.17570   0.55436   0.00000  Uiso   1.00
C750   C     0.21245   0.21213   0.95539   0.00000  Uiso   1.00
C751   C     0.07022   0.17041   0.53359   0.00000  Uiso   1.00
C752   C     0.24614   0.21719   0.97648   0.00000  Uiso   1.00
H753   H     0.03315   0.16230   0.55506   0.00000  Uiso   1.00
H754   H     0.28091   0.23103   0.95690   0.00000  Uiso   1.00
H755   H     0.14960   0.15159   0.60834   0.00000  Uiso   1.00
H756   H     0.18539   0.18979   0.88790   0.00000  Uiso   1.00
H757   H     0.28529   0.19834   0.60484   0.00000  Uiso   1.00
H758   H     0.04309   0.15257   0.89955   0.00000  Uiso   1.00
H759   H     0.01533   0.15375   0.98458   0.00000  Uiso   1.00
H760   H     0.30510   0.22131   0.52423   0.00000  Uiso   1.00
H761   H     0.09038   0.17303   0.59180   0.00000  Uiso   1.00
H762   H     0.22285   0.22359   0.92033   0.00000  Uiso   1.00
C763   C     0.20943   0.30969   0.74276   0.00000  Uiso   1.00
C764   C     0.13012   0.02350   0.74128   0.00000  Uiso   1.00
H765   H     0.24082   0.29125   0.74233   0.00000  Uiso   1.00
H766   H     0.09949   0.04192   0.73983   0.00000  Uiso   1.00
C767   C     0.21298   0.01857   0.74212   0.00000  Uiso   1.00
C768   C     0.12708   0.31456   0.74080   0.00000  Uiso   1.00
C769   C     0.17127   0.04237   0.74381   0.00000  Uiso   1.00
C770   C     0.16684   0.29087   0.74397   0.00000  Uiso   1.00
C771   C     0.32493   0.15551   0.71104   0.00000  Uiso   1.00
C772   C     0.00850   0.17867   0.78867   0.00000  Uiso   1.00
H773   H     0.31927   0.14667   0.67987   0.00000  Uiso   1.00
H774   H     0.01428   0.18836   0.81953   0.00000  Uiso   1.00
C775   C     0.03950   0.15504   0.71120   0.00000  Uiso   1.00
C776   C     0.29390   0.17867   0.78866   0.00000  Uiso   1.00
H777   H     0.06987   0.14539   0.68018   0.00000  Uiso   1.00
H778   H     0.26357   0.18857   0.81956   0.00000  Uiso   1.00
N779   N     0.04759   0.16668   0.75001   0.00000  Uiso   1.00
N780   N     0.28574   0.16666   0.74999   0.00000  Uiso   1.00
C781   C     0.26226   0.03515   0.73844   0.00000  Uiso   1.00
C782   C     0.29195   0.04965   0.68874   0.00000  Uiso   1.00
C783   C     0.01227   0.05556   0.68147   0.00000  Uiso   1.00
H784   H     0.01531   0.07245   0.71125   0.00000  Uiso   1.00
H785   H     0.03157   0.02531   0.67831   0.00000  Uiso   1.00
H786   H     0.03068   0.07308   0.64895   0.00000  Uiso   1.00
H787   H     0.29049   0.02642   0.66306   0.00000  Uiso   1.00
H788   H     0.27620   0.07910   0.68153   0.00000  Uiso   1.00
H789   H     0.25827   0.05938   0.76477   0.00000  Uiso   1.00
H790   H     0.28432   0.01050   0.74724   0.00000  Uiso   1.00
C791   C     0.08112   0.29745   0.73671   0.00000  Uiso   1.00
C792   C     0.09161   0.28034   0.68763   0.00000  Uiso   1.00
C793   C     0.04548   0.26326   0.68375   0.00000  Uiso   1.00
H794   H     0.02923   0.24009   0.71120   0.00000  Uiso   1.00
H795   H     0.01772   0.28823   0.68782   0.00000  Uiso   1.00
H796   H     0.05478   0.24844   0.64916   0.00000  Uiso   1.00
H797   H     0.10535   0.30537   0.66170   0.00000  Uiso   1.00
H798   H     0.12029   0.25549   0.67858   0.00000  Uiso   1.00
H799   H     0.06383   0.27453   0.76426   0.00000  Uiso   1.00
H800   H     0.05233   0.32216   0.74345   0.00000  Uiso   1.00
O801   O     0.46179   0.22775   0.75000   0.00000  Uiso   1.00
O802   O     0.53821   0.10558   0.74999   0.00000  Uiso   1.00
O803   O     0.53823   0.22774   0.75000   0.00000  Uiso   1.00
O804   O     0.46177   0.10559   0.75000   0.00000  Uiso   1.00
C805   C     0.49986   0.24675   0.74829   0.00000  Uiso   1.00
C806   C     0.50153   0.08656   0.74817   0.00000  Uiso   1.00
O807   O     0.43994   0.16667   0.81612   0.00000  Uiso   1.00
O808   O     0.56006   0.16666   0.68387   0.00000  Uiso   1.00
O809   O     0.51639   0.16666   0.81612   0.00000  Uiso   1.00
O810   O     0.48361   0.16667   0.68388   0.00000  Uiso   1.00
C811   C     0.46947   0.16737   0.83803   0.00000  Uiso   1.00
C812   C     0.53042   0.16723   0.66197   0.00000  Uiso   1.00
Zn813  Zn    0.44896   0.16667   0.75000   0.00000  Uiso   1.00
Zn814  Zn    0.55104   0.16666   0.75000   0.00000  Uiso   1.00
C815   C     0.44999   0.17104   0.88861   0.00000  Uiso   1.00
C816   C     0.54825   0.17450   0.61201   0.00000  Uiso   1.00
C817   C     0.38565   0.16274   0.96403   0.00000  Uiso   1.00
C818   C     0.60369   0.20699   0.54260   0.00000  Uiso   1.00
C819   C     0.40146   0.16184   0.91567   0.00000  Uiso   1.00
C820   C     0.59295   0.19321   0.58805   0.00000  Uiso   1.00
C821   C     0.48150   0.18355   0.90984   0.00000  Uiso   1.00
C822   C     0.51524   0.16898   0.59027   0.00000  Uiso   1.00
C823   C     0.46649   0.18504   0.95820   0.00000  Uiso   1.00
C824   C     0.52303   0.18609   0.54685   0.00000  Uiso   1.00
C825   C     0.41818   0.17314   0.98546   0.00000  Uiso   1.00
C826   C     0.56901   0.20347   0.52177   0.00000  Uiso   1.00
C827   C     0.49970   0.19448   0.97982   0.00000  Uiso   1.00
C828   C     0.48656   0.18518   0.52748   0.00000  Uiso   1.00
C829   C     0.43734   0.17570   0.55436   0.00000  Uiso   1.00
C830   C     0.54579   0.21213   0.95539   0.00000  Uiso   1.00
C831   C     0.40356   0.17041   0.53359   0.00000  Uiso   1.00
C832   C     0.57947   0.21719   0.97648   0.00000  Uiso   1.00
H833   H     0.36648   0.16230   0.55506   0.00000  Uiso   1.00
H834   H     0.61424   0.23103   0.95690   0.00000  Uiso   1.00
H835   H     0.48293   0.15159   0.60834   0.00000  Uiso   1.00
H836   H     0.51873   0.18979   0.88790   0.00000  Uiso   1.00
H837   H     0.61862   0.19834   0.60484   0.00000  Uiso   1.00
H838   H     0.37643   0.15257   0.89955   0.00000  Uiso   1.00
H839   H     0.34866   0.15375   0.98458   0.00000  Uiso   1.00
H840   H     0.63844   0.22131   0.52423   0.00000  Uiso   1.00
H841   H     0.42371   0.17303   0.59180   0.00000  Uiso   1.00
H842   H     0.55618   0.22359   0.92033   0.00000  Uiso   1.00
C843   C     0.54277   0.30969   0.74276   0.00000  Uiso   1.00
C844   C     0.46346   0.02350   0.74128   0.00000  Uiso   1.00
H845   H     0.57415   0.29125   0.74233   0.00000  Uiso   1.00
H846   H     0.43283   0.04192   0.73983   0.00000  Uiso   1.00
C847   C     0.54632   0.01857   0.74212   0.00000  Uiso   1.00
C848   C     0.46042   0.31456   0.74080   0.00000  Uiso   1.00
C849   C     0.50460   0.04237   0.74381   0.00000  Uiso   1.00
C850   C     0.50017   0.29087   0.74397   0.00000  Uiso   1.00
C851   C     0.65826   0.15551   0.71104   0.00000  Uiso   1.00
C852   C     0.34183   0.17867   0.78867   0.00000  Uiso   1.00
H853   H     0.65261   0.14667   0.67987   0.00000  Uiso   1.00
H854   H     0.34761   0.18836   0.81953   0.00000  Uiso   1.00
C855   C     0.37283   0.15504   0.71120   0.00000  Uiso   1.00
C856   C     0.62723   0.17867   0.78866   0.00000  Uiso   1.00
H857   H     0.40320   0.14539   0.68018   0.00000  Uiso   1.00
H858   H     0.59690   0.18857   0.81956   0.00000  Uiso   1.00
N859   N     0.38093   0.16668   0.75001   0.00000  Uiso   1.00
N860   N     0.61907   0.16666   0.74999   0.00000  Uiso   1.00
C861   C     0.59559   0.03515   0.73844   0.00000  Uiso   1.00
C862   C     0.62529   0.04965   0.68874   0.00000  Uiso   1.00
C863   C     0.34561   0.05556   0.68147   0.00000  Uiso   1.00
H864   H     0.34864   0.07245   0.71125   0.00000  Uiso   1.00
H865   H     0.36490   0.02531   0.67831   0.00000  Uiso   1.00
H866   H     0.36401   0.07308   0.64895   0.00000  Uiso   1.00
H867   H     0.62383   0.02642   0.66306   0.00000  Uiso   1.00
H868   H     0.60953   0.07910   0.68153   0.00000  Uiso   1.00
H869   H     0.59160   0.05938   0.76477   0.00000  Uiso   1.00
H870   H     0.61765   0.01050   0.74724   0.00000  Uiso   1.00
C871   C     0.41445   0.29745   0.73671   0.00000  Uiso   1.00
C872   C     0.42494   0.28034   0.68763   0.00000  Uiso   1.00
C873   C     0.37881   0.26326   0.68375   0.00000  Uiso   1.00
H874   H     0.36256   0.24009   0.71120   0.00000  Uiso   1.00
H875   H     0.35106   0.28823   0.68782   0.00000  Uiso   1.00
H876   H     0.38811   0.24844   0.64916   0.00000  Uiso   1.00
H877   H     0.43869   0.30537   0.66170   0.00000  Uiso   1.00
H878   H     0.45362   0.25549   0.67858   0.00000  Uiso   1.00
H879   H     0.39716   0.27453   0.76426   0.00000  Uiso   1.00
H880   H     0.38567   0.32216   0.74345   0.00000  Uiso   1.00
O881   O     0.79512   0.22775   0.75000   0.00000  Uiso   1.00
O882   O     0.87154   0.10558   0.74999   0.00000  Uiso   1.00
O883   O     0.87157   0.22774   0.75000   0.00000  Uiso   1.00
O884   O     0.79510   0.10559   0.75000   0.00000  Uiso   1.00
C885   C     0.83320   0.24675   0.74829   0.00000  Uiso   1.00
C886   C     0.83486   0.08656   0.74817   0.00000  Uiso   1.00
O887   O     0.77328   0.16667   0.81612   0.00000  Uiso   1.00
O888   O     0.89339   0.16666   0.68387   0.00000  Uiso   1.00
O889   O     0.84972   0.16666   0.81612   0.00000  Uiso   1.00
O890   O     0.81695   0.16667   0.68388   0.00000  Uiso   1.00
C891   C     0.80280   0.16737   0.83803   0.00000  Uiso   1.00
C892   C     0.86375   0.16723   0.66197   0.00000  Uiso   1.00
Zn893  Zn    0.78229   0.16667   0.75000   0.00000  Uiso   1.00
Zn894  Zn    0.88438   0.16666   0.75000   0.00000  Uiso   1.00
C895   C     0.78332   0.17104   0.88861   0.00000  Uiso   1.00
C896   C     0.88158   0.17450   0.61201   0.00000  Uiso   1.00
C897   C     0.71898   0.16274   0.96403   0.00000  Uiso   1.00
C898   C     0.93703   0.20699   0.54260   0.00000  Uiso   1.00
C899   C     0.73479   0.16184   0.91567   0.00000  Uiso   1.00
C900   C     0.92628   0.19321   0.58805   0.00000  Uiso   1.00
C901   C     0.81484   0.18355   0.90984   0.00000  Uiso   1.00
C902   C     0.84858   0.16898   0.59027   0.00000  Uiso   1.00
C903   C     0.79982   0.18504   0.95820   0.00000  Uiso   1.00
C904   C     0.85636   0.18609   0.54685   0.00000  Uiso   1.00
C905   C     0.75151   0.17314   0.98546   0.00000  Uiso   1.00
C906   C     0.90234   0.20347   0.52177   0.00000  Uiso   1.00
C907   C     0.83303   0.19448   0.97982   0.00000  Uiso   1.00
C908   C     0.81990   0.18518   0.52748   0.00000  Uiso   1.00
C909   C     0.77068   0.17570   0.55436   0.00000  Uiso   1.00
C910   C     0.87912   0.21213   0.95539   0.00000  Uiso   1.00
C911   C     0.73689   0.17041   0.53359   0.00000  Uiso   1.00
C912   C     0.91281   0.21719   0.97648   0.00000  Uiso   1.00
H913   H     0.69982   0.16230   0.55506   0.00000  Uiso   1.00
H914   H     0.94758   0.23103   0.95690   0.00000  Uiso   1.00
H915   H     0.81627   0.15159   0.60834   0.00000  Uiso   1.00
H916   H     0.85206   0.18979   0.88790   0.00000  Uiso   1.00
H917   H     0.95196   0.19834   0.60484   0.00000  Uiso   1.00
H918   H     0.70976   0.15257   0.89955   0.00000  Uiso   1.00
H919   H     0.68200   0.15375   0.98458   0.00000  Uiso   1.00
H920   H     0.97177   0.22131   0.52423   0.00000  Uiso   1.00
H921   H     0.75705   0.17303   0.59180   0.00000  Uiso   1.00
H922   H     0.88951   0.22359   0.92033   0.00000  Uiso   1.00
C923   C     0.87610   0.30969   0.74276   0.00000  Uiso   1.00
C924   C     0.79679   0.02350   0.74128   0.00000  Uiso   1.00
H925   H     0.90749   0.29125   0.74233   0.00000  Uiso   1.00
H926   H     0.76616   0.04192   0.73983   0.00000  Uiso   1.00
C927   C     0.87965   0.01857   0.74212   0.00000  Uiso   1.00
C928   C     0.79375   0.31456   0.74080   0.00000  Uiso   1.00
C929   C     0.83794   0.04237   0.74381   0.00000  Uiso   1.00
C930   C     0.83351   0.29087   0.74397   0.00000  Uiso   1.00
C931   C     0.99160   0.15551   0.71104   0.00000  Uiso   1.00
C932   C     0.67517   0.17867   0.78867   0.00000  Uiso   1.00
H933   H     0.98594   0.14667   0.67987   0.00000  Uiso   1.00
H934   H     0.68094   0.18836   0.81953   0.00000  Uiso   1.00
C935   C     0.70616   0.15504   0.71120   0.00000  Uiso   1.00
C936   C     0.96056   0.17867   0.78866   0.00000  Uiso   1.00
H937   H     0.73653   0.14539   0.68018   0.00000  Uiso   1.00
H938   H     0.93023   0.18857   0.81956   0.00000  Uiso   1.00
N939   N     0.71426   0.16668   0.75001   0.00000  Uiso   1.00
N940   N     0.95241   0.16666   0.74999   0.00000  Uiso   1.00
C941   C     0.92892   0.03515   0.73844   0.00000  Uiso   1.00
C942   C     0.95862   0.04965   0.68874   0.00000  Uiso   1.00
C943   C     0.67894   0.05556   0.68147   0.00000  Uiso   1.00
H944   H     0.68197   0.07245   0.71125   0.00000  Uiso   1.00
H945   H     0.69823   0.02531   0.67831   0.00000  Uiso   1.00
H946   H     0.69735   0.07308   0.64895   0.00000  Uiso   1.00
H947   H     0.95716   0.02642   0.66306   0.00000  Uiso   1.00
H948   H     0.94286   0.07910   0.68153   0.00000  Uiso   1.00
H949   H     0.92494   0.05938   0.76477   0.00000  Uiso   1.00
H950   H     0.95098   0.01050   0.74724   0.00000  Uiso   1.00
C951   C     0.74778   0.29745   0.73671   0.00000  Uiso   1.00
C952   C     0.75828   0.28034   0.68763   0.00000  Uiso   1.00
C953   C     0.71215   0.26326   0.68375   0.00000  Uiso   1.00
H954   H     0.69590   0.24009   0.71120   0.00000  Uiso   1.00
H955   H     0.68439   0.28823   0.68782   0.00000  Uiso   1.00
H956   H     0.72144   0.24844   0.64916   0.00000  Uiso   1.00
H957   H     0.77202   0.30537   0.66170   0.00000  Uiso   1.00
H958   H     0.78695   0.25549   0.67858   0.00000  Uiso   1.00
H959   H     0.73049   0.27453   0.76426   0.00000  Uiso   1.00
H960   H     0.71900   0.32216   0.74345   0.00000  Uiso   1.00
O961   O     0.12846   0.56108   0.75000   0.00000  Uiso   1.00
O962   O     0.20488   0.43892   0.74999   0.00000  Uiso   1.00
O963   O     0.20490   0.56107   0.75000   0.00000  Uiso   1.00
O964   O     0.12843   0.43893   0.75000   0.00000  Uiso   1.00
C965   C     0.16653   0.58008   0.74829   0.00000  Uiso   1.00
C966   C     0.16819   0.41989   0.74817   0.00000  Uiso   1.00
O967   O     0.10661   0.50001   0.81612   0.00000  Uiso   1.00
O968   O     0.22672   0.49999   0.68387   0.00000  Uiso   1.00
O969   O     0.18305   0.50000   0.81612   0.00000  Uiso   1.00
O970   O     0.15028   0.50000   0.68388   0.00000  Uiso   1.00
C971   C     0.13613   0.50071   0.83803   0.00000  Uiso   1.00
C972   C     0.19709   0.50057   0.66197   0.00000  Uiso   1.00
Zn973  Zn    0.11562   0.50001   0.75000   0.00000  Uiso   1.00
Zn974  Zn    0.21771   0.49999   0.75000   0.00000  Uiso   1.00
C975   C     0.11666   0.50437   0.88861   0.00000  Uiso   1.00
C976   C     0.21492   0.50783   0.61201   0.00000  Uiso   1.00
C977   C     0.05231   0.49608   0.96403   0.00000  Uiso   1.00
C978   C     0.27036   0.54032   0.54260   0.00000  Uiso   1.00
C979   C     0.06812   0.49518   0.91567   0.00000  Uiso   1.00
C980   C     0.25962   0.52655   0.58805   0.00000  Uiso   1.00
C981   C     0.14817   0.51688   0.90984   0.00000  Uiso   1.00
C982   C     0.18191   0.50232   0.59027   0.00000  Uiso   1.00
C983   C     0.13316   0.51837   0.95820   0.00000  Uiso   1.00
C984   C     0.18969   0.51942   0.54685   0.00000  Uiso   1.00
C985   C     0.08485   0.50647   0.98546   0.00000  Uiso   1.00
C986   C     0.23567   0.53680   0.52177   0.00000  Uiso   1.00
C987   C     0.16637   0.52781   0.97982   0.00000  Uiso   1.00
C988   C     0.15323   0.51851   0.52748   0.00000  Uiso   1.00
C989   C     0.10401   0.50903   0.55436   0.00000  Uiso   1.00
C990   C     0.21245   0.54546   0.95539   0.00000  Uiso   1.00
C991   C     0.07022   0.50374   0.53359   0.00000  Uiso   1.00
C992   C     0.24614   0.55052   0.97648   0.00000  Uiso   1.00
H993   H     0.03315   0.49563   0.55506   0.00000  Uiso   1.00
H994   H     0.28091   0.56436   0.95690   0.00000  Uiso   1.00
H995   H     0.14960   0.48492   0.60834   0.00000  Uiso   1.00
H996   H     0.18539   0.52312   0.88790   0.00000  Uiso   1.00
H997   H     0.28529   0.53167   0.60484   0.00000  Uiso   1.00
H998   H     0.04309   0.48591   0.89955   0.00000  Uiso   1.00
H999   H     0.01533   0.48708   0.98458   0.00000  Uiso   1.00
H1000  H     0.30510   0.55464   0.52423   0.00000  Uiso   1.00
H1001  H     0.09038   0.50637   0.59180   0.00000  Uiso   1.00
H1002  H     0.22285   0.55692   0.92033   0.00000  Uiso   1.00
C1003  C     0.20943   0.64303   0.74276   0.00000  Uiso   1.00
C1004  C     0.13012   0.35683   0.74128   0.00000  Uiso   1.00
H1005  H     0.24082   0.62458   0.74233   0.00000  Uiso   1.00
H1006  H     0.09949   0.37525   0.73983   0.00000  Uiso   1.00
C1007  C     0.21298   0.35190   0.74212   0.00000  Uiso   1.00
C1008  C     0.12708   0.64790   0.74080   0.00000  Uiso   1.00
C1009  C     0.17127   0.37570   0.74381   0.00000  Uiso   1.00
C1010  C     0.16684   0.62420   0.74397   0.00000  Uiso   1.00
C1011  C     0.32493   0.48884   0.71104   0.00000  Uiso   1.00
C1012  C     0.00850   0.51200   0.78867   0.00000  Uiso   1.00
H1013  H     0.31927   0.48001   0.67987   0.00000  Uiso   1.00
H1014  H     0.01428   0.52169   0.81953   0.00000  Uiso   1.00
C1015  C     0.03950   0.48838   0.71120   0.00000  Uiso   1.00
C1016  C     0.29390   0.51200   0.78866   0.00000  Uiso   1.00
H1017  H     0.06987   0.47872   0.68018   0.00000  Uiso   1.00
H1018  H     0.26357   0.52190   0.81956   0.00000  Uiso   1.00
N1019  N     0.04759   0.50001   0.75001   0.00000  Uiso   1.00
N1020  N     0.28574   0.49999   0.74999   0.00000  Uiso   1.00
C1021  C     0.26226   0.36848   0.73844   0.00000  Uiso   1.00
C1022  C     0.29195   0.38298   0.68874   0.00000  Uiso   1.00
C1023  C     0.01227   0.38889   0.68147   0.00000  Uiso   1.00
H1024  H     0.01531   0.40578   0.71125   0.00000  Uiso   1.00
H1025  H     0.03157   0.35865   0.67831   0.00000  Uiso   1.00
H1026  H     0.03068   0.40641   0.64895   0.00000  Uiso   1.00
H1027  H     0.29049   0.35975   0.66306   0.00000  Uiso   1.00
H1028  H     0.27620   0.41243   0.68153   0.00000  Uiso   1.00
H1029  H     0.25827   0.39272   0.76477   0.00000  Uiso   1.00
H1030  H     0.28432   0.34383   0.74724   0.00000  Uiso   1.00
C1031  C     0.08112   0.63079   0.73671   0.00000  Uiso   1.00
C1032  C     0.09161   0.61367   0.68763   0.00000  Uiso   1.00
C1033  C     0.04548   0.59659   0.68375   0.00000  Uiso   1.00
H1034  H     0.02923   0.57342   0.71120   0.00000  Uiso   1.00
H1035  H     0.01772   0.62156   0.68782   0.00000  Uiso   1.00
H1036  H     0.05478   0.58178   0.64916   0.00000  Uiso   1.00
H1037  H     0.10535   0.63870   0.66170   0.00000  Uiso   1.00
H1038  H     0.12029   0.58883   0.67858   0.00000  Uiso   1.00
H1039  H     0.06383   0.60786   0.76426   0.00000  Uiso   1.00
H1040  H     0.05233   0.65549   0.74345   0.00000  Uiso   1.00
O1041  O     0.46179   0.56108   0.75000   0.00000  Uiso   1.00
O1042  O     0.53821   0.43892   0.74999   0.00000  Uiso   1.00
O1043  O     0.53823   0.56107   0.75000   0.00000  Uiso   1.00
O1044  O     0.46177   0.43893   0.75000   0.00000  Uiso   1.00
C1045  C     0.49986   0.58008   0.74829   0.00000  Uiso   1.00
C1046  C     0.50153   0.41989   0.74817   0.00000  Uiso   1.00
O1047  O     0.43994   0.50001   0.81612   0.00000  Uiso   1.00
O1048  O     0.56006   0.49999   0.68387   0.00000  Uiso   1.00
O1049  O     0.51639   0.50000   0.81612   0.00000  Uiso   1.00
O1050  O     0.48361   0.50000   0.68388   0.00000  Uiso   1.00
C1051  C     0.46947   0.50071   0.83803   0.00000  Uiso   1.00
C1052  C     0.53042   0.50057   0.66197   0.00000  Uiso   1.00
Zn1053 Zn    0.44896   0.50001   0.75000   0.00000  Uiso   1.00
Zn1054 Zn    0.55104   0.49999   0.75000   0.00000  Uiso   1.00
C1055  C     0.44999   0.50437   0.88861   0.00000  Uiso   1.00
C1056  C     0.54825   0.50783   0.61201   0.00000  Uiso   1.00
C1057  C     0.38565   0.49608   0.96403   0.00000  Uiso   1.00
C1058  C     0.60369   0.54032   0.54260   0.00000  Uiso   1.00
C1059  C     0.40146   0.49518   0.91567   0.00000  Uiso   1.00
C1060  C     0.59295   0.52655   0.58805   0.00000  Uiso   1.00
C1061  C     0.48150   0.51688   0.90984   0.00000  Uiso   1.00
C1062  C     0.51524   0.50232   0.59027   0.00000  Uiso   1.00
C1063  C     0.46649   0.51837   0.95820   0.00000  Uiso   1.00
C1064  C     0.52303   0.51942   0.54685   0.00000  Uiso   1.00
C1065  C     0.41818   0.50647   0.98546   0.00000  Uiso   1.00
C1066  C     0.56901   0.53680   0.52177   0.00000  Uiso   1.00
C1067  C     0.49970   0.52781   0.97982   0.00000  Uiso   1.00
C1068  C     0.48656   0.51851   0.52748   0.00000  Uiso   1.00
C1069  C     0.43734   0.50903   0.55436   0.00000  Uiso   1.00
C1070  C     0.54579   0.54546   0.95539   0.00000  Uiso   1.00
C1071  C     0.40356   0.50374   0.53359   0.00000  Uiso   1.00
C1072  C     0.57947   0.55052   0.97648   0.00000  Uiso   1.00
H1073  H     0.36648   0.49563   0.55506   0.00000  Uiso   1.00
H1074  H     0.61424   0.56436   0.95690   0.00000  Uiso   1.00
H1075  H     0.48293   0.48492   0.60834   0.00000  Uiso   1.00
H1076  H     0.51873   0.52312   0.88790   0.00000  Uiso   1.00
H1077  H     0.61862   0.53167   0.60484   0.00000  Uiso   1.00
H1078  H     0.37643   0.48591   0.89955   0.00000  Uiso   1.00
H1079  H     0.34866   0.48708   0.98458   0.00000  Uiso   1.00
H1080  H     0.63844   0.55464   0.52423   0.00000  Uiso   1.00
H1081  H     0.42371   0.50637   0.59180   0.00000  Uiso   1.00
H1082  H     0.55618   0.55692   0.92033   0.00000  Uiso   1.00
C1083  C     0.54277   0.64303   0.74276   0.00000  Uiso   1.00
C1084  C     0.46346   0.35683   0.74128   0.00000  Uiso   1.00
H1085  H     0.57415   0.62458   0.74233   0.00000  Uiso   1.00
H1086  H     0.43283   0.37525   0.73983   0.00000  Uiso   1.00
C1087  C     0.54632   0.35190   0.74212   0.00000  Uiso   1.00
C1088  C     0.46042   0.64790   0.74080   0.00000  Uiso   1.00
C1089  C     0.50460   0.37570   0.74381   0.00000  Uiso   1.00
C1090  C     0.50017   0.62420   0.74397   0.00000  Uiso   1.00
C1091  C     0.65826   0.48884   0.71104   0.00000  Uiso   1.00
C1092  C     0.34183   0.51200   0.78867   0.00000  Uiso   1.00
H1093  H     0.65261   0.48001   0.67987   0.00000  Uiso   1.00
H1094  H     0.34761   0.52169   0.81953   0.00000  Uiso   1.00
C1095  C     0.37283   0.48838   0.71120   0.00000  Uiso   1.00
C1096  C     0.62723   0.51200   0.78866   0.00000  Uiso   1.00
H1097  H     0.40320   0.47872   0.68018   0.00000  Uiso   1.00
H1098  H     0.59690   0.52190   0.81956   0.00000  Uiso   1.00
N1099  N     0.38093   0.50001   0.75001   0.00000  Uiso   1.00
N1100  N     0.61907   0.49999   0.74999   0.00000  Uiso   1.00
C1101  C     0.59559   0.36848   0.73844   0.00000  Uiso   1.00
C1102  C     0.62529   0.38298   0.68874   0.00000  Uiso   1.00
C1103  C     0.34561   0.38889   0.68147   0.00000  Uiso   1.00
H1104  H     0.34864   0.40578   0.71125   0.00000  Uiso   1.00
H1105  H     0.36490   0.35865   0.67831   0.00000  Uiso   1.00
H1106  H     0.36401   0.40641   0.64895   0.00000  Uiso   1.00
H1107  H     0.62383   0.35975   0.66306   0.00000  Uiso   1.00
H1108  H     0.60953   0.41243   0.68153   0.00000  Uiso   1.00
H1109  H     0.59160   0.39272   0.76477   0.00000  Uiso   1.00
H1110  H     0.61765   0.34383   0.74724   0.00000  Uiso   1.00
C1111  C     0.41445   0.63079   0.73671   0.00000  Uiso   1.00
C1112  C     0.42494   0.61367   0.68763   0.00000  Uiso   1.00
C1113  C     0.37881   0.59659   0.68375   0.00000  Uiso   1.00
H1114  H     0.36256   0.57342   0.71120   0.00000  Uiso   1.00
H1115  H     0.35106   0.62156   0.68782   0.00000  Uiso   1.00
H1116  H     0.38811   0.58178   0.64916   0.00000  Uiso   1.00
H1117  H     0.43869   0.63870   0.66170   0.00000  Uiso   1.00
H1118  H     0.45362   0.58883   0.67858   0.00000  Uiso   1.00
H1119  H     0.39716   0.60786   0.76426   0.00000  Uiso   1.00
H1120  H     0.38567   0.65549   0.74345   0.00000  Uiso   1.00
O1121  O     0.79512   0.56108   0.75000   0.00000  Uiso   1.00
O1122  O     0.87154   0.43892   0.74999   0.00000  Uiso   1.00
O1123  O     0.87157   0.56107   0.75000   0.00000  Uiso   1.00
O1124  O     0.79510   0.43893   0.75000   0.00000  Uiso   1.00
C1125  C     0.83320   0.58008   0.74829   0.00000  Uiso   1.00
C1126  C     0.83486   0.41989   0.74817   0.00000  Uiso   1.00
O1127  O     0.77328   0.50001   0.81612   0.00000  Uiso   1.00
O1128  O     0.89339   0.49999   0.68387   0.00000  Uiso   1.00
O1129  O     0.84972   0.50000   0.81612   0.00000  Uiso   1.00
O1130  O     0.81695   0.50000   0.68388   0.00000  Uiso   1.00
C1131  C     0.80280   0.50071   0.83803   0.00000  Uiso   1.00
C1132  C     0.86375   0.50057   0.66197   0.00000  Uiso   1.00
Zn1133 Zn    0.78229   0.50001   0.75000   0.00000  Uiso   1.00
Zn1134 Zn    0.88438   0.49999   0.75000   0.00000  Uiso   1.00
C1135  C     0.78332   0.50437   0.88861   0.00000  Uiso   1.00
C1136  C     0.88158   0.50783   0.61201   0.00000  Uiso   1.00
C1137  C     0.71898   0.49608   0.96403   0.00000  Uiso   1.00
C1138  C     0.93703   0.54032   0.54260   0.00000  Uiso   1.00
C1139  C     0.73479   0.49518   0.91567   0.00000  Uiso   1.00
C1140  C     0.92628   0.52655   0.58805   0.00000  Uiso   1.00
C1141  C     0.81484   0.51688   0.90984   0.00000  Uiso   1.00
C1142  C     0.84858   0.50232   0.59027   0.00000  Uiso   1.00
C1143  C     0.79982   0.51837   0.95820   0.00000  Uiso   1.00
C1144  C     0.85636   0.51942   0.54685   0.00000  Uiso   1.00
C1145  C     0.75151   0.50647   0.98546   0.00000  Uiso   1.00
C1146  C     0.90234   0.53680   0.52177   0.00000  Uiso   1.00
C1147  C     0.83303   0.52781   0.97982   0.00000  Uiso   1.00
C1148  C     0.81990   0.51851   0.52748   0.00000  Uiso   1.00
C1149  C     0.77068   0.50903   0.55436   0.00000  Uiso   1.00
C1150  C     0.87912   0.54546   0.95539   0.00000  Uiso   1.00
C1151  C     0.73689   0.50374   0.53359   0.00000  Uiso   1.00
C1152  C     0.91281   0.55052   0.97648   0.00000  Uiso   1.00
H1153  H     0.69982   0.49563   0.55506   0.00000  Uiso   1.00
H1154  H     0.94758   0.56436   0.95690   0.00000  Uiso   1.00
H1155  H     0.81627   0.48492   0.60834   0.00000  Uiso   1.00
H1156  H     0.85206   0.52312   0.88790   0.00000  Uiso   1.00
H1157  H     0.95196   0.53167   0.60484   0.00000  Uiso   1.00
H1158  H     0.70976   0.48591   0.89955   0.00000  Uiso   1.00
H1159  H     0.68200   0.48708   0.98458   0.00000  Uiso   1.00
H1160  H     0.97177   0.55464   0.52423   0.00000  Uiso   1.00
H1161  H     0.75705   0.50637   0.59180   0.00000  Uiso   1.00
H1162  H     0.88951   0.55692   0.92033   0.00000  Uiso   1.00
C1163  C     0.87610   0.64303   0.74276   0.00000  Uiso   1.00
C1164  C     0.79679   0.35683   0.74128   0.00000  Uiso   1.00
H1165  H     0.90749   0.62458   0.74233   0.00000  Uiso   1.00
H1166  H     0.76616   0.37525   0.73983   0.00000  Uiso   1.00
C1167  C     0.87965   0.35190   0.74212   0.00000  Uiso   1.00
C1168  C     0.79375   0.64790   0.74080   0.00000  Uiso   1.00
C1169  C     0.83794   0.37570   0.74381   0.00000  Uiso   1.00
C1170  C     0.83351   0.62420   0.74397   0.00000  Uiso   1.00
C1171  C     0.99160   0.48884   0.71104   0.00000  Uiso   1.00
C1172  C     0.67517   0.51200   0.78867   0.00000  Uiso   1.00
H1173  H     0.98594   0.48001   0.67987   0.00000  Uiso   1.00
H1174  H     0.68094   0.52169   0.81953   0.00000  Uiso   1.00
C1175  C     0.70616   0.48838   0.71120   0.00000  Uiso   1.00
C1176  C     0.96056   0.51200   0.78866   0.00000  Uiso   1.00
H1177  H     0.73653   0.47872   0.68018   0.00000  Uiso   1.00
H1178  H     0.93023   0.52190   0.81956   0.00000  Uiso   1.00
N1179  N     0.71426   0.50001   0.75001   0.00000  Uiso   1.00
N1180  N     0.95241   0.49999   0.74999   0.00000  Uiso   1.00
C1181  C     0.92892   0.36848   0.73844   0.00000  Uiso   1.00
C1182  C     0.95862   0.38298   0.68874   0.00000  Uiso   1.00
C1183  C     0.67894   0.38889   0.68147   0.00000  Uiso   1.00
H1184  H     0.68197   0.40578   0.71125   0.00000  Uiso   1.00
H1185  H     0.69823   0.35865   0.67831   0.00000  Uiso   1.00
H1186  H     0.69735   0.40641   0.64895   0.00000  Uiso   1.00
H1187  H     0.95716   0.35975   0.66306   0.00000  Uiso   1.00
H1188  H     0.94286   0.41243   0.68153   0.00000  Uiso   1.00
H1189  H     0.92494   0.39272   0.76477   0.00000  Uiso   1.00
H1190  H     0.95098   0.34383   0.74724   0.00000  Uiso   1.00
C1191  C     0.74778   0.63079   0.73671   0.00000  Uiso   1.00
C1192  C     0.75828   0.61367   0.68763   0.00000  Uiso   1.00
C1193  C     0.71215   0.59659   0.68375   0.00000  Uiso   1.00
H1194  H     0.69590   0.57342   0.71120   0.00000  Uiso   1.00
H1195  H     0.68439   0.62156   0.68782   0.00000  Uiso   1.00
H1196  H     0.72144   0.58178   0.64916   0.00000  Uiso   1.00
H1197  H     0.77202   0.63870   0.66170   0.00000  Uiso   1.00
H1198  H     0.78695   0.58883   0.67858   0.00000  Uiso   1.00
H1199  H     0.73049   0.60786   0.76426   0.00000  Uiso   1.00
H1200  H     0.71900   0.65549   0.74345   0.00000  Uiso   1.00
O1201  O     0.12846   0.89442   0.75000   0.00000  Uiso   1.00
O1202  O     0.20488   0.77225   0.74999   0.00000  Uiso   1.00
O1203  O     0.20490   0.89441   0.75000   0.00000  Uiso   1.00
O1204  O     0.12843   0.77226   0.75000   0.00000  Uiso   1.00
C1205  C     0.16653   0.91342   0.74829   0.00000  Uiso   1.00
C1206  C     0.16819   0.75322   0.74817   0.00000  Uiso   1.00
O1207  O     0.10661   0.83334   0.81612   0.00000  Uiso   1.00
O1208  O     0.22672   0.83333   0.68387   0.00000  Uiso   1.00
O1209  O     0.18305   0.83333   0.81612   0.00000  Uiso   1.00
O1210  O     0.15028   0.83334   0.68388   0.00000  Uiso   1.00
C1211  C     0.13613   0.83404   0.83803   0.00000  Uiso   1.00
C1212  C     0.19709   0.83390   0.66197   0.00000  Uiso   1.00
Zn1213 Zn    0.11562   0.83334   0.75000   0.00000  Uiso   1.00
Zn1214 Zn    0.21771   0.83333   0.75000   0.00000  Uiso   1.00
C1215  C     0.11666   0.83770   0.88861   0.00000  Uiso   1.00
C1216  C     0.21492   0.84116   0.61201   0.00000  Uiso   1.00
C1217  C     0.05231   0.82941   0.96403   0.00000  Uiso   1.00
C1218  C     0.27036   0.87365   0.54260   0.00000  Uiso   1.00
C1219  C     0.06812   0.82851   0.91567   0.00000  Uiso   1.00
C1220  C     0.25962   0.85988   0.58805   0.00000  Uiso   1.00
C1221  C     0.14817   0.85021   0.90984   0.00000  Uiso   1.00
C1222  C     0.18191   0.83565   0.59027   0.00000  Uiso   1.00
C1223  C     0.13316   0.85171   0.95820   0.00000  Uiso   1.00
C1224  C     0.18969   0.85275   0.54685   0.00000  Uiso   1.00
C1225  C     0.08485   0.83980   0.98546   0.00000  Uiso   1.00
C1226  C     0.23567   0.87014   0.52177   0.00000  Uiso   1.00
C1227  C     0.16637   0.86114   0.97982   0.00000  Uiso   1.00
C1228  C     0.15323   0.85185   0.52748   0.00000  Uiso   1.00
C1229  C     0.10401   0.84236   0.55436   0.00000  Uiso   1.00
C1230  C     0.21245   0.87880   0.95539   0.00000  Uiso   1.00
C1231  C     0.07022   0.83707   0.53359   0.00000  Uiso   1.00
C1232  C     0.24614   0.88385   0.97648   0.00000  Uiso   1.00
H1233  H     0.03315   0.82896   0.55506   0.00000  Uiso   1.00
H1234  H     0.28091   0.89769   0.95690   0.00000  Uiso   1.00
H1235  H     0.14960   0.81826   0.60834   0.00000  Uiso   1.00
H1236  H     0.18539   0.85646   0.88790   0.00000  Uiso   1.00
H1237  H     0.28529   0.86500   0.60484   0.00000  Uiso   1.00
H1238  H     0.04309   0.81924   0.89955   0.00000  Uiso   1.00
H1239  H     0.01533   0.82041   0.98458   0.00000  Uiso   1.00
H1240  H     0.30510   0.88798   0.52423   0.00000  Uiso   1.00
H1241  H     0.09038   0.83970   0.59180   0.00000  Uiso   1.00
H1242  H     0.22285   0.89025   0.92033   0.00000  Uiso   1.00
C1243  C     0.20943   0.97636   0.74276   0.00000  Uiso   1.00
C1244  C     0.13012   0.69017   0.74128   0.00000  Uiso   1.00
H1245  H     0.24082   0.95792   0.74233   0.00000  Uiso   1.00
H1246  H     0.09949   0.70858   0.73983   0.00000  Uiso   1.00
C1247  C     0.21298   0.68523   0.74212   0.00000  Uiso   1.00
C1248  C     0.12708   0.98123   0.74080   0.00000  Uiso   1.00
C1249  C     0.17127   0.70904   0.74381   0.00000  Uiso   1.00
C1250  C     0.16684   0.95753   0.74397   0.00000  Uiso   1.00
C1251  C     0.32493   0.82218   0.71104   0.00000  Uiso   1.00
C1252  C     0.00850   0.84533   0.78867   0.00000  Uiso   1.00
H1253  H     0.31927   0.81334   0.67987   0.00000  Uiso   1.00
H1254  H     0.01428   0.85502   0.81953   0.00000  Uiso   1.00
C1255  C     0.03950   0.82171   0.71120   0.00000  Uiso   1.00
C1256  C     0.29390   0.84534   0.78866   0.00000  Uiso   1.00
H1257  H     0.06987   0.81206   0.68018   0.00000  Uiso   1.00
H1258  H     0.26357   0.85524   0.81956   0.00000  Uiso   1.00
N1259  N     0.04759   0.83334   0.75001   0.00000  Uiso   1.00
N1260  N     0.28574   0.83332   0.74999   0.00000  Uiso   1.00
C1261  C     0.26226   0.70182   0.73844   0.00000  Uiso   1.00
C1262  C     0.29195   0.71632   0.68874   0.00000  Uiso   1.00
C1263  C     0.01227   0.72223   0.68147   0.00000  Uiso   1.00
H1264  H     0.01531   0.73911   0.71125   0.00000  Uiso   1.00
H1265  H     0.03157   0.69198   0.67831   0.00000  Uiso   1.00
H1266  H     0.03068   0.73975   0.64895   0.00000  Uiso   1.00
H1267  H     0.29049   0.69308   0.66306   0.00000  Uiso   1.00
H1268  H     0.27620   0.74577   0.68153   0.00000  Uiso   1.00
H1269  H     0.25827   0.72605   0.76477   0.00000  Uiso   1.00
H1270  H     0.28432   0.67716   0.74724   0.00000  Uiso   1.00
C1271  C     0.08112   0.96412   0.73671   0.00000  Uiso   1.00
C1272  C     0.09161   0.94700   0.68763   0.00000  Uiso   1.00
C1273  C     0.04548   0.92993   0.68375   0.00000  Uiso   1.00
H1274  H     0.02923   0.90675   0.71120   0.00000  Uiso   1.00
H1275  H     0.01772   0.95489   0.68782   0.00000  Uiso   1.00
H1276  H     0.05478   0.91511   0.64916   0.00000  Uiso   1.00
H1277  H     0.10535   0.97204   0.66170   0.00000  Uiso   1.00
H1278  H     0.12029   0.92216   0.67858   0.00000  Uiso   1.00
H1279  H     0.06383   0.94120   0.76426   0.00000  Uiso   1.00
H1280  H     0.05233   0.98882   0.74345   0.00000  Uiso   1.00
O1281  O     0.46179   0.89442   0.75000   0.00000  Uiso   1.00
O1282  O     0.53821   0.77225   0.74999   0.00000  Uiso   1.00
O1283  O     0.53823   0.89441   0.75000   0.00000  Uiso   1.00
O1284  O     0.46177   0.77226   0.75000   0.00000  Uiso   1.00
C1285  C     0.49986   0.91342   0.74829   0.00000  Uiso   1.00
C1286  C     0.50153   0.75322   0.74817   0.00000  Uiso   1.00
O1287  O     0.43994   0.83334   0.81612   0.00000  Uiso   1.00
O1288  O     0.56006   0.83333   0.68387   0.00000  Uiso   1.00
O1289  O     0.51639   0.83333   0.81612   0.00000  Uiso   1.00
O1290  O     0.48361   0.83334   0.68388   0.00000  Uiso   1.00
C1291  C     0.46947   0.83404   0.83803   0.00000  Uiso   1.00
C1292  C     0.53042   0.83390   0.66197   0.00000  Uiso   1.00
Zn1293 Zn    0.44896   0.83334   0.75000   0.00000  Uiso   1.00
Zn1294 Zn    0.55104   0.83333   0.75000   0.00000  Uiso   1.00
C1295  C     0.44999   0.83770   0.88861   0.00000  Uiso   1.00
C1296  C     0.54825   0.84116   0.61201   0.00000  Uiso   1.00
C1297  C     0.38565   0.82941   0.96403   0.00000  Uiso   1.00
C1298  C     0.60369   0.87365   0.54260   0.00000  Uiso   1.00
C1299  C     0.40146   0.82851   0.91567   0.00000  Uiso   1.00
C1300  C     0.59295   0.85988   0.58805   0.00000  Uiso   1.00
C1301  C     0.48150   0.85021   0.90984   0.00000  Uiso   1.00
C1302  C     0.51524   0.83565   0.59027   0.00000  Uiso   1.00
C1303  C     0.46649   0.85171   0.95820   0.00000  Uiso   1.00
C1304  C     0.52303   0.85275   0.54685   0.00000  Uiso   1.00
C1305  C     0.41818   0.83980   0.98546   0.00000  Uiso   1.00
C1306  C     0.56901   0.87014   0.52177   0.00000  Uiso   1.00
C1307  C     0.49970   0.86114   0.97982   0.00000  Uiso   1.00
C1308  C     0.48656   0.85185   0.52748   0.00000  Uiso   1.00
C1309  C     0.43734   0.84236   0.55436   0.00000  Uiso   1.00
C1310  C     0.54579   0.87880   0.95539   0.00000  Uiso   1.00
C1311  C     0.40356   0.83707   0.53359   0.00000  Uiso   1.00
C1312  C     0.57947   0.88385   0.97648   0.00000  Uiso   1.00
H1313  H     0.36648   0.82896   0.55506   0.00000  Uiso   1.00
H1314  H     0.61424   0.89769   0.95690   0.00000  Uiso   1.00
H1315  H     0.48293   0.81826   0.60834   0.00000  Uiso   1.00
H1316  H     0.51873   0.85646   0.88790   0.00000  Uiso   1.00
H1317  H     0.61862   0.86500   0.60484   0.00000  Uiso   1.00
H1318  H     0.37643   0.81924   0.89955   0.00000  Uiso   1.00
H1319  H     0.34866   0.82041   0.98458   0.00000  Uiso   1.00
H1320  H     0.63844   0.88798   0.52423   0.00000  Uiso   1.00
H1321  H     0.42371   0.83970   0.59180   0.00000  Uiso   1.00
H1322  H     0.55618   0.89025   0.92033   0.00000  Uiso   1.00
C1323  C     0.54277   0.97636   0.74276   0.00000  Uiso   1.00
C1324  C     0.46346   0.69017   0.74128   0.00000  Uiso   1.00
H1325  H     0.57415   0.95792   0.74233   0.00000  Uiso   1.00
H1326  H     0.43283   0.70858   0.73983   0.00000  Uiso   1.00
C1327  C     0.54632   0.68523   0.74212   0.00000  Uiso   1.00
C1328  C     0.46042   0.98123   0.74080   0.00000  Uiso   1.00
C1329  C     0.50460   0.70904   0.74381   0.00000  Uiso   1.00
C1330  C     0.50017   0.95753   0.74397   0.00000  Uiso   1.00
C1331  C     0.65826   0.82218   0.71104   0.00000  Uiso   1.00
C1332  C     0.34183   0.84533   0.78867   0.00000  Uiso   1.00
H1333  H     0.65261   0.81334   0.67987   0.00000  Uiso   1.00
H1334  H     0.34761   0.85502   0.81953   0.00000  Uiso   1.00
C1335  C     0.37283   0.82171   0.71120   0.00000  Uiso   1.00
C1336  C     0.62723   0.84534   0.78866   0.00000  Uiso   1.00
H1337  H     0.40320   0.81206   0.68018   0.00000  Uiso   1.00
H1338  H     0.59690   0.85524   0.81956   0.00000  Uiso   1.00
N1339  N     0.38093   0.83334   0.75001   0.00000  Uiso   1.00
N1340  N     0.61907   0.83332   0.74999   0.00000  Uiso   1.00
C1341  C     0.59559   0.70182   0.73844   0.00000  Uiso   1.00
C1342  C     0.62529   0.71632   0.68874   0.00000  Uiso   1.00
C1343  C     0.34561   0.72223   0.68147   0.00000  Uiso   1.00
H1344  H     0.34864   0.73911   0.71125   0.00000  Uiso   1.00
H1345  H     0.36490   0.69198   0.67831   0.00000  Uiso   1.00
H1346  H     0.36401   0.73975   0.64895   0.00000  Uiso   1.00
H1347  H     0.62383   0.69308   0.66306   0.00000  Uiso   1.00
H1348  H     0.60953   0.74577   0.68153   0.00000  Uiso   1.00
H1349  H     0.59160   0.72605   0.76477   0.00000  Uiso   1.00
H1350  H     0.61765   0.67716   0.74724   0.00000  Uiso   1.00
C1351  C     0.41445   0.96412   0.73671   0.00000  Uiso   1.00
C1352  C     0.42494   0.94700   0.68763   0.00000  Uiso   1.00
C1353  C     0.37881   0.92993   0.68375   0.00000  Uiso   1.00
H1354  H     0.36256   0.90675   0.71120   0.00000  Uiso   1.00
H1355  H     0.35106   0.95489   0.68782   0.00000  Uiso   1.00
H1356  H     0.38811   0.91511   0.64916   0.00000  Uiso   1.00
H1357  H     0.43869   0.97204   0.66170   0.00000  Uiso   1.00
H1358  H     0.45362   0.92216   0.67858   0.00000  Uiso   1.00
H1359  H     0.39716   0.94120   0.76426   0.00000  Uiso   1.00
H1360  H     0.38567   0.98882   0.74345   0.00000  Uiso   1.00
O1361  O     0.79512   0.89442   0.75000   0.00000  Uiso   1.00
O1362  O     0.87154   0.77225   0.74999   0.00000  Uiso   1.00
O1363  O     0.87157   0.89441   0.75000   0.00000  Uiso   1.00
O1364  O     0.79510   0.77226   0.75000   0.00000  Uiso   1.00
C1365  C     0.83320   0.91342   0.74829   0.00000  Uiso   1.00
C1366  C     0.83486   0.75322   0.74817   0.00000  Uiso   1.00
O1367  O     0.77328   0.83334   0.81612   0.00000  Uiso   1.00
O1368  O     0.89339   0.83333   0.68387   0.00000  Uiso   1.00
O1369  O     0.84972   0.83333   0.81612   0.00000  Uiso   1.00
O1370  O     0.81695   0.83334   0.68388   0.00000  Uiso   1.00
C1371  C     0.80280   0.83404   0.83803   0.00000  Uiso   1.00
C1372  C     0.86375   0.83390   0.66197   0.00000  Uiso   1.00
Zn1373 Zn    0.78229   0.83334   0.75000   0.00000  Uiso   1.00
Zn1374 Zn    0.88438   0.83333   0.75000   0.00000  Uiso   1.00
C1375  C     0.78332   0.83770   0.88861   0.00000  Uiso   1.00
C1376  C     0.88158   0.84116   0.61201   0.00000  Uiso   1.00
C1377  C     0.71898   0.82941   0.96403   0.00000  Uiso   1.00
C1378  C     0.93703   0.87365   0.54260   0.00000  Uiso   1.00
C1379  C     0.73479   0.82851   0.91567   0.00000  Uiso   1.00
C1380  C     0.92628   0.85988   0.58805   0.00000  Uiso   1.00
C1381  C     0.81484   0.85021   0.90984   0.00000  Uiso   1.00
C1382  C     0.84858   0.83565   0.59027   0.00000  Uiso   1.00
C1383  C     0.79982   0.85171   0.95820   0.00000  Uiso   1.00
C1384  C     0.85636   0.85275   0.54685   0.00000  Uiso   1.00
C1385  C     0.75151   0.83980   0.98546   0.00000  Uiso   1.00
C1386  C     0.90234   0.87014   0.52177   0.00000  Uiso   1.00
C1387  C     0.83303   0.86114   0.97982   0.00000  Uiso   1.00
C1388  C     0.81990   0.85185   0.52748   0.00000  Uiso   1.00
C1389  C     0.77068   0.84236   0.55436   0.00000  Uiso   1.00
C1390  C     0.87912   0.87880   0.95539   0.00000  Uiso   1.00
C1391  C     0.73689   0.83707   0.53359   0.00000  Uiso   1.00
C1392  C     0.91281   0.88385   0.97648   0.00000  Uiso   1.00
H1393  H     0.69982   0.82896   0.55506   0.00000  Uiso   1.00
H1394  H     0.94758   0.89769   0.95690   0.00000  Uiso   1.00
H1395  H     0.81627   0.81826   0.60834   0.00000  Uiso   1.00
H1396  H     0.85206   0.85646   0.88790   0.00000  Uiso   1.00
H1397  H     0.95196   0.86500   0.60484   0.00000  Uiso   1.00
H1398  H     0.70976   0.81924   0.89955   0.00000  Uiso   1.00
H1399  H     0.68200   0.82041   0.98458   0.00000  Uiso   1.00
H1400  H     0.97177   0.88798   0.52423   0.00000  Uiso   1.00
H1401  H     0.75705   0.83970   0.59180   0.00000  Uiso   1.00
H1402  H     0.88951   0.89025   0.92033   0.00000  Uiso   1.00
C1403  C     0.87610   0.97636   0.74276   0.00000  Uiso   1.00
C1404  C     0.79679   0.69017   0.74128   0.00000  Uiso   1.00
H1405  H     0.90749   0.95792   0.74233   0.00000  Uiso   1.00
H1406  H     0.76616   0.70858   0.73983   0.00000  Uiso   1.00
C1407  C     0.87965   0.68523   0.74212   0.00000  Uiso   1.00
C1408  C     0.79375   0.98123   0.74080   0.00000  Uiso   1.00
C1409  C     0.83794   0.70904   0.74381   0.00000  Uiso   1.00
C1410  C     0.83351   0.95753   0.74397   0.00000  Uiso   1.00
C1411  C     0.99160   0.82218   0.71104   0.00000  Uiso   1.00
C1412  C     0.67517   0.84533   0.78867   0.00000  Uiso   1.00
H1413  H     0.98594   0.81334   0.67987   0.00000  Uiso   1.00
H1414  H     0.68094   0.85502   0.81953   0.00000  Uiso   1.00
C1415  C     0.70616   0.82171   0.71120   0.00000  Uiso   1.00
C1416  C     0.96056   0.84534   0.78866   0.00000  Uiso   1.00
H1417  H     0.73653   0.81206   0.68018   0.00000  Uiso   1.00
H1418  H     0.93023   0.85524   0.81956   0.00000  Uiso   1.00
N1419  N     0.71426   0.83334   0.75001   0.00000  Uiso   1.00
N1420  N     0.95241   0.83332   0.74999   0.00000  Uiso   1.00
C1421  C     0.92892   0.70182   0.73844   0.00000  Uiso   1.00
C1422  C     0.95862   0.71632   0.68874   0.00000  Uiso   1.00
C1423  C     0.67894   0.72223   0.68147   0.00000  Uiso   1.00
H1424  H     0.68197   0.73911   0.71125   0.00000  Uiso   1.00
H1425  H     0.69823   0.69198   0.67831   0.00000  Uiso   1.00
H1426  H     0.69735   0.73975   0.64895   0.00000  Uiso   1.00
H1427  H     0.95716   0.69308   0.66306   0.00000  Uiso   1.00
H1428  H     0.94286   0.74577   0.68153   0.00000  Uiso   1.00
H1429  H     0.92494   0.72605   0.76477   0.00000  Uiso   1.00
H1430  H     0.95098   0.67716   0.74724   0.00000  Uiso   1.00
C1431  C     0.74778   0.96412   0.73671   0.00000  Uiso   1.00
C1432  C     0.75828   0.94700   0.68763   0.00000  Uiso   1.00
C1433  C     0.71215   0.92993   0.68375   0.00000  Uiso   1.00
H1434  H     0.69590   0.90675   0.71120   0.00000  Uiso   1.00
H1435  H     0.68439   0.95489   0.68782   0.00000  Uiso   1.00
H1436  H     0.72144   0.91511   0.64916   0.00000  Uiso   1.00
H1437  H     0.77202   0.97204   0.66170   0.00000  Uiso   1.00
H1438  H     0.78695   0.92216   0.67858   0.00000  Uiso   1.00
H1439  H     0.73049   0.94120   0.76426   0.00000  Uiso   1.00
H1440  H     0.71900   0.98882   0.74345   0.00000  Uiso   1.00
loop_
_geom_bond_atom_site_label_1
_geom_bond_atom_site_label_2
_geom_bond_distance
_geom_bond_site_symmetry_2
_ccdc_geom_bond_type
O1     C5      1.278   .     A
O1     Zn13    2.028   .     S
O2     C6      1.279   .     A
O2     Zn14    2.028   .     S
O3     Zn14    2.008   .     S
O3     C5      1.292   .     A
O4     Zn13    2.008   .     S
O4     C6      1.292   .     A
C5     C50     1.437   .     S
C6     C49     1.438   .     S
O7     C11     1.289   .     A
O7     Zn13    1.964   .     S
O8     C12     1.291   .     A
O8     Zn14    1.964   .     S
O9     Zn14    1.916   .     S
O9     C11     1.291   .     A
O10    C12     1.290   .     A
O10    Zn13    1.916   .     S
C11    C15     1.457   .     S
C12    C16     1.456   .     S
Zn13   N59     2.004   .     S
Zn14   N60     2.004   .     S
C15    C19     1.399   .     A
C15    C21     1.393   .     A
C16    C22     1.390   .     A
C16    C20     1.400   .     A
C17    H39     1.083   .     S
C17    C25     1.404   .     A
C17    C19     1.393   .     A
C18    C26     1.405   .     A
C18    H40     1.084   .     S
C18    C20     1.396   .     A
C19    H38     1.083   .     S
C20    H37     1.083   .     S
C21    H36     1.076   .     S
C21    C23     1.395   .     A
C22    H35     1.079   .     S
C22    C24     1.392   .     A
C23    C27     1.417   .     A
C23    C25     1.419   .     A
C24    C26     1.416   .     A
C24    C28     1.414   .     A
C25    C751    1.391   .     S
C26    C752    1.392   1_554 S
C27    C30     1.418   .     A
C27    C748    1.412   .     S
C28    C29     1.417   .     A
C28    C747    1.412   1_554 S
C29    H41     1.080   .     S
C29    C31     1.387   .     A
C30    C32     1.391   .     A
C30    H42     1.079   .     S
C31    H33     1.084   .     S
C31    C745    1.391   1_554 S
C32    H34     1.084   .     S
C32    C746    1.392   .     S
C43    H45     1.084   .     S
C43    C50     1.398   .     A
C43    C287    1.376   .     S
C44    C49     1.401   .     A
C44    H46     1.084   .     S
C44    C528    1.378   1_545 S
C47    C49     1.418   .     A
C47    C61     1.526   .     S
C47    C523    1.376   1_545 S
C48    C50     1.418   .     A
C48    C71     1.526   .     S
C48    C284    1.378   .     S
C51    H53     1.081   .     S
C51    N60     1.363   .     A
C51    C135    1.413   .     S
C52    H54     1.082   .     S
C52    N59     1.364   .     A
C52    C216    1.413   1_455 S
C55    N59     1.367   .     A
C55    H57     1.080   .     S
C55    C211    1.413   1_455 S
C56    N60     1.368   .     A
C56    H58     1.080   .     S
C56    C132    1.413   .     S
C61    H70     1.113   .     S
C61    H69     1.108   .     S
C61    C62     1.537   .     S
C62    H67     1.112   .     S
C62    H68     1.109   .     S
C62    C143    1.528   .     S
C63    H65     1.107   .     S
C63    H66     1.110   .     S
C63    H64     1.109   .     S
C63    C222    1.528   1_455 S
C71    H79     1.109   .     S
C71    H80     1.113   .     S
C71    C72     1.537   .     S
C72    H77     1.112   .     S
C72    H78     1.110   .     S
C72    C73     1.527   .     S
C73    H74     1.107   .     S
C73    H75     1.109   .     S
C73    H76     1.111   .     S
O81    C85     1.278   .     A
O81    Zn93    2.028   .     S
O82    C86     1.279   .     A
O82    Zn94    2.028   .     S
O83    Zn94    2.008   .     S
O83    C85     1.292   .     A
O84    Zn93    2.008   .     S
O84    C86     1.292   .     A
C85    C130    1.437   .     S
C86    C129    1.438   .     S
O87    C91     1.289   .     A
O87    Zn93    1.964   .     S
O88    C92     1.291   .     A
O88    Zn94    1.964   .     S
O89    Zn94    1.916   .     S
O89    C91     1.291   .     A
O90    C92     1.290   .     A
O90    Zn93    1.916   .     S
C91    C95     1.457   .     S
C92    C96     1.456   .     S
Zn93   N139    2.004   .     S
Zn94   N140    2.004   .     S
C95    C99     1.399   .     A
C95    C101    1.393   .     A
C96    C102    1.390   .     A
C96    C100    1.400   .     A
C97    H119    1.083   .     S
C97    C105    1.404   .     A
C97    C99     1.393   .     A
C98    C106    1.405   .     A
C98    H120    1.084   .     S
C98    C100    1.396   .     A
C99    H118    1.083   .     S
C100   H117    1.083   .     S
C101   H116    1.076   .     S
C101   C103    1.395   .     A
C102   H115    1.079   .     S
C102   C104    1.392   .     A
C103   C107    1.417   .     A
C103   C105    1.419   .     A
C104   C106    1.416   .     A
C104   C108    1.414   .     A
C105   C831    1.391   .     S
C106   C832    1.392   1_554 S
C107   C110    1.418   .     A
C107   C828    1.412   .     S
C108   C109    1.417   .     A
C108   C827    1.412   1_554 S
C109   H121    1.080   .     S
C109   C111    1.387   .     A
C110   C112    1.391   .     A
C110   H122    1.079   .     S
C111   H113    1.084   .     S
C111   C825    1.391   1_554 S
C112   H114    1.084   .     S
C112   C826    1.392   .     S
C123   H125    1.084   .     S
C123   C130    1.398   .     A
C123   C367    1.376   .     S
C124   C129    1.401   .     A
C124   H126    1.084   .     S
C124   C608    1.378   1_545 S
C127   C129    1.418   .     A
C127   C141    1.526   .     S
C127   C603    1.376   1_545 S
C128   C130    1.418   .     A
C128   C151    1.526   .     S
C128   C364    1.378   .     S
C131   H133    1.081   .     S
C131   N140    1.363   .     A
C131   C215    1.413   .     S
C132   H134    1.082   .     S
C132   N139    1.364   .     A
C135   N139    1.367   .     A
C135   H137    1.080   .     S
C136   N140    1.368   .     A
C136   H138    1.080   .     S
C136   C212    1.413   .     S
C141   H150    1.113   .     S
C141   H149    1.108   .     S
C141   C142    1.537   .     S
C142   H147    1.112   .     S
C142   H148    1.109   .     S
C142   C223    1.528   .     S
C143   H145    1.107   .     S
C143   H146    1.110   .     S
C143   H144    1.109   .     S
C151   H159    1.109   .     S
C151   H160    1.113   .     S
C151   C152    1.537   .     S
C152   H157    1.112   .     S
C152   H158    1.110   .     S
C152   C153    1.527   .     S
C153   H154    1.107   .     S
C153   H155    1.109   .     S
C153   H156    1.111   .     S
O161   C165    1.278   .     A
O161   Zn173   2.028   .     S
O162   C166    1.279   .     A
O162   Zn174   2.028   .     S
O163   Zn174   2.008   .     S
O163   C165    1.292   .     A
O164   Zn173   2.008   .     S
O164   C166    1.292   .     A
C165   C210    1.437   .     S
C166   C209    1.438   .     S
O167   C171    1.289   .     A
O167   Zn173   1.964   .     S
O168   C172    1.291   .     A
O168   Zn174   1.964   .     S
O169   Zn174   1.916   .     S
O169   C171    1.291   .     A
O170   C172    1.290   .     A
O170   Zn173   1.916   .     S
C171   C175    1.457   .     S
C172   C176    1.456   .     S
Zn173  N219    2.004   .     S
Zn174  N220    2.004   .     S
C175   C179    1.399   .     A
C175   C181    1.393   .     A
C176   C182    1.390   .     A
C176   C180    1.400   .     A
C177   H199    1.083   .     S
C177   C185    1.404   .     A
C177   C179    1.393   .     A
C178   C186    1.405   .     A
C178   H200    1.084   .     S
C178   C180    1.396   .     A
C179   H198    1.083   .     S
C180   H197    1.083   .     S
C181   H196    1.076   .     S
C181   C183    1.395   .     A
C182   H195    1.079   .     S
C182   C184    1.392   .     A
C183   C187    1.417   .     A
C183   C185    1.419   .     A
C184   C186    1.416   .     A
C184   C188    1.414   .     A
C185   C911    1.391   .     S
C186   C912    1.392   1_554 S
C187   C190    1.418   .     A
C187   C908    1.412   .     S
C188   C189    1.417   .     A
C188   C907    1.412   1_554 S
C189   H201    1.080   .     S
C189   C191    1.387   .     A
C190   C192    1.391   .     A
C190   H202    1.079   .     S
C191   H193    1.084   .     S
C191   C905    1.391   1_554 S
C192   H194    1.084   .     S
C192   C906    1.392   .     S
C203   H205    1.084   .     S
C203   C210    1.398   .     A
C203   C447    1.376   .     S
C204   C209    1.401   .     A
C204   H206    1.084   .     S
C204   C688    1.378   1_545 S
C207   C209    1.418   .     A
C207   C221    1.526   .     S
C207   C683    1.376   1_545 S
C208   C210    1.418   .     A
C208   C231    1.526   .     S
C208   C444    1.378   .     S
C211   H213    1.081   .     S
C211   N220    1.363   .     A
C211   C55     1.413   1_655 S
C212   H214    1.082   .     S
C212   N219    1.364   .     A
C215   N219    1.367   .     A
C215   H217    1.080   .     S
C216   N220    1.368   .     A
C216   H218    1.080   .     S
C216   C52     1.413   1_655 S
C221   H230    1.113   .     S
C221   H229    1.108   .     S
C221   C222    1.537   .     S
C222   H227    1.112   .     S
C222   H228    1.109   .     S
C222   C63     1.528   1_655 S
C223   H225    1.107   .     S
C223   H226    1.110   .     S
C223   H224    1.109   .     S
C231   H239    1.109   .     S
C231   H240    1.113   .     S
C231   C232    1.537   .     S
C232   H237    1.112   .     S
C232   H238    1.110   .     S
C232   C233    1.527   .     S
C233   H234    1.107   .     S
C233   H235    1.109   .     S
C233   H236    1.111   .     S
O241   C245    1.278   .     A
O241   Zn253   2.028   .     S
O242   C246    1.279   .     A
O242   Zn254   2.028   .     S
O243   Zn254   2.008   .     S
O243   C245    1.292   .     A
O244   Zn253   2.008   .     S
O244   C246    1.292   .     A
C245   C290    1.437   .     S
C246   C289    1.438   .     S
O247   C251    1.289   .     A
O247   Zn253   1.964   .     S
O248   C252    1.291   .     A
O248   Zn254   1.964   .     S
O249   Zn254   1.916   .     S
O249   C251    1.291   .     A
O250   C252    1.290   .     A
O250   Zn253   1.916   .     S
C251   C255    1.457   .     S
C252   C256    1.456   .     S
Zn253  N299    2.004   .     S
Zn254  N300    2.004   .     S
C255   C259    1.399   .     A
C255   C261    1.393   .     A
C256   C262    1.390   .     A
C256   C260    1.400   .     A
C257   H279    1.083   .     S
C257   C265    1.404   .     A
C257   C259    1.393   .     A
C258   C266    1.405   .     A
C258   H280    1.084   .     S
C258   C260    1.396   .     A
C259   H278    1.083   .     S
C260   H277    1.083   .     S
C261   H276    1.076   .     S
C261   C263    1.395   .     A
C262   H275    1.079   .     S
C262   C264    1.392   .     A
C263   C267    1.417   .     A
C263   C265    1.419   .     A
C264   C266    1.416   .     A
C264   C268    1.414   .     A
C265   C991    1.391   .     S
C266   C992    1.392   1_554 S
C267   C270    1.418   .     A
C267   C988    1.412   .     S
C268   C269    1.417   .     A
C268   C987    1.412   1_554 S
C269   H281    1.080   .     S
C269   C271    1.387   .     A
C270   C272    1.391   .     A
C270   H282    1.079   .     S
C271   H273    1.084   .     S
C271   C985    1.391   1_554 S
C272   H274    1.084   .     S
C272   C986    1.392   .     S
C283   H285    1.084   .     S
C283   C290    1.398   .     A
C283   C527    1.376   .     S
C284   C289    1.401   .     A
C284   H286    1.084   .     S
C287   C289    1.418   .     A
C287   C301    1.526   .     S
C288   C290    1.418   .     A
C288   C311    1.526   .     S
C288   C524    1.378   .     S
C291   H293    1.081   .     S
C291   N300    1.363   .     A
C291   C375    1.413   .     S
C292   H294    1.082   .     S
C292   N299    1.364   .     A
C292   C456    1.413   1_455 S
C295   N299    1.367   .     A
C295   H297    1.080   .     S
C295   C451    1.413   1_455 S
C296   N300    1.368   .     A
C296   H298    1.080   .     S
C296   C372    1.413   .     S
C301   H310    1.113   .     S
C301   H309    1.108   .     S
C301   C302    1.537   .     S
C302   H307    1.112   .     S
C302   H308    1.109   .     S
C302   C383    1.528   .     S
C303   H305    1.107   .     S
C303   H306    1.110   .     S
C303   H304    1.109   .     S
C303   C462    1.528   1_455 S
C311   H319    1.109   .     S
C311   H320    1.113   .     S
C311   C312    1.537   .     S
C312   H317    1.112   .     S
C312   H318    1.110   .     S
C312   C313    1.527   .     S
C313   H314    1.107   .     S
C313   H315    1.109   .     S
C313   H316    1.111   .     S
O321   C325    1.278   .     A
O321   Zn333   2.028   .     S
O322   C326    1.279   .     A
O322   Zn334   2.028   .     S
O323   Zn334   2.008   .     S
O323   C325    1.292   .     A
O324   Zn333   2.008   .     S
O324   C326    1.292   .     A
C325   C370    1.437   .     S
C326   C369    1.438   .     S
O327   C331    1.289   .     A
O327   Zn333   1.964   .     S
O328   C332    1.291   .     A
O328   Zn334   1.964   .     S
O329   Zn334   1.916   .     S
O329   C331    1.291   .     A
O330   C332    1.290   .     A
O330   Zn333   1.916   .     S
C331   C335    1.457   .     S
C332   C336    1.456   .     S
Zn333  N379    2.004   .     S
Zn334  N380    2.004   .     S
C335   C339    1.399   .     A
C335   C341    1.393   .     A
C336   C342    1.390   .     A
C336   C340    1.400   .     A
C337   H359    1.083   .     S
C337   C345    1.404   .     A
C337   C339    1.393   .     A
C338   C346    1.405   .     A
C338   H360    1.084   .     S
C338   C340    1.396   .     A
C339   H358    1.083   .     S
C340   H357    1.083   .     S
C341   H356    1.076   .     S
C341   C343    1.395   .     A
C342   H355    1.079   .     S
C342   C344    1.392   .     A
C343   C347    1.417   .     A
C343   C345    1.419   .     A
C344   C346    1.416   .     A
C344   C348    1.414   .     A
C345   C1071   1.391   .     S
C346   C1072   1.392   1_554 S
C347   C350    1.418   .     A
C347   C1068   1.412   .     S
C348   C349    1.417   .     A
C348   C1067   1.412   1_554 S
C349   H361    1.080   .     S
C349   C351    1.387   .     A
C350   C352    1.391   .     A
C350   H362    1.079   .     S
C351   H353    1.084   .     S
C351   C1065   1.391   1_554 S
C352   H354    1.084   .     S
C352   C1066   1.392   .     S
C363   H365    1.084   .     S
C363   C370    1.398   .     A
C363   C607    1.376   .     S
C364   C369    1.401   .     A
C364   H366    1.084   .     S
C367   C369    1.418   .     A
C367   C381    1.526   .     S
C368   C370    1.418   .     A
C368   C391    1.526   .     S
C368   C604    1.378   .     S
C371   H373    1.081   .     S
C371   N380    1.363   .     A
C371   C455    1.413   .     S
C372   H374    1.082   .     S
C372   N379    1.364   .     A
C375   N379    1.367   .     A
C375   H377    1.080   .     S
C376   N380    1.368   .     A
C376   H378    1.080   .     S
C376   C452    1.413   .     S
C381   H390    1.113   .     S
C381   H389    1.108   .     S
C381   C382    1.537   .     S
C382   H387    1.112   .     S
C382   H388    1.109   .     S
C382   C463    1.528   .     S
C383   H385    1.107   .     S
C383   H386    1.110   .     S
C383   H384    1.109   .     S
C391   H399    1.109   .     S
C391   H400    1.113   .     S
C391   C392    1.537   .     S
C392   H397    1.112   .     S
C392   H398    1.110   .     S
C392   C393    1.527   .     S
C393   H394    1.107   .     S
C393   H395    1.109   .     S
C393   H396    1.111   .     S
O401   C405    1.278   .     A
O401   Zn413   2.028   .     S
O402   C406    1.279   .     A
O402   Zn414   2.028   .     S
O403   Zn414   2.008   .     S
O403   C405    1.292   .     A
O404   Zn413   2.008   .     S
O404   C406    1.292   .     A
C405   C450    1.437   .     S
C406   C449    1.438   .     S
O407   C411    1.289   .     A
O407   Zn413   1.964   .     S
O408   C412    1.291   .     A
O408   Zn414   1.964   .     S
O409   Zn414   1.916   .     S
O409   C411    1.291   .     A
O410   C412    1.290   .     A
O410   Zn413   1.916   .     S
C411   C415    1.457   .     S
C412   C416    1.456   .     S
Zn413  N459    2.004   .     S
Zn414  N460    2.004   .     S
C415   C419    1.399   .     A
C415   C421    1.393   .     A
C416   C422    1.390   .     A
C416   C420    1.400   .     A
C417   H439    1.083   .     S
C417   C425    1.404   .     A
C417   C419    1.393   .     A
C418   C426    1.405   .     A
C418   H440    1.084   .     S
C418   C420    1.396   .     A
C419   H438    1.083   .     S
C420   H437    1.083   .     S
C421   H436    1.076   .     S
C421   C423    1.395   .     A
C422   H435    1.079   .     S
C422   C424    1.392   .     A
C423   C427    1.417   .     A
C423   C425    1.419   .     A
C424   C426    1.416   .     A
C424   C428    1.414   .     A
C425   C1151   1.391   .     S
C426   C1152   1.392   1_554 S
C427   C430    1.418   .     A
C427   C1148   1.412   .     S
C428   C429    1.417   .     A
C428   C1147   1.412   1_554 S
C429   H441    1.080   .     S
C429   C431    1.387   .     A
C430   C432    1.391   .     A
C430   H442    1.079   .     S
C431   H433    1.084   .     S
C431   C1145   1.391   1_554 S
C432   H434    1.084   .     S
C432   C1146   1.392   .     S
C443   H445    1.084   .     S
C443   C450    1.398   .     A
C443   C687    1.376   .     S
C444   C449    1.401   .     A
C444   H446    1.084   .     S
C447   C449    1.418   .     A
C447   C461    1.526   .     S
C448   C450    1.418   .     A
C448   C471    1.526   .     S
C448   C684    1.378   .     S
C451   H453    1.081   .     S
C451   N460    1.363   .     A
C451   C295    1.413   1_655 S
C452   H454    1.082   .     S
C452   N459    1.364   .     A
C455   N459    1.367   .     A
C455   H457    1.080   .     S
C456   N460    1.368   .     A
C456   H458    1.080   .     S
C456   C292    1.413   1_655 S
C461   H470    1.113   .     S
C461   H469    1.108   .     S
C461   C462    1.537   .     S
C462   H467    1.112   .     S
C462   H468    1.109   .     S
C462   C303    1.528   1_655 S
C463   H465    1.107   .     S
C463   H466    1.110   .     S
C463   H464    1.109   .     S
C471   H479    1.109   .     S
C471   H480    1.113   .     S
C471   C472    1.537   .     S
C472   H477    1.112   .     S
C472   H478    1.110   .     S
C472   C473    1.527   .     S
C473   H474    1.107   .     S
C473   H475    1.109   .     S
C473   H476    1.111   .     S
O481   C485    1.278   .     A
O481   Zn493   2.028   .     S
O482   C486    1.279   .     A
O482   Zn494   2.028   .     S
O483   Zn494   2.008   .     S
O483   C485    1.292   .     A
O484   Zn493   2.008   .     S
O484   C486    1.292   .     A
C485   C530    1.437   .     S
C486   C529    1.438   .     S
O487   C491    1.289   .     A
O487   Zn493   1.964   .     S
O488   C492    1.291   .     A
O488   Zn494   1.964   .     S
O489   Zn494   1.916   .     S
O489   C491    1.291   .     A
O490   C492    1.290   .     A
O490   Zn493   1.916   .     S
C491   C495    1.457   .     S
C492   C496    1.456   .     S
Zn493  N539    2.004   .     S
Zn494  N540    2.004   .     S
C495   C499    1.399   .     A
C495   C501    1.393   .     A
C496   C502    1.390   .     A
C496   C500    1.400   .     A
C497   H519    1.083   .     S
C497   C505    1.404   .     A
C497   C499    1.393   .     A
C498   C506    1.405   .     A
C498   H520    1.084   .     S
C498   C500    1.396   .     A
C499   H518    1.083   .     S
C500   H517    1.083   .     S
C501   H516    1.076   .     S
C501   C503    1.395   .     A
C502   H515    1.079   .     S
C502   C504    1.392   .     A
C503   C507    1.417   .     A
C503   C505    1.419   .     A
C504   C506    1.416   .     A
C504   C508    1.414   .     A
C505   C1231   1.391   .     S
C506   C1232   1.392   1_554 S
C507   C510    1.418   .     A
C507   C1228   1.412   .     S
C508   C509    1.417   .     A
C508   C1227   1.412   1_554 S
C509   H521    1.080   .     S
C509   C511    1.387   .     A
C510   C512    1.391   .     A
C510   H522    1.079   .     S
C511   H513    1.084   .     S
C511   C1225   1.391   1_554 S
C512   H514    1.084   .     S
C512   C1226   1.392   .     S
C523   H525    1.084   .     S
C523   C530    1.398   .     A
C523   C47     1.376   1_565 S
C524   C529    1.401   .     A
C524   H526    1.084   .     S
C527   C529    1.418   .     A
C527   C541    1.526   .     S
C528   C530    1.418   .     A
C528   C551    1.526   .     S
C528   C44     1.378   1_565 S
C531   H533    1.081   .     S
C531   N540    1.363   .     A
C531   C615    1.413   .     S
C532   H534    1.082   .     S
C532   N539    1.364   .     A
C532   C696    1.413   1_455 S
C535   N539    1.367   .     A
C535   H537    1.080   .     S
C535   C691    1.413   1_455 S
C536   N540    1.368   .     A
C536   H538    1.080   .     S
C536   C612    1.413   .     S
C541   H550    1.113   .     S
C541   H549    1.108   .     S
C541   C542    1.537   .     S
C542   H547    1.112   .     S
C542   H548    1.109   .     S
C542   C623    1.528   .     S
C543   H545    1.107   .     S
C543   H546    1.110   .     S
C543   H544    1.109   .     S
C543   C702    1.528   1_455 S
C551   H559    1.109   .     S
C551   H560    1.113   .     S
C551   C552    1.537   .     S
C552   H557    1.112   .     S
C552   H558    1.110   .     S
C552   C553    1.527   .     S
C553   H554    1.107   .     S
C553   H555    1.109   .     S
C553   H556    1.111   .     S
O561   C565    1.278   .     A
O561   Zn573   2.028   .     S
O562   C566    1.279   .     A
O562   Zn574   2.028   .     S
O563   Zn574   2.008   .     S
O563   C565    1.292   .     A
O564   Zn573   2.008   .     S
O564   C566    1.292   .     A
C565   C610    1.437   .     S
C566   C609    1.438   .     S
O567   C571    1.289   .     A
O567   Zn573   1.964   .     S
O568   C572    1.291   .     A
O568   Zn574   1.964   .     S
O569   Zn574   1.916   .     S
O569   C571    1.291   .     A
O570   C572    1.290   .     A
O570   Zn573   1.916   .     S
C571   C575    1.457   .     S
C572   C576    1.456   .     S
Zn573  N619    2.004   .     S
Zn574  N620    2.004   .     S
C575   C579    1.399   .     A
C575   C581    1.393   .     A
C576   C582    1.390   .     A
C576   C580    1.400   .     A
C577   H599    1.083   .     S
C577   C585    1.404   .     A
C577   C579    1.393   .     A
C578   C586    1.405   .     A
C578   H600    1.084   .     S
C578   C580    1.396   .     A
C579   H598    1.083   .     S
C580   H597    1.083   .     S
C581   H596    1.076   .     S
C581   C583    1.395   .     A
C582   H595    1.079   .     S
C582   C584    1.392   .     A
C583   C587    1.417   .     A
C583   C585    1.419   .     A
C584   C586    1.416   .     A
C584   C588    1.414   .     A
C585   C1311   1.391   .     S
C586   C1312   1.392   1_554 S
C587   C590    1.418   .     A
C587   C1308   1.412   .     S
C588   C589    1.417   .     A
C588   C1307   1.412   1_554 S
C589   H601    1.080   .     S
C589   C591    1.387   .     A
C590   C592    1.391   .     A
C590   H602    1.079   .     S
C591   H593    1.084   .     S
C591   C1305   1.391   1_554 S
C592   H594    1.084   .     S
C592   C1306   1.392   .     S
C603   H605    1.084   .     S
C603   C610    1.398   .     A
C603   C127    1.376   1_565 S
C604   C609    1.401   .     A
C604   H606    1.084   .     S
C607   C609    1.418   .     A
C607   C621    1.526   .     S
C608   C610    1.418   .     A
C608   C631    1.526   .     S
C608   C124    1.378   1_565 S
C611   H613    1.081   .     S
C611   N620    1.363   .     A
C611   C695    1.413   .     S
C612   H614    1.082   .     S
C612   N619    1.364   .     A
C615   N619    1.367   .     A
C615   H617    1.080   .     S
C616   N620    1.368   .     A
C616   H618    1.080   .     S
C616   C692    1.413   .     S
C621   H630    1.113   .     S
C621   H629    1.108   .     S
C621   C622    1.537   .     S
C622   H627    1.112   .     S
C622   H628    1.109   .     S
C622   C703    1.528   .     S
C623   H625    1.107   .     S
C623   H626    1.110   .     S
C623   H624    1.109   .     S
C631   H639    1.109   .     S
C631   H640    1.113   .     S
C631   C632    1.537   .     S
C632   H637    1.112   .     S
C632   H638    1.110   .     S
C632   C633    1.527   .     S
C633   H634    1.107   .     S
C633   H635    1.109   .     S
C633   H636    1.111   .     S
O641   C645    1.278   .     A
O641   Zn653   2.028   .     S
O642   C646    1.279   .     A
O642   Zn654   2.028   .     S
O643   Zn654   2.008   .     S
O643   C645    1.292   .     A
O644   Zn653   2.008   .     S
O644   C646    1.292   .     A
C645   C690    1.437   .     S
C646   C689    1.438   .     S
O647   C651    1.289   .     A
O647   Zn653   1.964   .     S
O648   C652    1.291   .     A
O648   Zn654   1.964   .     S
O649   Zn654   1.916   .     S
O649   C651    1.291   .     A
O650   C652    1.290   .     A
O650   Zn653   1.916   .     S
C651   C655    1.457   .     S
C652   C656    1.456   .     S
Zn653  N699    2.004   .     S
Zn654  N700    2.004   .     S
C655   C659    1.399   .     A
C655   C661    1.393   .     A
C656   C662    1.390   .     A
C656   C660    1.400   .     A
C657   H679    1.083   .     S
C657   C665    1.404   .     A
C657   C659    1.393   .     A
C658   C666    1.405   .     A
C658   H680    1.084   .     S
C658   C660    1.396   .     A
C659   H678    1.083   .     S
C660   H677    1.083   .     S
C661   H676    1.076   .     S
C661   C663    1.395   .     A
C662   H675    1.079   .     S
C662   C664    1.392   .     A
C663   C667    1.417   .     A
C663   C665    1.419   .     A
C664   C666    1.416   .     A
C664   C668    1.414   .     A
C665   C1391   1.391   .     S
C666   C1392   1.392   1_554 S
C667   C670    1.418   .     A
C667   C1388   1.412   .     S
C668   C669    1.417   .     A
C668   C1387   1.412   1_554 S
C669   H681    1.080   .     S
C669   C671    1.387   .     A
C670   C672    1.391   .     A
C670   H682    1.079   .     S
C671   H673    1.084   .     S
C671   C1385   1.391   1_554 S
C672   H674    1.084   .     S
C672   C1386   1.392   .     S
C683   H685    1.084   .     S
C683   C690    1.398   .     A
C683   C207    1.376   1_565 S
C684   C689    1.401   .     A
C684   H686    1.084   .     S
C687   C689    1.418   .     A
C687   C701    1.526   .     S
C688   C690    1.418   .     A
C688   C711    1.526   .     S
C688   C204    1.378   1_565 S
C691   H693    1.081   .     S
C691   N700    1.363   .     A
C691   C535    1.413   1_655 S
C692   H694    1.082   .     S
C692   N699    1.364   .     A
C695   N699    1.367   .     A
C695   H697    1.080   .     S
C696   N700    1.368   .     A
C696   H698    1.080   .     S
C696   C532    1.413   1_655 S
C701   H710    1.113   .     S
C701   H709    1.108   .     S
C701   C702    1.537   .     S
C702   H707    1.112   .     S
C702   H708    1.109   .     S
C702   C543    1.528   1_655 S
C703   H705    1.107   .     S
C703   H706    1.110   .     S
C703   H704    1.109   .     S
C711   H719    1.109   .     S
C711   H720    1.113   .     S
C711   C712    1.537   .     S
C712   H717    1.112   .     S
C712   H718    1.110   .     S
C712   C713    1.527   .     S
C713   H714    1.107   .     S
C713   H715    1.109   .     S
C713   H716    1.111   .     S
O721   C725    1.278   .     A
O721   Zn733   2.028   .     S
O722   C726    1.279   .     A
O722   Zn734   2.028   .     S
O723   Zn734   2.008   .     S
O723   C725    1.292   .     A
O724   Zn733   2.008   .     S
O724   C726    1.292   .     A
C725   C770    1.437   .     S
C726   C769    1.438   .     S
O727   C731    1.289   .     A
O727   Zn733   1.964   .     S
O728   C732    1.291   .     A
O728   Zn734   1.964   .     S
O729   Zn734   1.916   .     S
O729   C731    1.291   .     A
O730   C732    1.290   .     A
O730   Zn733   1.916   .     S
C731   C735    1.457   .     S
C732   C736    1.456   .     S
Zn733  N779    2.004   .     S
Zn734  N780    2.004   .     S
C735   C739    1.399   .     A
C735   C741    1.393   .     A
C736   C742    1.390   .     A
C736   C740    1.400   .     A
C737   H759    1.083   .     S
C737   C745    1.404   .     A
C737   C739    1.393   .     A
C738   C746    1.405   .     A
C738   H760    1.084   .     S
C738   C740    1.396   .     A
C739   H758    1.083   .     S
C740   H757    1.083   .     S
C741   H756    1.076   .     S
C741   C743    1.395   .     A
C742   H755    1.079   .     S
C742   C744    1.392   .     A
C743   C747    1.417   .     A
C743   C745    1.419   .     A
C744   C746    1.416   .     A
C744   C748    1.414   .     A
C745   C31     1.391   1_556 S
C747   C750    1.418   .     A
C747   C28     1.412   1_556 S
C748   C749    1.417   .     A
C749   H761    1.080   .     S
C749   C751    1.387   .     A
C750   C752    1.391   .     A
C750   H762    1.079   .     S
C751   H753    1.084   .     S
C752   H754    1.084   .     S
C752   C26     1.392   1_556 S
C763   H765    1.084   .     S
C763   C770    1.398   .     A
C763   C1007   1.376   .     S
C764   C769    1.401   .     A
C764   H766    1.084   .     S
C764   C1248   1.378   1_545 S
C767   C769    1.418   .     A
C767   C781    1.526   .     S
C767   C1243   1.376   1_545 S
C768   C770    1.418   .     A
C768   C791    1.526   .     S
C768   C1004   1.378   .     S
C771   H773    1.081   .     S
C771   N780    1.363   .     A
C771   C855    1.413   .     S
C772   H774    1.082   .     S
C772   N779    1.364   .     A
C772   C936    1.413   1_455 S
C775   N779    1.367   .     A
C775   H777    1.080   .     S
C775   C931    1.413   1_455 S
C776   N780    1.368   .     A
C776   H778    1.080   .     S
C776   C852    1.413   .     S
C781   H790    1.113   .     S
C781   H789    1.108   .     S
C781   C782    1.537   .     S
C782   H787    1.112   .     S
C782   H788    1.109   .     S
C782   C863    1.528   .     S
C783   H785    1.107   .     S
C783   H786    1.110   .     S
C783   H784    1.109   .     S
C783   C942    1.528   1_455 S
C791   H799    1.109   .     S
C791   H800    1.113   .     S
C791   C792    1.537   .     S
C792   H797    1.112   .     S
C792   H798    1.110   .     S
C792   C793    1.527   .     S
C793   H794    1.107   .     S
C793   H795    1.109   .     S
C793   H796    1.111   .     S
O801   C805    1.278   .     A
O801   Zn813   2.028   .     S
O802   C806    1.279   .     A
O802   Zn814   2.028   .     S
O803   Zn814   2.008   .     S
O803   C805    1.292   .     A
O804   Zn813   2.008   .     S
O804   C806    1.292   .     A
C805   C850    1.437   .     S
C806   C849    1.438   .     S
O807   C811    1.289   .     A
O807   Zn813   1.964   .     S
O808   C812    1.291   .     A
O808   Zn814   1.964   .     S
O809   Zn814   1.916   .     S
O809   C811    1.291   .     A
O810   C812    1.290   .     A
O810   Zn813   1.916   .     S
C811   C815    1.457   .     S
C812   C816    1.456   .     S
Zn813  N859    2.004   .     S
Zn814  N860    2.004   .     S
C815   C819    1.399   .     A
C815   C821    1.393   .     A
C816   C822    1.390   .     A
C816   C820    1.400   .     A
C817   H839    1.083   .     S
C817   C825    1.404   .     A
C817   C819    1.393   .     A
C818   C826    1.405   .     A
C818   H840    1.084   .     S
C818   C820    1.396   .     A
C819   H838    1.083   .     S
C820   H837    1.083   .     S
C821   H836    1.076   .     S
C821   C823    1.395   .     A
C822   H835    1.079   .     S
C822   C824    1.392   .     A
C823   C827    1.417   .     A
C823   C825    1.419   .     A
C824   C826    1.416   .     A
C824   C828    1.414   .     A
C825   C111    1.391   1_556 S
C827   C830    1.418   .     A
C827   C108    1.412   1_556 S
C828   C829    1.417   .     A
C829   H841    1.080   .     S
C829   C831    1.387   .     A
C830   C832    1.391   .     A
C830   H842    1.079   .     S
C831   H833    1.084   .     S
C832   H834    1.084   .     S
C832   C106    1.392   1_556 S
C843   H845    1.084   .     S
C843   C850    1.398   .     A
C843   C1087   1.376   .     S
C844   C849    1.401   .     A
C844   H846    1.084   .     S
C844   C1328   1.378   1_545 S
C847   C849    1.418   .     A
C847   C861    1.526   .     S
C847   C1323   1.376   1_545 S
C848   C850    1.418   .     A
C848   C871    1.526   .     S
C848   C1084   1.378   .     S
C851   H853    1.081   .     S
C851   N860    1.363   .     A
C851   C935    1.413   .     S
C852   H854    1.082   .     S
C852   N859    1.364   .     A
C855   N859    1.367   .     A
C855   H857    1.080   .     S
C856   N860    1.368   .     A
C856   H858    1.080   .     S
C856   C932    1.413   .     S
C861   H870    1.113   .     S
C861   H869    1.108   .     S
C861   C862    1.537   .     S
C862   H867    1.112   .     S
C862   H868    1.109   .     S
C862   C943    1.528   .     S
C863   H865    1.107   .     S
C863   H866    1.110   .     S
C863   H864    1.109   .     S
C871   H879    1.109   .     S
C871   H880    1.113   .     S
C871   C872    1.537   .     S
C872   H877    1.112   .     S
C872   H878    1.110   .     S
C872   C873    1.527   .     S
C873   H874    1.107   .     S
C873   H875    1.109   .     S
C873   H876    1.111   .     S
O881   C885    1.278   .     A
O881   Zn893   2.028   .     S
O882   C886    1.279   .     A
O882   Zn894   2.028   .     S
O883   Zn894   2.008   .     S
O883   C885    1.292   .     A
O884   Zn893   2.008   .     S
O884   C886    1.292   .     A
C885   C930    1.437   .     S
C886   C929    1.438   .     S
O887   C891    1.289   .     A
O887   Zn893   1.964   .     S
O888   C892    1.291   .     A
O888   Zn894   1.964   .     S
O889   Zn894   1.916   .     S
O889   C891    1.291   .     A
O890   C892    1.290   .     A
O890   Zn893   1.916   .     S
C891   C895    1.457   .     S
C892   C896    1.456   .     S
Zn893  N939    2.004   .     S
Zn894  N940    2.004   .     S
C895   C899    1.399   .     A
C895   C901    1.393   .     A
C896   C902    1.390   .     A
C896   C900    1.400   .     A
C897   H919    1.083   .     S
C897   C905    1.404   .     A
C897   C899    1.393   .     A
C898   C906    1.405   .     A
C898   H920    1.084   .     S
C898   C900    1.396   .     A
C899   H918    1.083   .     S
C900   H917    1.083   .     S
C901   H916    1.076   .     S
C901   C903    1.395   .     A
C902   H915    1.079   .     S
C902   C904    1.392   .     A
C903   C907    1.417   .     A
C903   C905    1.419   .     A
C904   C906    1.416   .     A
C904   C908    1.414   .     A
C905   C191    1.391   1_556 S
C907   C910    1.418   .     A
C907   C188    1.412   1_556 S
C908   C909    1.417   .     A
C909   H921    1.080   .     S
C909   C911    1.387   .     A
C910   C912    1.391   .     A
C910   H922    1.079   .     S
C911   H913    1.084   .     S
C912   H914    1.084   .     S
C912   C186    1.392   1_556 S
C923   H925    1.084   .     S
C923   C930    1.398   .     A
C923   C1167   1.376   .     S
C924   C929    1.401   .     A
C924   H926    1.084   .     S
C924   C1408   1.378   1_545 S
C927   C929    1.418   .     A
C927   C941    1.526   .     S
C927   C1403   1.376   1_545 S
C928   C930    1.418   .     A
C928   C951    1.526   .     S
C928   C1164   1.378   .     S
C931   H933    1.081   .     S
C931   N940    1.363   .     A
C931   C775    1.413   1_655 S
C932   H934    1.082   .     S
C932   N939    1.364   .     A
C935   N939    1.367   .     A
C935   H937    1.080   .     S
C936   N940    1.368   .     A
C936   H938    1.080   .     S
C936   C772    1.413   1_655 S
C941   H950    1.113   .     S
C941   H949    1.108   .     S
C941   C942    1.537   .     S
C942   H947    1.112   .     S
C942   H948    1.109   .     S
C942   C783    1.528   1_655 S
C943   H945    1.107   .     S
C943   H946    1.110   .     S
C943   H944    1.109   .     S
C951   H959    1.109   .     S
C951   H960    1.113   .     S
C951   C952    1.537   .     S
C952   H957    1.112   .     S
C952   H958    1.110   .     S
C952   C953    1.527   .     S
C953   H954    1.107   .     S
C953   H955    1.109   .     S
C953   H956    1.111   .     S
O961   C965    1.278   .     A
O961   Zn973   2.028   .     S
O962   C966    1.279   .     A
O962   Zn974   2.028   .     S
O963   Zn974   2.008   .     S
O963   C965    1.292   .     A
O964   Zn973   2.008   .     S
O964   C966    1.292   .     A
C965   C1010   1.437   .     S
C966   C1009   1.438   .     S
O967   C971    1.289   .     A
O967   Zn973   1.964   .     S
O968   C972    1.291   .     A
O968   Zn974   1.964   .     S
O969   Zn974   1.916   .     S
O969   C971    1.291   .     A
O970   C972    1.290   .     A
O970   Zn973   1.916   .     S
C971   C975    1.457   .     S
C972   C976    1.456   .     S
Zn973  N1019   2.004   .     S
Zn974  N1020   2.004   .     S
C975   C979    1.399   .     A
C975   C981    1.393   .     A
C976   C982    1.390   .     A
C976   C980    1.400   .     A
C977   H999    1.083   .     S
C977   C985    1.404   .     A
C977   C979    1.393   .     A
C978   C986    1.405   .     A
C978   H1000   1.084   .     S
C978   C980    1.396   .     A
C979   H998    1.083   .     S
C980   H997    1.083   .     S
C981   H996    1.076   .     S
C981   C983    1.395   .     A
C982   H995    1.079   .     S
C982   C984    1.392   .     A
C983   C987    1.417   .     A
C983   C985    1.419   .     A
C984   C986    1.416   .     A
C984   C988    1.414   .     A
C985   C271    1.391   1_556 S
C987   C990    1.418   .     A
C987   C268    1.412   1_556 S
C988   C989    1.417   .     A
C989   H1001   1.080   .     S
C989   C991    1.387   .     A
C990   C992    1.391   .     A
C990   H1002   1.079   .     S
C991   H993    1.084   .     S
C992   H994    1.084   .     S
C992   C266    1.392   1_556 S
C1003  H1005   1.084   .     S
C1003  C1010   1.398   .     A
C1003  C1247   1.376   .     S
C1004  C1009   1.401   .     A
C1004  H1006   1.084   .     S
C1007  C1009   1.418   .     A
C1007  C1021   1.526   .     S
C1008  C1010   1.418   .     A
C1008  C1031   1.526   .     S
C1008  C1244   1.378   .     S
C1011  H1013   1.081   .     S
C1011  N1020   1.363   .     A
C1011  C1095   1.413   .     S
C1012  H1014   1.082   .     S
C1012  N1019   1.364   .     A
C1012  C1176   1.413   1_455 S
C1015  N1019   1.367   .     A
C1015  H1017   1.080   .     S
C1015  C1171   1.413   1_455 S
C1016  N1020   1.368   .     A
C1016  H1018   1.080   .     S
C1016  C1092   1.413   .     S
C1021  H1030   1.113   .     S
C1021  H1029   1.108   .     S
C1021  C1022   1.537   .     S
C1022  H1027   1.112   .     S
C1022  H1028   1.109   .     S
C1022  C1103   1.528   .     S
C1023  H1025   1.107   .     S
C1023  H1026   1.110   .     S
C1023  H1024   1.109   .     S
C1023  C1182   1.528   1_455 S
C1031  H1039   1.109   .     S
C1031  H1040   1.113   .     S
C1031  C1032   1.537   .     S
C1032  H1037   1.112   .     S
C1032  H1038   1.110   .     S
C1032  C1033   1.527   .     S
C1033  H1034   1.107   .     S
C1033  H1035   1.109   .     S
C1033  H1036   1.111   .     S
O1041  C1045   1.278   .     A
O1041  Zn1053  2.028   .     S
O1042  C1046   1.279   .     A
O1042  Zn1054  2.028   .     S
O1043  Zn1054  2.008   .     S
O1043  C1045   1.292   .     A
O1044  Zn1053  2.008   .     S
O1044  C1046   1.292   .     A
C1045  C1090   1.437   .     S
C1046  C1089   1.438   .     S
O1047  C1051   1.289   .     A
O1047  Zn1053  1.964   .     S
O1048  C1052   1.291   .     A
O1048  Zn1054  1.964   .     S
O1049  Zn1054  1.916   .     S
O1049  C1051   1.291   .     A
O1050  C1052   1.290   .     A
O1050  Zn1053  1.916   .     S
C1051  C1055   1.457   .     S
C1052  C1056   1.456   .     S
Zn1053 N1099   2.004   .     S
Zn1054 N1100   2.004   .     S
C1055  C1059   1.399   .     A
C1055  C1061   1.393   .     A
C1056  C1062   1.390   .     A
C1056  C1060   1.400   .     A
C1057  H1079   1.083   .     S
C1057  C1065   1.404   .     A
C1057  C1059   1.393   .     A
C1058  C1066   1.405   .     A
C1058  H1080   1.084   .     S
C1058  C1060   1.396   .     A
C1059  H1078   1.083   .     S
C1060  H1077   1.083   .     S
C1061  H1076   1.076   .     S
C1061  C1063   1.395   .     A
C1062  H1075   1.079   .     S
C1062  C1064   1.392   .     A
C1063  C1067   1.417   .     A
C1063  C1065   1.419   .     A
C1064  C1066   1.416   .     A
C1064  C1068   1.414   .     A
C1065  C351    1.391   1_556 S
C1067  C1070   1.418   .     A
C1067  C348    1.412   1_556 S
C1068  C1069   1.417   .     A
C1069  H1081   1.080   .     S
C1069  C1071   1.387   .     A
C1070  C1072   1.391   .     A
C1070  H1082   1.079   .     S
C1071  H1073   1.084   .     S
C1072  H1074   1.084   .     S
C1072  C346    1.392   1_556 S
C1083  H1085   1.084   .     S
C1083  C1090   1.398   .     A
C1083  C1327   1.376   .     S
C1084  C1089   1.401   .     A
C1084  H1086   1.084   .     S
C1087  C1089   1.418   .     A
C1087  C1101   1.526   .     S
C1088  C1090   1.418   .     A
C1088  C1111   1.526   .     S
C1088  C1324   1.378   .     S
C1091  H1093   1.081   .     S
C1091  N1100   1.363   .     A
C1091  C1175   1.413   .     S
C1092  H1094   1.082   .     S
C1092  N1099   1.364   .     A
C1095  N1099   1.367   .     A
C1095  H1097   1.080   .     S
C1096  N1100   1.368   .     A
C1096  H1098   1.080   .     S
C1096  C1172   1.413   .     S
C1101  H1110   1.113   .     S
C1101  H1109   1.108   .     S
C1101  C1102   1.537   .     S
C1102  H1107   1.112   .     S
C1102  H1108   1.109   .     S
C1102  C1183   1.528   .     S
C1103  H1105   1.107   .     S
C1103  H1106   1.110   .     S
C1103  H1104   1.109   .     S
C1111  H1119   1.109   .     S
C1111  H1120   1.113   .     S
C1111  C1112   1.537   .     S
C1112  H1117   1.112   .     S
C1112  H1118   1.110   .     S
C1112  C1113   1.527   .     S
C1113  H1114   1.107   .     S
C1113  H1115   1.109   .     S
C1113  H1116   1.111   .     S
O1121  C1125   1.278   .     A
O1121  Zn1133  2.028   .     S
O1122  C1126   1.279   .     A
O1122  Zn1134  2.028   .     S
O1123  Zn1134  2.008   .     S
O1123  C1125   1.292   .     A
O1124  Zn1133  2.008   .     S
O1124  C1126   1.292   .     A
C1125  C1170   1.437   .     S
C1126  C1169   1.438   .     S
O1127  C1131   1.289   .     A
O1127  Zn1133  1.964   .     S
O1128  C1132   1.291   .     A
O1128  Zn1134  1.964   .     S
O1129  Zn1134  1.916   .     S
O1129  C1131   1.291   .     A
O1130  C1132   1.290   .     A
O1130  Zn1133  1.916   .     S
C1131  C1135   1.457   .     S
C1132  C1136   1.456   .     S
Zn1133 N1179   2.004   .     S
Zn1134 N1180   2.004   .     S
C1135  C1139   1.399   .     A
C1135  C1141   1.393   .     A
C1136  C1142   1.390   .     A
C1136  C1140   1.400   .     A
C1137  H1159   1.083   .     S
C1137  C1145   1.404   .     A
C1137  C1139   1.393   .     A
C1138  C1146   1.405   .     A
C1138  H1160   1.084   .     S
C1138  C1140   1.396   .     A
C1139  H1158   1.083   .     S
C1140  H1157   1.083   .     S
C1141  H1156   1.076   .     S
C1141  C1143   1.395   .     A
C1142  H1155   1.079   .     S
C1142  C1144   1.392   .     A
C1143  C1147   1.417   .     A
C1143  C1145   1.419   .     A
C1144  C1146   1.416   .     A
C1144  C1148   1.414   .     A
C1145  C431    1.391   1_556 S
C1147  C1150   1.418   .     A
C1147  C428    1.412   1_556 S
C1148  C1149   1.417   .     A
C1149  H1161   1.080   .     S
C1149  C1151   1.387   .     A
C1150  C1152   1.391   .     A
C1150  H1162   1.079   .     S
C1151  H1153   1.084   .     S
C1152  H1154   1.084   .     S
C1152  C426    1.392   1_556 S
C1163  H1165   1.084   .     S
C1163  C1170   1.398   .     A
C1163  C1407   1.376   .     S
C1164  C1169   1.401   .     A
C1164  H1166   1.084   .     S
C1167  C1169   1.418   .     A
C1167  C1181   1.526   .     S
C1168  C1170   1.418   .     A
C1168  C1191   1.526   .     S
C1168  C1404   1.378   .     S
C1171  H1173   1.081   .     S
C1171  N1180   1.363   .     A
C1171  C1015   1.413   1_655 S
C1172  H1174   1.082   .     S
C1172  N1179   1.364   .     A
C1175  N1179   1.367   .     A
C1175  H1177   1.080   .     S
C1176  N1180   1.368   .     A
C1176  H1178   1.080   .     S
C1176  C1012   1.413   1_655 S
C1181  H1190   1.113   .     S
C1181  H1189   1.108   .     S
C1181  C1182   1.537   .     S
C1182  H1187   1.112   .     S
C1182  H1188   1.109   .     S
C1182  C1023   1.528   1_655 S
C1183  H1185   1.107   .     S
C1183  H1186   1.110   .     S
C1183  H1184   1.109   .     S
C1191  H1199   1.109   .     S
C1191  H1200   1.113   .     S
C1191  C1192   1.537   .     S
C1192  H1197   1.112   .     S
C1192  H1198   1.110   .     S
C1192  C1193   1.527   .     S
C1193  H1194   1.107   .     S
C1193  H1195   1.109   .     S
C1193  H1196   1.111   .     S
O1201  C1205   1.278   .     A
O1201  Zn1213  2.028   .     S
O1202  C1206   1.279   .     A
O1202  Zn1214  2.028   .     S
O1203  Zn1214  2.008   .     S
O1203  C1205   1.292   .     A
O1204  Zn1213  2.008   .     S
O1204  C1206   1.292   .     A
C1205  C1250   1.437   .     S
C1206  C1249   1.438   .     S
O1207  C1211   1.289   .     A
O1207  Zn1213  1.964   .     S
O1208  C1212   1.291   .     A
O1208  Zn1214  1.964   .     S
O1209  Zn1214  1.916   .     S
O1209  C1211   1.291   .     A
O1210  C1212   1.290   .     A
O1210  Zn1213  1.916   .     S
C1211  C1215   1.457   .     S
C1212  C1216   1.456   .     S
Zn1213 N1259   2.004   .     S
Zn1214 N1260   2.004   .     S
C1215  C1219   1.399   .     A
C1215  C1221   1.393   .     A
C1216  C1222   1.390   .     A
C1216  C1220   1.400   .     A
C1217  H1239   1.083   .     S
C1217  C1225   1.404   .     A
C1217  C1219   1.393   .     A
C1218  C1226   1.405   .     A
C1218  H1240   1.084   .     S
C1218  C1220   1.396   .     A
C1219  H1238   1.083   .     S
C1220  H1237   1.083   .     S
C1221  H1236   1.076   .     S
C1221  C1223   1.395   .     A
C1222  H1235   1.079   .     S
C1222  C1224   1.392   .     A
C1223  C1227   1.417   .     A
C1223  C1225   1.419   .     A
C1224  C1226   1.416   .     A
C1224  C1228   1.414   .     A
C1225  C511    1.391   1_556 S
C1227  C1230   1.418   .     A
C1227  C508    1.412   1_556 S
C1228  C1229   1.417   .     A
C1229  H1241   1.080   .     S
C1229  C1231   1.387   .     A
C1230  C1232   1.391   .     A
C1230  H1242   1.079   .     S
C1231  H1233   1.084   .     S
C1232  H1234   1.084   .     S
C1232  C506    1.392   1_556 S
C1243  H1245   1.084   .     S
C1243  C1250   1.398   .     A
C1243  C767    1.376   1_565 S
C1244  C1249   1.401   .     A
C1244  H1246   1.084   .     S
C1247  C1249   1.418   .     A
C1247  C1261   1.526   .     S
C1248  C1250   1.418   .     A
C1248  C1271   1.526   .     S
C1248  C764    1.378   1_565 S
C1251  H1253   1.081   .     S
C1251  N1260   1.363   .     A
C1251  C1335   1.413   .     S
C1252  H1254   1.082   .     S
C1252  N1259   1.364   .     A
C1252  C1416   1.413   1_455 S
C1255  N1259   1.367   .     A
C1255  H1257   1.080   .     S
C1255  C1411   1.413   1_455 S
C1256  N1260   1.368   .     A
C1256  H1258   1.080   .     S
C1256  C1332   1.413   .     S
C1261  H1270   1.113   .     S
C1261  H1269   1.108   .     S
C1261  C1262   1.537   .     S
C1262  H1267   1.112   .     S
C1262  H1268   1.109   .     S
C1262  C1343   1.528   .     S
C1263  H1265   1.107   .     S
C1263  H1266   1.110   .     S
C1263  H1264   1.109   .     S
C1263  C1422   1.528   1_455 S
C1271  H1279   1.109   .     S
C1271  H1280   1.113   .     S
C1271  C1272   1.537   .     S
C1272  H1277   1.112   .     S
C1272  H1278   1.110   .     S
C1272  C1273   1.527   .     S
C1273  H1274   1.107   .     S
C1273  H1275   1.109   .     S
C1273  H1276   1.111   .     S
O1281  C1285   1.278   .     A
O1281  Zn1293  2.028   .     S
O1282  C1286   1.279   .     A
O1282  Zn1294  2.028   .     S
O1283  Zn1294  2.008   .     S
O1283  C1285   1.292   .     A
O1284  Zn1293  2.008   .     S
O1284  C1286   1.292   .     A
C1285  C1330   1.437   .     S
C1286  C1329   1.438   .     S
O1287  C1291   1.289   .     A
O1287  Zn1293  1.964   .     S
O1288  C1292   1.291   .     A
O1288  Zn1294  1.964   .     S
O1289  Zn1294  1.916   .     S
O1289  C1291   1.291   .     A
O1290  C1292   1.290   .     A
O1290  Zn1293  1.916   .     S
C1291  C1295   1.457   .     S
C1292  C1296   1.456   .     S
Zn1293 N1339   2.004   .     S
Zn1294 N1340   2.004   .     S
C1295  C1299   1.399   .     A
C1295  C1301   1.393   .     A
C1296  C1302   1.390   .     A
C1296  C1300   1.400   .     A
C1297  H1319   1.083   .     S
C1297  C1305   1.404   .     A
C1297  C1299   1.393   .     A
C1298  C1306   1.405   .     A
C1298  H1320   1.084   .     S
C1298  C1300   1.396   .     A
C1299  H1318   1.083   .     S
C1300  H1317   1.083   .     S
C1301  H1316   1.076   .     S
C1301  C1303   1.395   .     A
C1302  H1315   1.079   .     S
C1302  C1304   1.392   .     A
C1303  C1307   1.417   .     A
C1303  C1305   1.419   .     A
C1304  C1306   1.416   .     A
C1304  C1308   1.414   .     A
C1305  C591    1.391   1_556 S
C1307  C1310   1.418   .     A
C1307  C588    1.412   1_556 S
C1308  C1309   1.417   .     A
C1309  H1321   1.080   .     S
C1309  C1311   1.387   .     A
C1310  C1312   1.391   .     A
C1310  H1322   1.079   .     S
C1311  H1313   1.084   .     S
C1312  H1314   1.084   .     S
C1312  C586    1.392   1_556 S
C1323  H1325   1.084   .     S
C1323  C1330   1.398   .     A
C1323  C847    1.376   1_565 S
C1324  C1329   1.401   .     A
C1324  H1326   1.084   .     S
C1327  C1329   1.418   .     A
C1327  C1341   1.526   .     S
C1328  C1330   1.418   .     A
C1328  C1351   1.526   .     S
C1328  C844    1.378   1_565 S
C1331  H1333   1.081   .     S
C1331  N1340   1.363   .     A
C1331  C1415   1.413   .     S
C1332  H1334   1.082   .     S
C1332  N1339   1.364   .     A
C1335  N1339   1.367   .     A
C1335  H1337   1.080   .     S
C1336  N1340   1.368   .     A
C1336  H1338   1.080   .     S
C1336  C1412   1.413   .     S
C1341  H1350   1.113   .     S
C1341  H1349   1.108   .     S
C1341  C1342   1.537   .     S
C1342  H1347   1.112   .     S
C1342  H1348   1.109   .     S
C1342  C1423   1.528   .     S
C1343  H1345   1.107   .     S
C1343  H1346   1.110   .     S
C1343  H1344   1.109   .     S
C1351  H1359   1.109   .     S
C1351  H1360   1.113   .     S
C1351  C1352   1.537   .     S
C1352  H1357   1.112   .     S
C1352  H1358   1.110   .     S
C1352  C1353   1.527   .     S
C1353  H1354   1.107   .     S
C1353  H1355   1.109   .     S
C1353  H1356   1.111   .     S
O1361  C1365   1.278   .     A
O1361  Zn1373  2.028   .     S
O1362  C1366   1.279   .     A
O1362  Zn1374  2.028   .     S
O1363  Zn1374  2.008   .     S
O1363  C1365   1.292   .     A
O1364  Zn1373  2.008   .     S
O1364  C1366   1.292   .     A
C1365  C1410   1.437   .     S
C1366  C1409   1.438   .     S
O1367  C1371   1.289   .     A
O1367  Zn1373  1.964   .     S
O1368  C1372   1.291   .     A
O1368  Zn1374  1.964   .     S
O1369  Zn1374  1.916   .     S
O1369  C1371   1.291   .     A
O1370  C1372   1.290   .     A
O1370  Zn1373  1.916   .     S
C1371  C1375   1.457   .     S
C1372  C1376   1.456   .     S
Zn1373 N1419   2.004   .     S
Zn1374 N1420   2.004   .     S
C1375  C1379   1.399   .     A
C1375  C1381   1.393   .     A
C1376  C1382   1.390   .     A
C1376  C1380   1.400   .     A
C1377  H1399   1.083   .     S
C1377  C1385   1.404   .     A
C1377  C1379   1.393   .     A
C1378  C1386   1.405   .     A
C1378  H1400   1.084   .     S
C1378  C1380   1.396   .     A
C1379  H1398   1.083   .     S
C1380  H1397   1.083   .     S
C1381  H1396   1.076   .     S
C1381  C1383   1.395   .     A
C1382  H1395   1.079   .     S
C1382  C1384   1.392   .     A
C1383  C1387   1.417   .     A
C1383  C1385   1.419   .     A
C1384  C1386   1.416   .     A
C1384  C1388   1.414   .     A
C1385  C671    1.391   1_556 S
C1387  C1390   1.418   .     A
C1387  C668    1.412   1_556 S
C1388  C1389   1.417   .     A
C1389  H1401   1.080   .     S
C1389  C1391   1.387   .     A
C1390  C1392   1.391   .     A
C1390  H1402   1.079   .     S
C1391  H1393   1.084   .     S
C1392  H1394   1.084   .     S
C1392  C666    1.392   1_556 S
C1403  H1405   1.084   .     S
C1403  C1410   1.398   .     A
C1403  C927    1.376   1_565 S
C1404  C1409   1.401   .     A
C1404  H1406   1.084   .     S
C1407  C1409   1.418   .     A
C1407  C1421   1.526   .     S
C1408  C1410   1.418   .     A
C1408  C1431   1.526   .     S
C1408  C924    1.378   1_565 S
C1411  H1413   1.081   .     S
C1411  N1420   1.363   .     A
C1411  C1255   1.413   1_655 S
C1412  H1414   1.082   .     S
C1412  N1419   1.364   .     A
C1415  N1419   1.367   .     A
C1415  H1417   1.080   .     S
C1416  N1420   1.368   .     A
C1416  H1418   1.080   .     S
C1416  C1252   1.413   1_655 S
C1421  H1430   1.113   .     S
C1421  H1429   1.108   .     S
C1421  C1422   1.537   .     S
C1422  H1427   1.112   .     S
C1422  H1428   1.109   .     S
C1422  C1263   1.528   1_655 S
C1423  H1425   1.107   .     S
C1423  H1426   1.110   .     S
C1423  H1424   1.109   .     S
C1431  H1439   1.109   .     S
C1431  H1440   1.113   .     S
C1431  C1432   1.537   .     S
C1432  H1437   1.112   .     S
C1432  H1438   1.110   .     S
C1432  C1433   1.527   .     S
C1433  H1434   1.107   .     S
C1433  H1435   1.109   .     S
C1433  H1436   1.111   .     S
