data_str_m3_o1_o17_pcu_sym.66
_audit_creation_date              2020-01-03
_audit_creation_method            'Materials Studio'
_symmetry_space_group_name_H-M    'P1'
_symmetry_Int_Tables_number       1
_symmetry_cell_setting            triclinic
loop_
_symmetry_equiv_pos_as_xyz
  x,y,z
_cell_length_a                    32.3183
_cell_length_b                    29.7460
_cell_length_c                    29.8088
_cell_angle_alpha                 89.9507
_cell_angle_beta                  91.9518
_cell_angle_gamma                 90.5943
loop_
_atom_site_label
_atom_site_type_symbol
_atom_site_fract_x
_atom_site_fract_y
_atom_site_fract_z
_atom_site_U_iso_or_equiv
_atom_site_adp_type
_atom_site_occupancy
Br1    Br    0.04435   0.20329   0.43644   0.00000  Uiso   1.00
Br2    Br    0.28898   0.13004   0.06356   0.00000  Uiso   1.00
Br3    Br    0.04714   0.22289   0.04351   0.00000  Uiso   1.00
Br4    Br    0.28619   0.11044   0.45649   0.00000  Uiso   1.00
Br5    Br    0.22861   0.05581   0.32079   0.00000  Uiso   1.00
Br6    Br    0.10472   0.27753   0.17921   0.00000  Uiso   1.00
Br7    Br    0.10600   0.05461   0.17790   0.00000  Uiso   1.00
Br8    Br    0.22734   0.27872   0.32210   0.00000  Uiso   1.00
C9     C     0.08690   0.16642   0.25401   0.00000  Uiso   1.00
C10    C     0.04238   0.16600   0.25786   0.00000  Uiso   1.00
C11    C     0.19196   0.02416   0.27939   0.00000  Uiso   1.00
C12    C     0.14138   0.30917   0.22061   0.00000  Uiso   1.00
C13    C     0.14151   0.02366   0.22047   0.00000  Uiso   1.00
C14    C     0.19182   0.30967   0.27953   0.00000  Uiso   1.00
C15    C     0.16626   0.16669   0.16372   0.00000  Uiso   1.00
C16    C     0.16707   0.16664   0.33628   0.00000  Uiso   1.00
C17    C     0.20558   0.15981   0.40803   0.00000  Uiso   1.00
C18    C     0.12776   0.17353   0.09197   0.00000  Uiso   1.00
C19    C     0.16834   0.16647   0.38400   0.00000  Uiso   1.00
C20    C     0.24643   0.16691   0.24599   0.00000  Uiso   1.00
C21    C     0.16499   0.16686   0.11600   0.00000  Uiso   1.00
C22    C     0.13150   0.17363   0.40467   0.00000  Uiso   1.00
C23    C     0.20183   0.15970   0.09533   0.00000  Uiso   1.00
C24    C     0.13057   0.17584   0.45099   0.00000  Uiso   1.00
C25    C     0.20276   0.15749   0.04901   0.00000  Uiso   1.00
C26    C     0.16724   0.16630   0.47657   0.00000  Uiso   1.00
C27    C     0.16609   0.16703   0.02343   0.00000  Uiso   1.00
C28    C     0.20487   0.15573   0.45513   0.00000  Uiso   1.00
C29    C     0.12846   0.17760   0.04487   0.00000  Uiso   1.00
C30    C     0.09400   0.18851   0.47175   0.00000  Uiso   1.00
C31    C     0.09347   0.19166   0.01851   0.00000  Uiso   1.00
C32    C     0.23933   0.14482   0.02825   0.00000  Uiso   1.00
C33    C     0.24370   0.16324   0.38374   0.00000  Uiso   1.00
C34    C     0.08963   0.17009   0.11626   0.00000  Uiso   1.00
C35    C     0.03851   0.08189   0.26428   0.00000  Uiso   1.00
C36    C     0.29482   0.25144   0.23572   0.00000  Uiso   1.00
C37    C     0.29218   0.08506   0.22385   0.00000  Uiso   1.00
C38    C     0.04115   0.24828   0.27615   0.00000  Uiso   1.00
C39    C     0.23986   0.14167   0.48149   0.00000  Uiso   1.00
C40    C     0.02024   0.12507   0.25302   0.00000  Uiso   1.00
C41    C     0.31310   0.20827   0.24698   0.00000  Uiso   1.00
C42    C     0.31198   0.12607   0.24086   0.00000  Uiso   1.00
C43    C     0.02135   0.20727   0.25914   0.00000  Uiso   1.00
C44    C     0.29096   0.16733   0.24214   0.00000  Uiso   1.00
H45    H     0.10404   0.17890   0.38362   0.00000  Uiso   1.00
H46    H     0.22929   0.15443   0.11638   0.00000  Uiso   1.00
N47    N     0.16667   0.28573   0.25000   0.00000  Uiso   1.00
N48    N     0.16667   0.04760   0.25000   0.00000  Uiso   1.00
N49    N     0.27378   0.16638   0.36388   0.00000  Uiso   1.00
N50    N     0.05955   0.16695   0.13612   0.00000  Uiso   1.00
N51    N     0.05281   0.04750   0.27366   0.00000  Uiso   1.00
N52    N     0.28052   0.28583   0.22635   0.00000  Uiso   1.00
N53    N     0.27646   0.05256   0.21001   0.00000  Uiso   1.00
N54    N     0.05688   0.28077   0.28999   0.00000  Uiso   1.00
O55    O     0.10559   0.20487   0.25000   0.00000  Uiso   1.00
O56    O     0.22774   0.12846   0.25001   0.00000  Uiso   1.00
O57    O     0.22774   0.20487   0.25001   0.00000  Uiso   1.00
O58    O     0.10559   0.12846   0.25000   0.00000  Uiso   1.00
O59    O     0.16666   0.20489   0.18393   0.00000  Uiso   1.00
O60    O     0.16667   0.12844   0.31608   0.00000  Uiso   1.00
O61    O     0.16667   0.20489   0.31608   0.00000  Uiso   1.00
O62    O     0.16666   0.12844   0.18393   0.00000  Uiso   1.00
Zn63   Zn    0.16667   0.21771   0.25000   0.00000  Uiso   1.00
Zn64   Zn    0.16667   0.11563   0.25000   0.00000  Uiso   1.00
Br65   Br    0.37769   0.20329   0.43644   0.00000  Uiso   1.00
Br66   Br    0.62231   0.13004   0.06356   0.00000  Uiso   1.00
Br67   Br    0.38047   0.22289   0.04351   0.00000  Uiso   1.00
Br68   Br    0.61953   0.11044   0.45649   0.00000  Uiso   1.00
Br69   Br    0.56195   0.05581   0.32079   0.00000  Uiso   1.00
Br70   Br    0.43805   0.27753   0.17921   0.00000  Uiso   1.00
Br71   Br    0.43933   0.05461   0.17790   0.00000  Uiso   1.00
Br72   Br    0.56067   0.27872   0.32210   0.00000  Uiso   1.00
C73    C     0.42023   0.16642   0.25401   0.00000  Uiso   1.00
C74    C     0.37571   0.16600   0.25786   0.00000  Uiso   1.00
C75    C     0.52529   0.02416   0.27939   0.00000  Uiso   1.00
C76    C     0.47471   0.30917   0.22061   0.00000  Uiso   1.00
C77    C     0.47485   0.02366   0.22047   0.00000  Uiso   1.00
C78    C     0.52515   0.30967   0.27953   0.00000  Uiso   1.00
C79    C     0.49959   0.16669   0.16372   0.00000  Uiso   1.00
C80    C     0.50041   0.16664   0.33628   0.00000  Uiso   1.00
C81    C     0.53891   0.15981   0.40803   0.00000  Uiso   1.00
C82    C     0.46109   0.17353   0.09197   0.00000  Uiso   1.00
C83    C     0.50167   0.16647   0.38400   0.00000  Uiso   1.00
C84    C     0.57977   0.16691   0.24599   0.00000  Uiso   1.00
C85    C     0.49833   0.16686   0.11600   0.00000  Uiso   1.00
C86    C     0.46484   0.17363   0.40467   0.00000  Uiso   1.00
C87    C     0.53516   0.15970   0.09533   0.00000  Uiso   1.00
C88    C     0.46391   0.17584   0.45099   0.00000  Uiso   1.00
C89    C     0.53609   0.15749   0.04901   0.00000  Uiso   1.00
C90    C     0.50057   0.16630   0.47657   0.00000  Uiso   1.00
C91    C     0.49943   0.16703   0.02343   0.00000  Uiso   1.00
C92    C     0.53820   0.15573   0.45513   0.00000  Uiso   1.00
C93    C     0.46180   0.17760   0.04487   0.00000  Uiso   1.00
C94    C     0.42733   0.18851   0.47175   0.00000  Uiso   1.00
C95    C     0.42681   0.19166   0.01851   0.00000  Uiso   1.00
C96    C     0.57267   0.14482   0.02825   0.00000  Uiso   1.00
C97    C     0.57704   0.16324   0.38374   0.00000  Uiso   1.00
C98    C     0.42296   0.17009   0.11626   0.00000  Uiso   1.00
C99    C     0.37185   0.08189   0.26428   0.00000  Uiso   1.00
C100   C     0.62815   0.25144   0.23572   0.00000  Uiso   1.00
C101   C     0.62552   0.08506   0.22385   0.00000  Uiso   1.00
C102   C     0.37448   0.24828   0.27615   0.00000  Uiso   1.00
C103   C     0.57319   0.14167   0.48149   0.00000  Uiso   1.00
C104   C     0.35357   0.12507   0.25302   0.00000  Uiso   1.00
C105   C     0.64643   0.20827   0.24698   0.00000  Uiso   1.00
C106   C     0.64531   0.12607   0.24086   0.00000  Uiso   1.00
C107   C     0.35469   0.20727   0.25914   0.00000  Uiso   1.00
C108   C     0.62429   0.16733   0.24214   0.00000  Uiso   1.00
H109   H     0.43737   0.17890   0.38362   0.00000  Uiso   1.00
H110   H     0.56263   0.15443   0.11638   0.00000  Uiso   1.00
N111   N     0.50000   0.28573   0.25000   0.00000  Uiso   1.00
N112   N     0.50000   0.04760   0.25000   0.00000  Uiso   1.00
N113   N     0.60711   0.16638   0.36388   0.00000  Uiso   1.00
N114   N     0.39289   0.16695   0.13612   0.00000  Uiso   1.00
N115   N     0.38615   0.04750   0.27366   0.00000  Uiso   1.00
N116   N     0.61385   0.28583   0.22635   0.00000  Uiso   1.00
N117   N     0.60979   0.05256   0.21001   0.00000  Uiso   1.00
N118   N     0.39021   0.28077   0.28999   0.00000  Uiso   1.00
O119   O     0.43892   0.20487   0.25000   0.00000  Uiso   1.00
O120   O     0.56108   0.12846   0.25001   0.00000  Uiso   1.00
O121   O     0.56108   0.20487   0.25001   0.00000  Uiso   1.00
O122   O     0.43892   0.12846   0.25000   0.00000  Uiso   1.00
O123   O     0.49999   0.20489   0.18393   0.00000  Uiso   1.00
O124   O     0.50001   0.12844   0.31608   0.00000  Uiso   1.00
O125   O     0.50001   0.20489   0.31608   0.00000  Uiso   1.00
O126   O     0.49999   0.12844   0.18393   0.00000  Uiso   1.00
Zn127  Zn    0.50000   0.21771   0.25000   0.00000  Uiso   1.00
Zn128  Zn    0.50000   0.11563   0.25000   0.00000  Uiso   1.00
Br129  Br    0.71102   0.20329   0.43644   0.00000  Uiso   1.00
Br130  Br    0.95565   0.13004   0.06356   0.00000  Uiso   1.00
Br131  Br    0.71381   0.22289   0.04351   0.00000  Uiso   1.00
Br132  Br    0.95286   0.11044   0.45649   0.00000  Uiso   1.00
Br133  Br    0.89528   0.05581   0.32079   0.00000  Uiso   1.00
Br134  Br    0.77139   0.27753   0.17921   0.00000  Uiso   1.00
Br135  Br    0.77266   0.05461   0.17790   0.00000  Uiso   1.00
Br136  Br    0.89400   0.27872   0.32210   0.00000  Uiso   1.00
C137   C     0.75357   0.16642   0.25401   0.00000  Uiso   1.00
C138   C     0.70904   0.16600   0.25786   0.00000  Uiso   1.00
C139   C     0.85862   0.02416   0.27939   0.00000  Uiso   1.00
C140   C     0.80804   0.30917   0.22061   0.00000  Uiso   1.00
C141   C     0.80818   0.02366   0.22047   0.00000  Uiso   1.00
C142   C     0.85849   0.30967   0.27953   0.00000  Uiso   1.00
C143   C     0.83293   0.16669   0.16372   0.00000  Uiso   1.00
C144   C     0.83374   0.16664   0.33628   0.00000  Uiso   1.00
C145   C     0.87224   0.15981   0.40803   0.00000  Uiso   1.00
C146   C     0.79442   0.17353   0.09197   0.00000  Uiso   1.00
C147   C     0.83501   0.16647   0.38400   0.00000  Uiso   1.00
C148   C     0.91310   0.16691   0.24599   0.00000  Uiso   1.00
C149   C     0.83166   0.16686   0.11600   0.00000  Uiso   1.00
C150   C     0.79817   0.17363   0.40467   0.00000  Uiso   1.00
C151   C     0.86850   0.15970   0.09533   0.00000  Uiso   1.00
C152   C     0.79724   0.17584   0.45099   0.00000  Uiso   1.00
C153   C     0.86943   0.15749   0.04901   0.00000  Uiso   1.00
C154   C     0.83391   0.16630   0.47657   0.00000  Uiso   1.00
C155   C     0.83276   0.16703   0.02343   0.00000  Uiso   1.00
C156   C     0.87154   0.15573   0.45513   0.00000  Uiso   1.00
C157   C     0.79513   0.17760   0.04487   0.00000  Uiso   1.00
C158   C     0.76067   0.18851   0.47175   0.00000  Uiso   1.00
C159   C     0.76014   0.19166   0.01851   0.00000  Uiso   1.00
C160   C     0.90600   0.14482   0.02825   0.00000  Uiso   1.00
C161   C     0.91037   0.16324   0.38374   0.00000  Uiso   1.00
C162   C     0.75630   0.17009   0.11626   0.00000  Uiso   1.00
C163   C     0.70518   0.08189   0.26428   0.00000  Uiso   1.00
C164   C     0.96149   0.25144   0.23572   0.00000  Uiso   1.00
C165   C     0.95885   0.08506   0.22385   0.00000  Uiso   1.00
C166   C     0.70782   0.24828   0.27615   0.00000  Uiso   1.00
C167   C     0.90653   0.14167   0.48149   0.00000  Uiso   1.00
C168   C     0.68690   0.12507   0.25302   0.00000  Uiso   1.00
C169   C     0.97976   0.20827   0.24698   0.00000  Uiso   1.00
C170   C     0.97865   0.12607   0.24086   0.00000  Uiso   1.00
C171   C     0.68802   0.20727   0.25914   0.00000  Uiso   1.00
C172   C     0.95762   0.16733   0.24214   0.00000  Uiso   1.00
H173   H     0.77071   0.17890   0.38362   0.00000  Uiso   1.00
H174   H     0.89596   0.15443   0.11638   0.00000  Uiso   1.00
N175   N     0.83333   0.28573   0.25000   0.00000  Uiso   1.00
N176   N     0.83333   0.04760   0.25000   0.00000  Uiso   1.00
N177   N     0.94045   0.16638   0.36388   0.00000  Uiso   1.00
N178   N     0.72622   0.16695   0.13612   0.00000  Uiso   1.00
N179   N     0.71948   0.04750   0.27366   0.00000  Uiso   1.00
N180   N     0.94719   0.28583   0.22635   0.00000  Uiso   1.00
N181   N     0.94312   0.05256   0.21001   0.00000  Uiso   1.00
N182   N     0.72354   0.28077   0.28999   0.00000  Uiso   1.00
O183   O     0.77226   0.20487   0.25000   0.00000  Uiso   1.00
O184   O     0.89441   0.12846   0.25001   0.00000  Uiso   1.00
O185   O     0.89441   0.20487   0.25001   0.00000  Uiso   1.00
O186   O     0.77226   0.12846   0.25000   0.00000  Uiso   1.00
O187   O     0.83333   0.20489   0.18393   0.00000  Uiso   1.00
O188   O     0.83334   0.12844   0.31608   0.00000  Uiso   1.00
O189   O     0.83334   0.20489   0.31608   0.00000  Uiso   1.00
O190   O     0.83333   0.12844   0.18393   0.00000  Uiso   1.00
Zn191  Zn    0.83333   0.21771   0.25000   0.00000  Uiso   1.00
Zn192  Zn    0.83333   0.11563   0.25000   0.00000  Uiso   1.00
Br193  Br    0.04435   0.53662   0.43644   0.00000  Uiso   1.00
Br194  Br    0.28898   0.46337   0.06356   0.00000  Uiso   1.00
Br195  Br    0.04714   0.55622   0.04351   0.00000  Uiso   1.00
Br196  Br    0.28619   0.44377   0.45649   0.00000  Uiso   1.00
Br197  Br    0.22861   0.38914   0.32079   0.00000  Uiso   1.00
Br198  Br    0.10472   0.61086   0.17921   0.00000  Uiso   1.00
Br199  Br    0.10600   0.38795   0.17790   0.00000  Uiso   1.00
Br200  Br    0.22734   0.61205   0.32210   0.00000  Uiso   1.00
C201   C     0.08690   0.49976   0.25401   0.00000  Uiso   1.00
C202   C     0.04238   0.49934   0.25786   0.00000  Uiso   1.00
C203   C     0.19196   0.35750   0.27939   0.00000  Uiso   1.00
C204   C     0.14138   0.64250   0.22061   0.00000  Uiso   1.00
C205   C     0.14151   0.35699   0.22047   0.00000  Uiso   1.00
C206   C     0.19182   0.64300   0.27953   0.00000  Uiso   1.00
C207   C     0.16626   0.50002   0.16372   0.00000  Uiso   1.00
C208   C     0.16707   0.49998   0.33628   0.00000  Uiso   1.00
C209   C     0.20558   0.49314   0.40803   0.00000  Uiso   1.00
C210   C     0.12776   0.50686   0.09197   0.00000  Uiso   1.00
C211   C     0.16834   0.49980   0.38400   0.00000  Uiso   1.00
C212   C     0.24643   0.50024   0.24599   0.00000  Uiso   1.00
C213   C     0.16499   0.50020   0.11600   0.00000  Uiso   1.00
C214   C     0.13150   0.50696   0.40467   0.00000  Uiso   1.00
C215   C     0.20183   0.49303   0.09533   0.00000  Uiso   1.00
C216   C     0.13057   0.50918   0.45099   0.00000  Uiso   1.00
C217   C     0.20276   0.49082   0.04901   0.00000  Uiso   1.00
C218   C     0.16724   0.49963   0.47657   0.00000  Uiso   1.00
C219   C     0.16609   0.50037   0.02343   0.00000  Uiso   1.00
C220   C     0.20487   0.48906   0.45513   0.00000  Uiso   1.00
C221   C     0.12846   0.51094   0.04487   0.00000  Uiso   1.00
C222   C     0.09400   0.52184   0.47175   0.00000  Uiso   1.00
C223   C     0.09347   0.52499   0.01851   0.00000  Uiso   1.00
C224   C     0.23933   0.47816   0.02825   0.00000  Uiso   1.00
C225   C     0.24370   0.49658   0.38374   0.00000  Uiso   1.00
C226   C     0.08963   0.50342   0.11626   0.00000  Uiso   1.00
C227   C     0.03851   0.41523   0.26428   0.00000  Uiso   1.00
C228   C     0.29482   0.58477   0.23572   0.00000  Uiso   1.00
C229   C     0.29218   0.41839   0.22385   0.00000  Uiso   1.00
C230   C     0.04115   0.58161   0.27615   0.00000  Uiso   1.00
C231   C     0.23986   0.47501   0.48149   0.00000  Uiso   1.00
C232   C     0.02024   0.45840   0.25302   0.00000  Uiso   1.00
C233   C     0.31310   0.54160   0.24698   0.00000  Uiso   1.00
C234   C     0.31198   0.45940   0.24086   0.00000  Uiso   1.00
C235   C     0.02135   0.54060   0.25914   0.00000  Uiso   1.00
C236   C     0.29096   0.50066   0.24214   0.00000  Uiso   1.00
H237   H     0.10404   0.51223   0.38362   0.00000  Uiso   1.00
H238   H     0.22929   0.48777   0.11638   0.00000  Uiso   1.00
N239   N     0.16667   0.61907   0.25000   0.00000  Uiso   1.00
N240   N     0.16667   0.38093   0.25000   0.00000  Uiso   1.00
N241   N     0.27378   0.49971   0.36388   0.00000  Uiso   1.00
N242   N     0.05955   0.50029   0.13612   0.00000  Uiso   1.00
N243   N     0.05281   0.38084   0.27366   0.00000  Uiso   1.00
N244   N     0.28052   0.61916   0.22635   0.00000  Uiso   1.00
N245   N     0.27646   0.38589   0.21001   0.00000  Uiso   1.00
N246   N     0.05688   0.61411   0.28999   0.00000  Uiso   1.00
O247   O     0.10559   0.53821   0.25000   0.00000  Uiso   1.00
O248   O     0.22774   0.46179   0.25001   0.00000  Uiso   1.00
O249   O     0.22774   0.53821   0.25001   0.00000  Uiso   1.00
O250   O     0.10559   0.46179   0.25000   0.00000  Uiso   1.00
O251   O     0.16666   0.53823   0.18393   0.00000  Uiso   1.00
O252   O     0.16667   0.46177   0.31608   0.00000  Uiso   1.00
O253   O     0.16667   0.53823   0.31608   0.00000  Uiso   1.00
O254   O     0.16666   0.46177   0.18393   0.00000  Uiso   1.00
Zn255  Zn    0.16667   0.55104   0.25000   0.00000  Uiso   1.00
Zn256  Zn    0.16667   0.44896   0.25000   0.00000  Uiso   1.00
Br257  Br    0.37769   0.53662   0.43644   0.00000  Uiso   1.00
Br258  Br    0.62231   0.46337   0.06356   0.00000  Uiso   1.00
Br259  Br    0.38047   0.55622   0.04351   0.00000  Uiso   1.00
Br260  Br    0.61953   0.44377   0.45649   0.00000  Uiso   1.00
Br261  Br    0.56195   0.38914   0.32079   0.00000  Uiso   1.00
Br262  Br    0.43805   0.61086   0.17921   0.00000  Uiso   1.00
Br263  Br    0.43933   0.38795   0.17790   0.00000  Uiso   1.00
Br264  Br    0.56067   0.61205   0.32210   0.00000  Uiso   1.00
C265   C     0.42023   0.49976   0.25401   0.00000  Uiso   1.00
C266   C     0.37571   0.49934   0.25786   0.00000  Uiso   1.00
C267   C     0.52529   0.35750   0.27939   0.00000  Uiso   1.00
C268   C     0.47471   0.64250   0.22061   0.00000  Uiso   1.00
C269   C     0.47485   0.35699   0.22047   0.00000  Uiso   1.00
C270   C     0.52515   0.64300   0.27953   0.00000  Uiso   1.00
C271   C     0.49959   0.50002   0.16372   0.00000  Uiso   1.00
C272   C     0.50041   0.49998   0.33628   0.00000  Uiso   1.00
C273   C     0.53891   0.49314   0.40803   0.00000  Uiso   1.00
C274   C     0.46109   0.50686   0.09197   0.00000  Uiso   1.00
C275   C     0.50167   0.49980   0.38400   0.00000  Uiso   1.00
C276   C     0.57977   0.50024   0.24599   0.00000  Uiso   1.00
C277   C     0.49833   0.50020   0.11600   0.00000  Uiso   1.00
C278   C     0.46484   0.50696   0.40467   0.00000  Uiso   1.00
C279   C     0.53516   0.49303   0.09533   0.00000  Uiso   1.00
C280   C     0.46391   0.50918   0.45099   0.00000  Uiso   1.00
C281   C     0.53609   0.49082   0.04901   0.00000  Uiso   1.00
C282   C     0.50057   0.49963   0.47657   0.00000  Uiso   1.00
C283   C     0.49943   0.50037   0.02343   0.00000  Uiso   1.00
C284   C     0.53820   0.48906   0.45513   0.00000  Uiso   1.00
C285   C     0.46180   0.51094   0.04487   0.00000  Uiso   1.00
C286   C     0.42733   0.52184   0.47175   0.00000  Uiso   1.00
C287   C     0.42681   0.52499   0.01851   0.00000  Uiso   1.00
C288   C     0.57267   0.47816   0.02825   0.00000  Uiso   1.00
C289   C     0.57704   0.49658   0.38374   0.00000  Uiso   1.00
C290   C     0.42296   0.50342   0.11626   0.00000  Uiso   1.00
C291   C     0.37185   0.41523   0.26428   0.00000  Uiso   1.00
C292   C     0.62815   0.58477   0.23572   0.00000  Uiso   1.00
C293   C     0.62552   0.41839   0.22385   0.00000  Uiso   1.00
C294   C     0.37448   0.58161   0.27615   0.00000  Uiso   1.00
C295   C     0.57319   0.47501   0.48149   0.00000  Uiso   1.00
C296   C     0.35357   0.45840   0.25302   0.00000  Uiso   1.00
C297   C     0.64643   0.54160   0.24698   0.00000  Uiso   1.00
C298   C     0.64531   0.45940   0.24086   0.00000  Uiso   1.00
C299   C     0.35469   0.54060   0.25914   0.00000  Uiso   1.00
C300   C     0.62429   0.50066   0.24214   0.00000  Uiso   1.00
H301   H     0.43737   0.51223   0.38362   0.00000  Uiso   1.00
H302   H     0.56263   0.48777   0.11638   0.00000  Uiso   1.00
N303   N     0.50000   0.61907   0.25000   0.00000  Uiso   1.00
N304   N     0.50000   0.38093   0.25000   0.00000  Uiso   1.00
N305   N     0.60711   0.49971   0.36388   0.00000  Uiso   1.00
N306   N     0.39289   0.50029   0.13612   0.00000  Uiso   1.00
N307   N     0.38615   0.38084   0.27366   0.00000  Uiso   1.00
N308   N     0.61385   0.61916   0.22635   0.00000  Uiso   1.00
N309   N     0.60979   0.38589   0.21001   0.00000  Uiso   1.00
N310   N     0.39021   0.61411   0.28999   0.00000  Uiso   1.00
O311   O     0.43892   0.53821   0.25000   0.00000  Uiso   1.00
O312   O     0.56108   0.46179   0.25001   0.00000  Uiso   1.00
O313   O     0.56108   0.53821   0.25001   0.00000  Uiso   1.00
O314   O     0.43892   0.46179   0.25000   0.00000  Uiso   1.00
O315   O     0.49999   0.53823   0.18393   0.00000  Uiso   1.00
O316   O     0.50001   0.46177   0.31608   0.00000  Uiso   1.00
O317   O     0.50001   0.53823   0.31608   0.00000  Uiso   1.00
O318   O     0.49999   0.46177   0.18393   0.00000  Uiso   1.00
Zn319  Zn    0.50000   0.55104   0.25000   0.00000  Uiso   1.00
Zn320  Zn    0.50000   0.44896   0.25000   0.00000  Uiso   1.00
Br321  Br    0.71102   0.53662   0.43644   0.00000  Uiso   1.00
Br322  Br    0.95565   0.46337   0.06356   0.00000  Uiso   1.00
Br323  Br    0.71381   0.55622   0.04351   0.00000  Uiso   1.00
Br324  Br    0.95286   0.44377   0.45649   0.00000  Uiso   1.00
Br325  Br    0.89528   0.38914   0.32079   0.00000  Uiso   1.00
Br326  Br    0.77139   0.61086   0.17921   0.00000  Uiso   1.00
Br327  Br    0.77266   0.38795   0.17790   0.00000  Uiso   1.00
Br328  Br    0.89400   0.61205   0.32210   0.00000  Uiso   1.00
C329   C     0.75357   0.49976   0.25401   0.00000  Uiso   1.00
C330   C     0.70904   0.49934   0.25786   0.00000  Uiso   1.00
C331   C     0.85862   0.35750   0.27939   0.00000  Uiso   1.00
C332   C     0.80804   0.64250   0.22061   0.00000  Uiso   1.00
C333   C     0.80818   0.35699   0.22047   0.00000  Uiso   1.00
C334   C     0.85849   0.64300   0.27953   0.00000  Uiso   1.00
C335   C     0.83293   0.50002   0.16372   0.00000  Uiso   1.00
C336   C     0.83374   0.49998   0.33628   0.00000  Uiso   1.00
C337   C     0.87224   0.49314   0.40803   0.00000  Uiso   1.00
C338   C     0.79442   0.50686   0.09197   0.00000  Uiso   1.00
C339   C     0.83501   0.49980   0.38400   0.00000  Uiso   1.00
C340   C     0.91310   0.50024   0.24599   0.00000  Uiso   1.00
C341   C     0.83166   0.50020   0.11600   0.00000  Uiso   1.00
C342   C     0.79817   0.50696   0.40467   0.00000  Uiso   1.00
C343   C     0.86850   0.49303   0.09533   0.00000  Uiso   1.00
C344   C     0.79724   0.50918   0.45099   0.00000  Uiso   1.00
C345   C     0.86943   0.49082   0.04901   0.00000  Uiso   1.00
C346   C     0.83391   0.49963   0.47657   0.00000  Uiso   1.00
C347   C     0.83276   0.50037   0.02343   0.00000  Uiso   1.00
C348   C     0.87154   0.48906   0.45513   0.00000  Uiso   1.00
C349   C     0.79513   0.51094   0.04487   0.00000  Uiso   1.00
C350   C     0.76067   0.52184   0.47175   0.00000  Uiso   1.00
C351   C     0.76014   0.52499   0.01851   0.00000  Uiso   1.00
C352   C     0.90600   0.47816   0.02825   0.00000  Uiso   1.00
C353   C     0.91037   0.49658   0.38374   0.00000  Uiso   1.00
C354   C     0.75630   0.50342   0.11626   0.00000  Uiso   1.00
C355   C     0.70518   0.41523   0.26428   0.00000  Uiso   1.00
C356   C     0.96149   0.58477   0.23572   0.00000  Uiso   1.00
C357   C     0.95885   0.41839   0.22385   0.00000  Uiso   1.00
C358   C     0.70782   0.58161   0.27615   0.00000  Uiso   1.00
C359   C     0.90653   0.47501   0.48149   0.00000  Uiso   1.00
C360   C     0.68690   0.45840   0.25302   0.00000  Uiso   1.00
C361   C     0.97976   0.54160   0.24698   0.00000  Uiso   1.00
C362   C     0.97865   0.45940   0.24086   0.00000  Uiso   1.00
C363   C     0.68802   0.54060   0.25914   0.00000  Uiso   1.00
C364   C     0.95762   0.50066   0.24214   0.00000  Uiso   1.00
H365   H     0.77071   0.51223   0.38362   0.00000  Uiso   1.00
H366   H     0.89596   0.48777   0.11638   0.00000  Uiso   1.00
N367   N     0.83333   0.61907   0.25000   0.00000  Uiso   1.00
N368   N     0.83333   0.38093   0.25000   0.00000  Uiso   1.00
N369   N     0.94045   0.49971   0.36388   0.00000  Uiso   1.00
N370   N     0.72622   0.50029   0.13612   0.00000  Uiso   1.00
N371   N     0.71948   0.38084   0.27366   0.00000  Uiso   1.00
N372   N     0.94719   0.61916   0.22635   0.00000  Uiso   1.00
N373   N     0.94312   0.38589   0.21001   0.00000  Uiso   1.00
N374   N     0.72354   0.61411   0.28999   0.00000  Uiso   1.00
O375   O     0.77226   0.53821   0.25000   0.00000  Uiso   1.00
O376   O     0.89441   0.46179   0.25001   0.00000  Uiso   1.00
O377   O     0.89441   0.53821   0.25001   0.00000  Uiso   1.00
O378   O     0.77226   0.46179   0.25000   0.00000  Uiso   1.00
O379   O     0.83333   0.53823   0.18393   0.00000  Uiso   1.00
O380   O     0.83334   0.46177   0.31608   0.00000  Uiso   1.00
O381   O     0.83334   0.53823   0.31608   0.00000  Uiso   1.00
O382   O     0.83333   0.46177   0.18393   0.00000  Uiso   1.00
Zn383  Zn    0.83333   0.55104   0.25000   0.00000  Uiso   1.00
Zn384  Zn    0.83333   0.44896   0.25000   0.00000  Uiso   1.00
Br385  Br    0.04435   0.86995   0.43644   0.00000  Uiso   1.00
Br386  Br    0.28898   0.79671   0.06356   0.00000  Uiso   1.00
Br387  Br    0.04714   0.88956   0.04351   0.00000  Uiso   1.00
Br388  Br    0.28619   0.77711   0.45649   0.00000  Uiso   1.00
Br389  Br    0.22861   0.72247   0.32079   0.00000  Uiso   1.00
Br390  Br    0.10472   0.94419   0.17921   0.00000  Uiso   1.00
Br391  Br    0.10600   0.72128   0.17790   0.00000  Uiso   1.00
Br392  Br    0.22734   0.94539   0.32210   0.00000  Uiso   1.00
C393   C     0.08690   0.83309   0.25401   0.00000  Uiso   1.00
C394   C     0.04238   0.83267   0.25786   0.00000  Uiso   1.00
C395   C     0.19196   0.69083   0.27939   0.00000  Uiso   1.00
C396   C     0.14138   0.97584   0.22061   0.00000  Uiso   1.00
C397   C     0.14151   0.69033   0.22047   0.00000  Uiso   1.00
C398   C     0.19182   0.97634   0.27953   0.00000  Uiso   1.00
C399   C     0.16626   0.83336   0.16372   0.00000  Uiso   1.00
C400   C     0.16707   0.83331   0.33628   0.00000  Uiso   1.00
C401   C     0.20558   0.82647   0.40803   0.00000  Uiso   1.00
C402   C     0.12776   0.84019   0.09197   0.00000  Uiso   1.00
C403   C     0.16834   0.83313   0.38400   0.00000  Uiso   1.00
C404   C     0.24643   0.83358   0.24599   0.00000  Uiso   1.00
C405   C     0.16499   0.83353   0.11600   0.00000  Uiso   1.00
C406   C     0.13150   0.84030   0.40467   0.00000  Uiso   1.00
C407   C     0.20183   0.82637   0.09533   0.00000  Uiso   1.00
C408   C     0.13057   0.84251   0.45099   0.00000  Uiso   1.00
C409   C     0.20276   0.82415   0.04901   0.00000  Uiso   1.00
C410   C     0.16724   0.83297   0.47657   0.00000  Uiso   1.00
C411   C     0.16609   0.83370   0.02343   0.00000  Uiso   1.00
C412   C     0.20487   0.82240   0.45513   0.00000  Uiso   1.00
C413   C     0.12846   0.84427   0.04487   0.00000  Uiso   1.00
C414   C     0.09400   0.85517   0.47175   0.00000  Uiso   1.00
C415   C     0.09347   0.85832   0.01851   0.00000  Uiso   1.00
C416   C     0.23933   0.81149   0.02825   0.00000  Uiso   1.00
C417   C     0.24370   0.82991   0.38374   0.00000  Uiso   1.00
C418   C     0.08963   0.83675   0.11626   0.00000  Uiso   1.00
C419   C     0.03851   0.74856   0.26428   0.00000  Uiso   1.00
C420   C     0.29482   0.91811   0.23572   0.00000  Uiso   1.00
C421   C     0.29218   0.75172   0.22385   0.00000  Uiso   1.00
C422   C     0.04115   0.91494   0.27615   0.00000  Uiso   1.00
C423   C     0.23986   0.80834   0.48149   0.00000  Uiso   1.00
C424   C     0.02024   0.79173   0.25302   0.00000  Uiso   1.00
C425   C     0.31310   0.87493   0.24698   0.00000  Uiso   1.00
C426   C     0.31198   0.79273   0.24086   0.00000  Uiso   1.00
C427   C     0.02135   0.87393   0.25914   0.00000  Uiso   1.00
C428   C     0.29096   0.83400   0.24214   0.00000  Uiso   1.00
H429   H     0.10404   0.84557   0.38362   0.00000  Uiso   1.00
H430   H     0.22929   0.82110   0.11638   0.00000  Uiso   1.00
N431   N     0.16667   0.95240   0.25000   0.00000  Uiso   1.00
N432   N     0.16667   0.71427   0.25000   0.00000  Uiso   1.00
N433   N     0.27378   0.83305   0.36388   0.00000  Uiso   1.00
N434   N     0.05955   0.83362   0.13612   0.00000  Uiso   1.00
N435   N     0.05281   0.71417   0.27366   0.00000  Uiso   1.00
N436   N     0.28052   0.95250   0.22635   0.00000  Uiso   1.00
N437   N     0.27646   0.71923   0.21001   0.00000  Uiso   1.00
N438   N     0.05688   0.94744   0.28999   0.00000  Uiso   1.00
O439   O     0.10559   0.87154   0.25000   0.00000  Uiso   1.00
O440   O     0.22774   0.79513   0.25001   0.00000  Uiso   1.00
O441   O     0.22774   0.87154   0.25001   0.00000  Uiso   1.00
O442   O     0.10559   0.79513   0.25000   0.00000  Uiso   1.00
O443   O     0.16666   0.87156   0.18393   0.00000  Uiso   1.00
O444   O     0.16667   0.79511   0.31608   0.00000  Uiso   1.00
O445   O     0.16667   0.87156   0.31608   0.00000  Uiso   1.00
O446   O     0.16666   0.79511   0.18393   0.00000  Uiso   1.00
Zn447  Zn    0.16667   0.88437   0.25000   0.00000  Uiso   1.00
Zn448  Zn    0.16667   0.78229   0.25000   0.00000  Uiso   1.00
Br449  Br    0.37769   0.86995   0.43644   0.00000  Uiso   1.00
Br450  Br    0.62231   0.79671   0.06356   0.00000  Uiso   1.00
Br451  Br    0.38047   0.88956   0.04351   0.00000  Uiso   1.00
Br452  Br    0.61953   0.77711   0.45649   0.00000  Uiso   1.00
Br453  Br    0.56195   0.72247   0.32079   0.00000  Uiso   1.00
Br454  Br    0.43805   0.94419   0.17921   0.00000  Uiso   1.00
Br455  Br    0.43933   0.72128   0.17790   0.00000  Uiso   1.00
Br456  Br    0.56067   0.94539   0.32210   0.00000  Uiso   1.00
C457   C     0.42023   0.83309   0.25401   0.00000  Uiso   1.00
C458   C     0.37571   0.83267   0.25786   0.00000  Uiso   1.00
C459   C     0.52529   0.69083   0.27939   0.00000  Uiso   1.00
C460   C     0.47471   0.97584   0.22061   0.00000  Uiso   1.00
C461   C     0.47485   0.69033   0.22047   0.00000  Uiso   1.00
C462   C     0.52515   0.97634   0.27953   0.00000  Uiso   1.00
C463   C     0.49959   0.83336   0.16372   0.00000  Uiso   1.00
C464   C     0.50041   0.83331   0.33628   0.00000  Uiso   1.00
C465   C     0.53891   0.82647   0.40803   0.00000  Uiso   1.00
C466   C     0.46109   0.84019   0.09197   0.00000  Uiso   1.00
C467   C     0.50167   0.83313   0.38400   0.00000  Uiso   1.00
C468   C     0.57977   0.83358   0.24599   0.00000  Uiso   1.00
C469   C     0.49833   0.83353   0.11600   0.00000  Uiso   1.00
C470   C     0.46484   0.84030   0.40467   0.00000  Uiso   1.00
C471   C     0.53516   0.82637   0.09533   0.00000  Uiso   1.00
C472   C     0.46391   0.84251   0.45099   0.00000  Uiso   1.00
C473   C     0.53609   0.82415   0.04901   0.00000  Uiso   1.00
C474   C     0.50057   0.83297   0.47657   0.00000  Uiso   1.00
C475   C     0.49943   0.83370   0.02343   0.00000  Uiso   1.00
C476   C     0.53820   0.82240   0.45513   0.00000  Uiso   1.00
C477   C     0.46180   0.84427   0.04487   0.00000  Uiso   1.00
C478   C     0.42733   0.85517   0.47175   0.00000  Uiso   1.00
C479   C     0.42681   0.85832   0.01851   0.00000  Uiso   1.00
C480   C     0.57267   0.81149   0.02825   0.00000  Uiso   1.00
C481   C     0.57704   0.82991   0.38374   0.00000  Uiso   1.00
C482   C     0.42296   0.83675   0.11626   0.00000  Uiso   1.00
C483   C     0.37185   0.74856   0.26428   0.00000  Uiso   1.00
C484   C     0.62815   0.91811   0.23572   0.00000  Uiso   1.00
C485   C     0.62552   0.75172   0.22385   0.00000  Uiso   1.00
C486   C     0.37448   0.91494   0.27615   0.00000  Uiso   1.00
C487   C     0.57319   0.80834   0.48149   0.00000  Uiso   1.00
C488   C     0.35357   0.79173   0.25302   0.00000  Uiso   1.00
C489   C     0.64643   0.87493   0.24698   0.00000  Uiso   1.00
C490   C     0.64531   0.79273   0.24086   0.00000  Uiso   1.00
C491   C     0.35469   0.87393   0.25914   0.00000  Uiso   1.00
C492   C     0.62429   0.83400   0.24214   0.00000  Uiso   1.00
H493   H     0.43737   0.84557   0.38362   0.00000  Uiso   1.00
H494   H     0.56263   0.82110   0.11638   0.00000  Uiso   1.00
N495   N     0.50000   0.95240   0.25000   0.00000  Uiso   1.00
N496   N     0.50000   0.71427   0.25000   0.00000  Uiso   1.00
N497   N     0.60711   0.83305   0.36388   0.00000  Uiso   1.00
N498   N     0.39289   0.83362   0.13612   0.00000  Uiso   1.00
N499   N     0.38615   0.71417   0.27366   0.00000  Uiso   1.00
N500   N     0.61385   0.95250   0.22635   0.00000  Uiso   1.00
N501   N     0.60979   0.71923   0.21001   0.00000  Uiso   1.00
N502   N     0.39021   0.94744   0.28999   0.00000  Uiso   1.00
O503   O     0.43892   0.87154   0.25000   0.00000  Uiso   1.00
O504   O     0.56108   0.79513   0.25001   0.00000  Uiso   1.00
O505   O     0.56108   0.87154   0.25001   0.00000  Uiso   1.00
O506   O     0.43892   0.79513   0.25000   0.00000  Uiso   1.00
O507   O     0.49999   0.87156   0.18393   0.00000  Uiso   1.00
O508   O     0.50001   0.79511   0.31608   0.00000  Uiso   1.00
O509   O     0.50001   0.87156   0.31608   0.00000  Uiso   1.00
O510   O     0.49999   0.79511   0.18393   0.00000  Uiso   1.00
Zn511  Zn    0.50000   0.88437   0.25000   0.00000  Uiso   1.00
Zn512  Zn    0.50000   0.78229   0.25000   0.00000  Uiso   1.00
Br513  Br    0.71102   0.86995   0.43644   0.00000  Uiso   1.00
Br514  Br    0.95565   0.79671   0.06356   0.00000  Uiso   1.00
Br515  Br    0.71381   0.88956   0.04351   0.00000  Uiso   1.00
Br516  Br    0.95286   0.77711   0.45649   0.00000  Uiso   1.00
Br517  Br    0.89528   0.72247   0.32079   0.00000  Uiso   1.00
Br518  Br    0.77139   0.94419   0.17921   0.00000  Uiso   1.00
Br519  Br    0.77266   0.72128   0.17790   0.00000  Uiso   1.00
Br520  Br    0.89400   0.94539   0.32210   0.00000  Uiso   1.00
C521   C     0.75357   0.83309   0.25401   0.00000  Uiso   1.00
C522   C     0.70904   0.83267   0.25786   0.00000  Uiso   1.00
C523   C     0.85862   0.69083   0.27939   0.00000  Uiso   1.00
C524   C     0.80804   0.97584   0.22061   0.00000  Uiso   1.00
C525   C     0.80818   0.69033   0.22047   0.00000  Uiso   1.00
C526   C     0.85849   0.97634   0.27953   0.00000  Uiso   1.00
C527   C     0.83293   0.83336   0.16372   0.00000  Uiso   1.00
C528   C     0.83374   0.83331   0.33628   0.00000  Uiso   1.00
C529   C     0.87224   0.82647   0.40803   0.00000  Uiso   1.00
C530   C     0.79442   0.84019   0.09197   0.00000  Uiso   1.00
C531   C     0.83501   0.83313   0.38400   0.00000  Uiso   1.00
C532   C     0.91310   0.83358   0.24599   0.00000  Uiso   1.00
C533   C     0.83166   0.83353   0.11600   0.00000  Uiso   1.00
C534   C     0.79817   0.84030   0.40467   0.00000  Uiso   1.00
C535   C     0.86850   0.82637   0.09533   0.00000  Uiso   1.00
C536   C     0.79724   0.84251   0.45099   0.00000  Uiso   1.00
C537   C     0.86943   0.82415   0.04901   0.00000  Uiso   1.00
C538   C     0.83391   0.83297   0.47657   0.00000  Uiso   1.00
C539   C     0.83276   0.83370   0.02343   0.00000  Uiso   1.00
C540   C     0.87154   0.82240   0.45513   0.00000  Uiso   1.00
C541   C     0.79513   0.84427   0.04487   0.00000  Uiso   1.00
C542   C     0.76067   0.85517   0.47175   0.00000  Uiso   1.00
C543   C     0.76014   0.85832   0.01851   0.00000  Uiso   1.00
C544   C     0.90600   0.81149   0.02825   0.00000  Uiso   1.00
C545   C     0.91037   0.82991   0.38374   0.00000  Uiso   1.00
C546   C     0.75630   0.83675   0.11626   0.00000  Uiso   1.00
C547   C     0.70518   0.74856   0.26428   0.00000  Uiso   1.00
C548   C     0.96149   0.91811   0.23572   0.00000  Uiso   1.00
C549   C     0.95885   0.75172   0.22385   0.00000  Uiso   1.00
C550   C     0.70782   0.91494   0.27615   0.00000  Uiso   1.00
C551   C     0.90653   0.80834   0.48149   0.00000  Uiso   1.00
C552   C     0.68690   0.79173   0.25302   0.00000  Uiso   1.00
C553   C     0.97976   0.87493   0.24698   0.00000  Uiso   1.00
C554   C     0.97865   0.79273   0.24086   0.00000  Uiso   1.00
C555   C     0.68802   0.87393   0.25914   0.00000  Uiso   1.00
C556   C     0.95762   0.83400   0.24214   0.00000  Uiso   1.00
H557   H     0.77071   0.84557   0.38362   0.00000  Uiso   1.00
H558   H     0.89596   0.82110   0.11638   0.00000  Uiso   1.00
N559   N     0.83333   0.95240   0.25000   0.00000  Uiso   1.00
N560   N     0.83333   0.71427   0.25000   0.00000  Uiso   1.00
N561   N     0.94045   0.83305   0.36388   0.00000  Uiso   1.00
N562   N     0.72622   0.83362   0.13612   0.00000  Uiso   1.00
N563   N     0.71948   0.71417   0.27366   0.00000  Uiso   1.00
N564   N     0.94719   0.95250   0.22635   0.00000  Uiso   1.00
N565   N     0.94312   0.71923   0.21001   0.00000  Uiso   1.00
N566   N     0.72354   0.94744   0.28999   0.00000  Uiso   1.00
O567   O     0.77226   0.87154   0.25000   0.00000  Uiso   1.00
O568   O     0.89441   0.79513   0.25001   0.00000  Uiso   1.00
O569   O     0.89441   0.87154   0.25001   0.00000  Uiso   1.00
O570   O     0.77226   0.79513   0.25000   0.00000  Uiso   1.00
O571   O     0.83333   0.87156   0.18393   0.00000  Uiso   1.00
O572   O     0.83334   0.79511   0.31608   0.00000  Uiso   1.00
O573   O     0.83334   0.87156   0.31608   0.00000  Uiso   1.00
O574   O     0.83333   0.79511   0.18393   0.00000  Uiso   1.00
Zn575  Zn    0.83333   0.88437   0.25000   0.00000  Uiso   1.00
Zn576  Zn    0.83333   0.78229   0.25000   0.00000  Uiso   1.00
Br577  Br    0.04435   0.20329   0.93644   0.00000  Uiso   1.00
Br578  Br    0.28898   0.13004   0.56356   0.00000  Uiso   1.00
Br579  Br    0.04714   0.22289   0.54351   0.00000  Uiso   1.00
Br580  Br    0.28619   0.11044   0.95649   0.00000  Uiso   1.00
Br581  Br    0.22861   0.05581   0.82079   0.00000  Uiso   1.00
Br582  Br    0.10472   0.27753   0.67921   0.00000  Uiso   1.00
Br583  Br    0.10600   0.05461   0.67790   0.00000  Uiso   1.00
Br584  Br    0.22734   0.27872   0.82210   0.00000  Uiso   1.00
C585   C     0.08690   0.16642   0.75401   0.00000  Uiso   1.00
C586   C     0.04238   0.16600   0.75786   0.00000  Uiso   1.00
C587   C     0.19196   0.02416   0.77939   0.00000  Uiso   1.00
C588   C     0.14138   0.30917   0.72061   0.00000  Uiso   1.00
C589   C     0.14151   0.02366   0.72047   0.00000  Uiso   1.00
C590   C     0.19182   0.30967   0.77953   0.00000  Uiso   1.00
C591   C     0.16626   0.16669   0.66372   0.00000  Uiso   1.00
C592   C     0.16707   0.16664   0.83628   0.00000  Uiso   1.00
C593   C     0.20558   0.15981   0.90803   0.00000  Uiso   1.00
C594   C     0.12776   0.17353   0.59197   0.00000  Uiso   1.00
C595   C     0.16834   0.16647   0.88400   0.00000  Uiso   1.00
C596   C     0.24643   0.16691   0.74599   0.00000  Uiso   1.00
C597   C     0.16499   0.16686   0.61600   0.00000  Uiso   1.00
C598   C     0.13150   0.17363   0.90467   0.00000  Uiso   1.00
C599   C     0.20183   0.15970   0.59533   0.00000  Uiso   1.00
C600   C     0.13057   0.17584   0.95099   0.00000  Uiso   1.00
C601   C     0.20276   0.15749   0.54901   0.00000  Uiso   1.00
C602   C     0.16724   0.16630   0.97657   0.00000  Uiso   1.00
C603   C     0.16609   0.16703   0.52343   0.00000  Uiso   1.00
C604   C     0.20487   0.15573   0.95513   0.00000  Uiso   1.00
C605   C     0.12846   0.17760   0.54487   0.00000  Uiso   1.00
C606   C     0.09400   0.18851   0.97175   0.00000  Uiso   1.00
C607   C     0.09347   0.19166   0.51851   0.00000  Uiso   1.00
C608   C     0.23933   0.14482   0.52825   0.00000  Uiso   1.00
C609   C     0.24370   0.16324   0.88374   0.00000  Uiso   1.00
C610   C     0.08963   0.17009   0.61626   0.00000  Uiso   1.00
C611   C     0.03851   0.08189   0.76428   0.00000  Uiso   1.00
C612   C     0.29482   0.25144   0.73572   0.00000  Uiso   1.00
C613   C     0.29218   0.08506   0.72385   0.00000  Uiso   1.00
C614   C     0.04115   0.24828   0.77615   0.00000  Uiso   1.00
C615   C     0.23986   0.14167   0.98149   0.00000  Uiso   1.00
C616   C     0.02024   0.12507   0.75302   0.00000  Uiso   1.00
C617   C     0.31310   0.20827   0.74698   0.00000  Uiso   1.00
C618   C     0.31198   0.12607   0.74086   0.00000  Uiso   1.00
C619   C     0.02135   0.20727   0.75914   0.00000  Uiso   1.00
C620   C     0.29096   0.16733   0.74214   0.00000  Uiso   1.00
H621   H     0.10404   0.17890   0.88362   0.00000  Uiso   1.00
H622   H     0.22929   0.15443   0.61638   0.00000  Uiso   1.00
N623   N     0.16667   0.28573   0.75000   0.00000  Uiso   1.00
N624   N     0.16667   0.04760   0.75000   0.00000  Uiso   1.00
N625   N     0.27378   0.16638   0.86388   0.00000  Uiso   1.00
N626   N     0.05955   0.16695   0.63612   0.00000  Uiso   1.00
N627   N     0.05281   0.04750   0.77366   0.00000  Uiso   1.00
N628   N     0.28052   0.28583   0.72635   0.00000  Uiso   1.00
N629   N     0.27646   0.05256   0.71001   0.00000  Uiso   1.00
N630   N     0.05688   0.28077   0.78999   0.00000  Uiso   1.00
O631   O     0.10559   0.20487   0.75000   0.00000  Uiso   1.00
O632   O     0.22774   0.12846   0.75001   0.00000  Uiso   1.00
O633   O     0.22774   0.20487   0.75001   0.00000  Uiso   1.00
O634   O     0.10559   0.12846   0.75000   0.00000  Uiso   1.00
O635   O     0.16666   0.20489   0.68393   0.00000  Uiso   1.00
O636   O     0.16667   0.12844   0.81608   0.00000  Uiso   1.00
O637   O     0.16667   0.20489   0.81608   0.00000  Uiso   1.00
O638   O     0.16666   0.12844   0.68393   0.00000  Uiso   1.00
Zn639  Zn    0.16667   0.21771   0.75000   0.00000  Uiso   1.00
Zn640  Zn    0.16667   0.11563   0.75000   0.00000  Uiso   1.00
Br641  Br    0.37769   0.20329   0.93644   0.00000  Uiso   1.00
Br642  Br    0.62231   0.13004   0.56356   0.00000  Uiso   1.00
Br643  Br    0.38047   0.22289   0.54351   0.00000  Uiso   1.00
Br644  Br    0.61953   0.11044   0.95649   0.00000  Uiso   1.00
Br645  Br    0.56195   0.05581   0.82079   0.00000  Uiso   1.00
Br646  Br    0.43805   0.27753   0.67921   0.00000  Uiso   1.00
Br647  Br    0.43933   0.05461   0.67790   0.00000  Uiso   1.00
Br648  Br    0.56067   0.27872   0.82210   0.00000  Uiso   1.00
C649   C     0.42023   0.16642   0.75401   0.00000  Uiso   1.00
C650   C     0.37571   0.16600   0.75786   0.00000  Uiso   1.00
C651   C     0.52529   0.02416   0.77939   0.00000  Uiso   1.00
C652   C     0.47471   0.30917   0.72061   0.00000  Uiso   1.00
C653   C     0.47485   0.02366   0.72047   0.00000  Uiso   1.00
C654   C     0.52515   0.30967   0.77953   0.00000  Uiso   1.00
C655   C     0.49959   0.16669   0.66372   0.00000  Uiso   1.00
C656   C     0.50041   0.16664   0.83628   0.00000  Uiso   1.00
C657   C     0.53891   0.15981   0.90803   0.00000  Uiso   1.00
C658   C     0.46109   0.17353   0.59197   0.00000  Uiso   1.00
C659   C     0.50167   0.16647   0.88400   0.00000  Uiso   1.00
C660   C     0.57977   0.16691   0.74599   0.00000  Uiso   1.00
C661   C     0.49833   0.16686   0.61600   0.00000  Uiso   1.00
C662   C     0.46484   0.17363   0.90467   0.00000  Uiso   1.00
C663   C     0.53516   0.15970   0.59533   0.00000  Uiso   1.00
C664   C     0.46391   0.17584   0.95099   0.00000  Uiso   1.00
C665   C     0.53609   0.15749   0.54901   0.00000  Uiso   1.00
C666   C     0.50057   0.16630   0.97657   0.00000  Uiso   1.00
C667   C     0.49943   0.16703   0.52343   0.00000  Uiso   1.00
C668   C     0.53820   0.15573   0.95513   0.00000  Uiso   1.00
C669   C     0.46180   0.17760   0.54487   0.00000  Uiso   1.00
C670   C     0.42733   0.18851   0.97175   0.00000  Uiso   1.00
C671   C     0.42681   0.19166   0.51851   0.00000  Uiso   1.00
C672   C     0.57267   0.14482   0.52825   0.00000  Uiso   1.00
C673   C     0.57704   0.16324   0.88374   0.00000  Uiso   1.00
C674   C     0.42296   0.17009   0.61626   0.00000  Uiso   1.00
C675   C     0.37185   0.08189   0.76428   0.00000  Uiso   1.00
C676   C     0.62815   0.25144   0.73572   0.00000  Uiso   1.00
C677   C     0.62552   0.08506   0.72385   0.00000  Uiso   1.00
C678   C     0.37448   0.24828   0.77615   0.00000  Uiso   1.00
C679   C     0.57319   0.14167   0.98149   0.00000  Uiso   1.00
C680   C     0.35357   0.12507   0.75302   0.00000  Uiso   1.00
C681   C     0.64643   0.20827   0.74698   0.00000  Uiso   1.00
C682   C     0.64531   0.12607   0.74086   0.00000  Uiso   1.00
C683   C     0.35469   0.20727   0.75914   0.00000  Uiso   1.00
C684   C     0.62429   0.16733   0.74214   0.00000  Uiso   1.00
H685   H     0.43737   0.17890   0.88362   0.00000  Uiso   1.00
H686   H     0.56263   0.15443   0.61638   0.00000  Uiso   1.00
N687   N     0.50000   0.28573   0.75000   0.00000  Uiso   1.00
N688   N     0.50000   0.04760   0.75000   0.00000  Uiso   1.00
N689   N     0.60711   0.16638   0.86388   0.00000  Uiso   1.00
N690   N     0.39289   0.16695   0.63612   0.00000  Uiso   1.00
N691   N     0.38615   0.04750   0.77366   0.00000  Uiso   1.00
N692   N     0.61385   0.28583   0.72635   0.00000  Uiso   1.00
N693   N     0.60979   0.05256   0.71001   0.00000  Uiso   1.00
N694   N     0.39021   0.28077   0.78999   0.00000  Uiso   1.00
O695   O     0.43892   0.20487   0.75000   0.00000  Uiso   1.00
O696   O     0.56108   0.12846   0.75001   0.00000  Uiso   1.00
O697   O     0.56108   0.20487   0.75001   0.00000  Uiso   1.00
O698   O     0.43892   0.12846   0.75000   0.00000  Uiso   1.00
O699   O     0.49999   0.20489   0.68393   0.00000  Uiso   1.00
O700   O     0.50001   0.12844   0.81608   0.00000  Uiso   1.00
O701   O     0.50001   0.20489   0.81608   0.00000  Uiso   1.00
O702   O     0.49999   0.12844   0.68393   0.00000  Uiso   1.00
Zn703  Zn    0.50000   0.21771   0.75000   0.00000  Uiso   1.00
Zn704  Zn    0.50000   0.11563   0.75000   0.00000  Uiso   1.00
Br705  Br    0.71102   0.20329   0.93644   0.00000  Uiso   1.00
Br706  Br    0.95565   0.13004   0.56356   0.00000  Uiso   1.00
Br707  Br    0.71381   0.22289   0.54351   0.00000  Uiso   1.00
Br708  Br    0.95286   0.11044   0.95649   0.00000  Uiso   1.00
Br709  Br    0.89528   0.05581   0.82079   0.00000  Uiso   1.00
Br710  Br    0.77139   0.27753   0.67921   0.00000  Uiso   1.00
Br711  Br    0.77266   0.05461   0.67790   0.00000  Uiso   1.00
Br712  Br    0.89400   0.27872   0.82210   0.00000  Uiso   1.00
C713   C     0.75357   0.16642   0.75401   0.00000  Uiso   1.00
C714   C     0.70904   0.16600   0.75786   0.00000  Uiso   1.00
C715   C     0.85862   0.02416   0.77939   0.00000  Uiso   1.00
C716   C     0.80804   0.30917   0.72061   0.00000  Uiso   1.00
C717   C     0.80818   0.02366   0.72047   0.00000  Uiso   1.00
C718   C     0.85849   0.30967   0.77953   0.00000  Uiso   1.00
C719   C     0.83293   0.16669   0.66372   0.00000  Uiso   1.00
C720   C     0.83374   0.16664   0.83628   0.00000  Uiso   1.00
C721   C     0.87224   0.15981   0.90803   0.00000  Uiso   1.00
C722   C     0.79442   0.17353   0.59197   0.00000  Uiso   1.00
C723   C     0.83501   0.16647   0.88400   0.00000  Uiso   1.00
C724   C     0.91310   0.16691   0.74599   0.00000  Uiso   1.00
C725   C     0.83166   0.16686   0.61600   0.00000  Uiso   1.00
C726   C     0.79817   0.17363   0.90467   0.00000  Uiso   1.00
C727   C     0.86850   0.15970   0.59533   0.00000  Uiso   1.00
C728   C     0.79724   0.17584   0.95099   0.00000  Uiso   1.00
C729   C     0.86943   0.15749   0.54901   0.00000  Uiso   1.00
C730   C     0.83391   0.16630   0.97657   0.00000  Uiso   1.00
C731   C     0.83276   0.16703   0.52343   0.00000  Uiso   1.00
C732   C     0.87154   0.15573   0.95513   0.00000  Uiso   1.00
C733   C     0.79513   0.17760   0.54487   0.00000  Uiso   1.00
C734   C     0.76067   0.18851   0.97175   0.00000  Uiso   1.00
C735   C     0.76014   0.19166   0.51851   0.00000  Uiso   1.00
C736   C     0.90600   0.14482   0.52825   0.00000  Uiso   1.00
C737   C     0.91037   0.16324   0.88374   0.00000  Uiso   1.00
C738   C     0.75630   0.17009   0.61626   0.00000  Uiso   1.00
C739   C     0.70518   0.08189   0.76428   0.00000  Uiso   1.00
C740   C     0.96149   0.25144   0.73572   0.00000  Uiso   1.00
C741   C     0.95885   0.08506   0.72385   0.00000  Uiso   1.00
C742   C     0.70782   0.24828   0.77615   0.00000  Uiso   1.00
C743   C     0.90653   0.14167   0.98149   0.00000  Uiso   1.00
C744   C     0.68690   0.12507   0.75302   0.00000  Uiso   1.00
C745   C     0.97976   0.20827   0.74698   0.00000  Uiso   1.00
C746   C     0.97865   0.12607   0.74086   0.00000  Uiso   1.00
C747   C     0.68802   0.20727   0.75914   0.00000  Uiso   1.00
C748   C     0.95762   0.16733   0.74214   0.00000  Uiso   1.00
H749   H     0.77071   0.17890   0.88362   0.00000  Uiso   1.00
H750   H     0.89596   0.15443   0.61638   0.00000  Uiso   1.00
N751   N     0.83333   0.28573   0.75000   0.00000  Uiso   1.00
N752   N     0.83333   0.04760   0.75000   0.00000  Uiso   1.00
N753   N     0.94045   0.16638   0.86388   0.00000  Uiso   1.00
N754   N     0.72622   0.16695   0.63612   0.00000  Uiso   1.00
N755   N     0.71948   0.04750   0.77366   0.00000  Uiso   1.00
N756   N     0.94719   0.28583   0.72635   0.00000  Uiso   1.00
N757   N     0.94312   0.05256   0.71001   0.00000  Uiso   1.00
N758   N     0.72354   0.28077   0.78999   0.00000  Uiso   1.00
O759   O     0.77226   0.20487   0.75000   0.00000  Uiso   1.00
O760   O     0.89441   0.12846   0.75001   0.00000  Uiso   1.00
O761   O     0.89441   0.20487   0.75001   0.00000  Uiso   1.00
O762   O     0.77226   0.12846   0.75000   0.00000  Uiso   1.00
O763   O     0.83333   0.20489   0.68393   0.00000  Uiso   1.00
O764   O     0.83334   0.12844   0.81608   0.00000  Uiso   1.00
O765   O     0.83334   0.20489   0.81608   0.00000  Uiso   1.00
O766   O     0.83333   0.12844   0.68393   0.00000  Uiso   1.00
Zn767  Zn    0.83333   0.21771   0.75000   0.00000  Uiso   1.00
Zn768  Zn    0.83333   0.11563   0.75000   0.00000  Uiso   1.00
Br769  Br    0.04435   0.53662   0.93644   0.00000  Uiso   1.00
Br770  Br    0.28898   0.46337   0.56356   0.00000  Uiso   1.00
Br771  Br    0.04714   0.55622   0.54351   0.00000  Uiso   1.00
Br772  Br    0.28619   0.44377   0.95649   0.00000  Uiso   1.00
Br773  Br    0.22861   0.38914   0.82079   0.00000  Uiso   1.00
Br774  Br    0.10472   0.61086   0.67921   0.00000  Uiso   1.00
Br775  Br    0.10600   0.38795   0.67790   0.00000  Uiso   1.00
Br776  Br    0.22734   0.61205   0.82210   0.00000  Uiso   1.00
C777   C     0.08690   0.49976   0.75401   0.00000  Uiso   1.00
C778   C     0.04238   0.49934   0.75786   0.00000  Uiso   1.00
C779   C     0.19196   0.35750   0.77939   0.00000  Uiso   1.00
C780   C     0.14138   0.64250   0.72061   0.00000  Uiso   1.00
C781   C     0.14151   0.35699   0.72047   0.00000  Uiso   1.00
C782   C     0.19182   0.64300   0.77953   0.00000  Uiso   1.00
C783   C     0.16626   0.50002   0.66372   0.00000  Uiso   1.00
C784   C     0.16707   0.49998   0.83628   0.00000  Uiso   1.00
C785   C     0.20558   0.49314   0.90803   0.00000  Uiso   1.00
C786   C     0.12776   0.50686   0.59197   0.00000  Uiso   1.00
C787   C     0.16834   0.49980   0.88400   0.00000  Uiso   1.00
C788   C     0.24643   0.50024   0.74599   0.00000  Uiso   1.00
C789   C     0.16499   0.50020   0.61600   0.00000  Uiso   1.00
C790   C     0.13150   0.50696   0.90467   0.00000  Uiso   1.00
C791   C     0.20183   0.49303   0.59533   0.00000  Uiso   1.00
C792   C     0.13057   0.50918   0.95099   0.00000  Uiso   1.00
C793   C     0.20276   0.49082   0.54901   0.00000  Uiso   1.00
C794   C     0.16724   0.49963   0.97657   0.00000  Uiso   1.00
C795   C     0.16609   0.50037   0.52343   0.00000  Uiso   1.00
C796   C     0.20487   0.48906   0.95513   0.00000  Uiso   1.00
C797   C     0.12846   0.51094   0.54487   0.00000  Uiso   1.00
C798   C     0.09400   0.52184   0.97175   0.00000  Uiso   1.00
C799   C     0.09347   0.52499   0.51851   0.00000  Uiso   1.00
C800   C     0.23933   0.47816   0.52825   0.00000  Uiso   1.00
C801   C     0.24370   0.49658   0.88374   0.00000  Uiso   1.00
C802   C     0.08963   0.50342   0.61626   0.00000  Uiso   1.00
C803   C     0.03851   0.41523   0.76428   0.00000  Uiso   1.00
C804   C     0.29482   0.58477   0.73572   0.00000  Uiso   1.00
C805   C     0.29218   0.41839   0.72385   0.00000  Uiso   1.00
C806   C     0.04115   0.58161   0.77615   0.00000  Uiso   1.00
C807   C     0.23986   0.47501   0.98149   0.00000  Uiso   1.00
C808   C     0.02024   0.45840   0.75302   0.00000  Uiso   1.00
C809   C     0.31310   0.54160   0.74698   0.00000  Uiso   1.00
C810   C     0.31198   0.45940   0.74086   0.00000  Uiso   1.00
C811   C     0.02135   0.54060   0.75914   0.00000  Uiso   1.00
C812   C     0.29096   0.50066   0.74214   0.00000  Uiso   1.00
H813   H     0.10404   0.51223   0.88362   0.00000  Uiso   1.00
H814   H     0.22929   0.48777   0.61638   0.00000  Uiso   1.00
N815   N     0.16667   0.61907   0.75000   0.00000  Uiso   1.00
N816   N     0.16667   0.38093   0.75000   0.00000  Uiso   1.00
N817   N     0.27378   0.49971   0.86388   0.00000  Uiso   1.00
N818   N     0.05955   0.50029   0.63612   0.00000  Uiso   1.00
N819   N     0.05281   0.38084   0.77366   0.00000  Uiso   1.00
N820   N     0.28052   0.61916   0.72635   0.00000  Uiso   1.00
N821   N     0.27646   0.38589   0.71001   0.00000  Uiso   1.00
N822   N     0.05688   0.61411   0.78999   0.00000  Uiso   1.00
O823   O     0.10559   0.53821   0.75000   0.00000  Uiso   1.00
O824   O     0.22774   0.46179   0.75001   0.00000  Uiso   1.00
O825   O     0.22774   0.53821   0.75001   0.00000  Uiso   1.00
O826   O     0.10559   0.46179   0.75000   0.00000  Uiso   1.00
O827   O     0.16666   0.53823   0.68393   0.00000  Uiso   1.00
O828   O     0.16667   0.46177   0.81608   0.00000  Uiso   1.00
O829   O     0.16667   0.53823   0.81608   0.00000  Uiso   1.00
O830   O     0.16666   0.46177   0.68393   0.00000  Uiso   1.00
Zn831  Zn    0.16667   0.55104   0.75000   0.00000  Uiso   1.00
Zn832  Zn    0.16667   0.44896   0.75000   0.00000  Uiso   1.00
Br833  Br    0.37769   0.53662   0.93644   0.00000  Uiso   1.00
Br834  Br    0.62231   0.46337   0.56356   0.00000  Uiso   1.00
Br835  Br    0.38047   0.55622   0.54351   0.00000  Uiso   1.00
Br836  Br    0.61953   0.44377   0.95649   0.00000  Uiso   1.00
Br837  Br    0.56195   0.38914   0.82079   0.00000  Uiso   1.00
Br838  Br    0.43805   0.61086   0.67921   0.00000  Uiso   1.00
Br839  Br    0.43933   0.38795   0.67790   0.00000  Uiso   1.00
Br840  Br    0.56067   0.61205   0.82210   0.00000  Uiso   1.00
C841   C     0.42023   0.49976   0.75401   0.00000  Uiso   1.00
C842   C     0.37571   0.49934   0.75786   0.00000  Uiso   1.00
C843   C     0.52529   0.35750   0.77939   0.00000  Uiso   1.00
C844   C     0.47471   0.64250   0.72061   0.00000  Uiso   1.00
C845   C     0.47485   0.35699   0.72047   0.00000  Uiso   1.00
C846   C     0.52515   0.64300   0.77953   0.00000  Uiso   1.00
C847   C     0.49959   0.50002   0.66372   0.00000  Uiso   1.00
C848   C     0.50041   0.49998   0.83628   0.00000  Uiso   1.00
C849   C     0.53891   0.49314   0.90803   0.00000  Uiso   1.00
C850   C     0.46109   0.50686   0.59197   0.00000  Uiso   1.00
C851   C     0.50167   0.49980   0.88400   0.00000  Uiso   1.00
C852   C     0.57977   0.50024   0.74599   0.00000  Uiso   1.00
C853   C     0.49833   0.50020   0.61600   0.00000  Uiso   1.00
C854   C     0.46484   0.50696   0.90467   0.00000  Uiso   1.00
C855   C     0.53516   0.49303   0.59533   0.00000  Uiso   1.00
C856   C     0.46391   0.50918   0.95099   0.00000  Uiso   1.00
C857   C     0.53609   0.49082   0.54901   0.00000  Uiso   1.00
C858   C     0.50057   0.49963   0.97657   0.00000  Uiso   1.00
C859   C     0.49943   0.50037   0.52343   0.00000  Uiso   1.00
C860   C     0.53820   0.48906   0.95513   0.00000  Uiso   1.00
C861   C     0.46180   0.51094   0.54487   0.00000  Uiso   1.00
C862   C     0.42733   0.52184   0.97175   0.00000  Uiso   1.00
C863   C     0.42681   0.52499   0.51851   0.00000  Uiso   1.00
C864   C     0.57267   0.47816   0.52825   0.00000  Uiso   1.00
C865   C     0.57704   0.49658   0.88374   0.00000  Uiso   1.00
C866   C     0.42296   0.50342   0.61626   0.00000  Uiso   1.00
C867   C     0.37185   0.41523   0.76428   0.00000  Uiso   1.00
C868   C     0.62815   0.58477   0.73572   0.00000  Uiso   1.00
C869   C     0.62552   0.41839   0.72385   0.00000  Uiso   1.00
C870   C     0.37448   0.58161   0.77615   0.00000  Uiso   1.00
C871   C     0.57319   0.47501   0.98149   0.00000  Uiso   1.00
C872   C     0.35357   0.45840   0.75302   0.00000  Uiso   1.00
C873   C     0.64643   0.54160   0.74698   0.00000  Uiso   1.00
C874   C     0.64531   0.45940   0.74086   0.00000  Uiso   1.00
C875   C     0.35469   0.54060   0.75914   0.00000  Uiso   1.00
C876   C     0.62429   0.50066   0.74214   0.00000  Uiso   1.00
H877   H     0.43737   0.51223   0.88362   0.00000  Uiso   1.00
H878   H     0.56263   0.48777   0.61638   0.00000  Uiso   1.00
N879   N     0.50000   0.61907   0.75000   0.00000  Uiso   1.00
N880   N     0.50000   0.38093   0.75000   0.00000  Uiso   1.00
N881   N     0.60711   0.49971   0.86388   0.00000  Uiso   1.00
N882   N     0.39289   0.50029   0.63612   0.00000  Uiso   1.00
N883   N     0.38615   0.38084   0.77366   0.00000  Uiso   1.00
N884   N     0.61385   0.61916   0.72635   0.00000  Uiso   1.00
N885   N     0.60979   0.38589   0.71001   0.00000  Uiso   1.00
N886   N     0.39021   0.61411   0.78999   0.00000  Uiso   1.00
O887   O     0.43892   0.53821   0.75000   0.00000  Uiso   1.00
O888   O     0.56108   0.46179   0.75001   0.00000  Uiso   1.00
O889   O     0.56108   0.53821   0.75001   0.00000  Uiso   1.00
O890   O     0.43892   0.46179   0.75000   0.00000  Uiso   1.00
O891   O     0.49999   0.53823   0.68393   0.00000  Uiso   1.00
O892   O     0.50001   0.46177   0.81608   0.00000  Uiso   1.00
O893   O     0.50001   0.53823   0.81608   0.00000  Uiso   1.00
O894   O     0.49999   0.46177   0.68393   0.00000  Uiso   1.00
Zn895  Zn    0.50000   0.55104   0.75000   0.00000  Uiso   1.00
Zn896  Zn    0.50000   0.44896   0.75000   0.00000  Uiso   1.00
Br897  Br    0.71102   0.53662   0.93644   0.00000  Uiso   1.00
Br898  Br    0.95565   0.46337   0.56356   0.00000  Uiso   1.00
Br899  Br    0.71381   0.55622   0.54351   0.00000  Uiso   1.00
Br900  Br    0.95286   0.44377   0.95649   0.00000  Uiso   1.00
Br901  Br    0.89528   0.38914   0.82079   0.00000  Uiso   1.00
Br902  Br    0.77139   0.61086   0.67921   0.00000  Uiso   1.00
Br903  Br    0.77266   0.38795   0.67790   0.00000  Uiso   1.00
Br904  Br    0.89400   0.61205   0.82210   0.00000  Uiso   1.00
C905   C     0.75357   0.49976   0.75401   0.00000  Uiso   1.00
C906   C     0.70904   0.49934   0.75786   0.00000  Uiso   1.00
C907   C     0.85862   0.35750   0.77939   0.00000  Uiso   1.00
C908   C     0.80804   0.64250   0.72061   0.00000  Uiso   1.00
C909   C     0.80818   0.35699   0.72047   0.00000  Uiso   1.00
C910   C     0.85849   0.64300   0.77953   0.00000  Uiso   1.00
C911   C     0.83293   0.50002   0.66372   0.00000  Uiso   1.00
C912   C     0.83374   0.49998   0.83628   0.00000  Uiso   1.00
C913   C     0.87224   0.49314   0.90803   0.00000  Uiso   1.00
C914   C     0.79442   0.50686   0.59197   0.00000  Uiso   1.00
C915   C     0.83501   0.49980   0.88400   0.00000  Uiso   1.00
C916   C     0.91310   0.50024   0.74599   0.00000  Uiso   1.00
C917   C     0.83166   0.50020   0.61600   0.00000  Uiso   1.00
C918   C     0.79817   0.50696   0.90467   0.00000  Uiso   1.00
C919   C     0.86850   0.49303   0.59533   0.00000  Uiso   1.00
C920   C     0.79724   0.50918   0.95099   0.00000  Uiso   1.00
C921   C     0.86943   0.49082   0.54901   0.00000  Uiso   1.00
C922   C     0.83391   0.49963   0.97657   0.00000  Uiso   1.00
C923   C     0.83276   0.50037   0.52343   0.00000  Uiso   1.00
C924   C     0.87154   0.48906   0.95513   0.00000  Uiso   1.00
C925   C     0.79513   0.51094   0.54487   0.00000  Uiso   1.00
C926   C     0.76067   0.52184   0.97175   0.00000  Uiso   1.00
C927   C     0.76014   0.52499   0.51851   0.00000  Uiso   1.00
C928   C     0.90600   0.47816   0.52825   0.00000  Uiso   1.00
C929   C     0.91037   0.49658   0.88374   0.00000  Uiso   1.00
C930   C     0.75630   0.50342   0.61626   0.00000  Uiso   1.00
C931   C     0.70518   0.41523   0.76428   0.00000  Uiso   1.00
C932   C     0.96149   0.58477   0.73572   0.00000  Uiso   1.00
C933   C     0.95885   0.41839   0.72385   0.00000  Uiso   1.00
C934   C     0.70782   0.58161   0.77615   0.00000  Uiso   1.00
C935   C     0.90653   0.47501   0.98149   0.00000  Uiso   1.00
C936   C     0.68690   0.45840   0.75302   0.00000  Uiso   1.00
C937   C     0.97976   0.54160   0.74698   0.00000  Uiso   1.00
C938   C     0.97865   0.45940   0.74086   0.00000  Uiso   1.00
C939   C     0.68802   0.54060   0.75914   0.00000  Uiso   1.00
C940   C     0.95762   0.50066   0.74214   0.00000  Uiso   1.00
H941   H     0.77071   0.51223   0.88362   0.00000  Uiso   1.00
H942   H     0.89596   0.48777   0.61638   0.00000  Uiso   1.00
N943   N     0.83333   0.61907   0.75000   0.00000  Uiso   1.00
N944   N     0.83333   0.38093   0.75000   0.00000  Uiso   1.00
N945   N     0.94045   0.49971   0.86388   0.00000  Uiso   1.00
N946   N     0.72622   0.50029   0.63612   0.00000  Uiso   1.00
N947   N     0.71948   0.38084   0.77366   0.00000  Uiso   1.00
N948   N     0.94719   0.61916   0.72635   0.00000  Uiso   1.00
N949   N     0.94312   0.38589   0.71001   0.00000  Uiso   1.00
N950   N     0.72354   0.61411   0.78999   0.00000  Uiso   1.00
O951   O     0.77226   0.53821   0.75000   0.00000  Uiso   1.00
O952   O     0.89441   0.46179   0.75001   0.00000  Uiso   1.00
O953   O     0.89441   0.53821   0.75001   0.00000  Uiso   1.00
O954   O     0.77226   0.46179   0.75000   0.00000  Uiso   1.00
O955   O     0.83333   0.53823   0.68393   0.00000  Uiso   1.00
O956   O     0.83334   0.46177   0.81608   0.00000  Uiso   1.00
O957   O     0.83334   0.53823   0.81608   0.00000  Uiso   1.00
O958   O     0.83333   0.46177   0.68393   0.00000  Uiso   1.00
Zn959  Zn    0.83333   0.55104   0.75000   0.00000  Uiso   1.00
Zn960  Zn    0.83333   0.44896   0.75000   0.00000  Uiso   1.00
Br961  Br    0.04435   0.86995   0.93644   0.00000  Uiso   1.00
Br962  Br    0.28898   0.79671   0.56356   0.00000  Uiso   1.00
Br963  Br    0.04714   0.88956   0.54351   0.00000  Uiso   1.00
Br964  Br    0.28619   0.77711   0.95649   0.00000  Uiso   1.00
Br965  Br    0.22861   0.72247   0.82079   0.00000  Uiso   1.00
Br966  Br    0.10472   0.94419   0.67921   0.00000  Uiso   1.00
Br967  Br    0.10600   0.72128   0.67790   0.00000  Uiso   1.00
Br968  Br    0.22734   0.94539   0.82210   0.00000  Uiso   1.00
C969   C     0.08690   0.83309   0.75401   0.00000  Uiso   1.00
C970   C     0.04238   0.83267   0.75786   0.00000  Uiso   1.00
C971   C     0.19196   0.69083   0.77939   0.00000  Uiso   1.00
C972   C     0.14138   0.97584   0.72061   0.00000  Uiso   1.00
C973   C     0.14151   0.69033   0.72047   0.00000  Uiso   1.00
C974   C     0.19182   0.97634   0.77953   0.00000  Uiso   1.00
C975   C     0.16626   0.83336   0.66372   0.00000  Uiso   1.00
C976   C     0.16707   0.83331   0.83628   0.00000  Uiso   1.00
C977   C     0.20558   0.82647   0.90803   0.00000  Uiso   1.00
C978   C     0.12776   0.84019   0.59197   0.00000  Uiso   1.00
C979   C     0.16834   0.83313   0.88400   0.00000  Uiso   1.00
C980   C     0.24643   0.83358   0.74599   0.00000  Uiso   1.00
C981   C     0.16499   0.83353   0.61600   0.00000  Uiso   1.00
C982   C     0.13150   0.84030   0.90467   0.00000  Uiso   1.00
C983   C     0.20183   0.82637   0.59533   0.00000  Uiso   1.00
C984   C     0.13057   0.84251   0.95099   0.00000  Uiso   1.00
C985   C     0.20276   0.82415   0.54901   0.00000  Uiso   1.00
C986   C     0.16724   0.83297   0.97657   0.00000  Uiso   1.00
C987   C     0.16609   0.83370   0.52343   0.00000  Uiso   1.00
C988   C     0.20487   0.82240   0.95513   0.00000  Uiso   1.00
C989   C     0.12846   0.84427   0.54487   0.00000  Uiso   1.00
C990   C     0.09400   0.85517   0.97175   0.00000  Uiso   1.00
C991   C     0.09347   0.85832   0.51851   0.00000  Uiso   1.00
C992   C     0.23933   0.81149   0.52825   0.00000  Uiso   1.00
C993   C     0.24370   0.82991   0.88374   0.00000  Uiso   1.00
C994   C     0.08963   0.83675   0.61626   0.00000  Uiso   1.00
C995   C     0.03851   0.74856   0.76428   0.00000  Uiso   1.00
C996   C     0.29482   0.91811   0.73572   0.00000  Uiso   1.00
C997   C     0.29218   0.75172   0.72385   0.00000  Uiso   1.00
C998   C     0.04115   0.91494   0.77615   0.00000  Uiso   1.00
C999   C     0.23986   0.80834   0.98149   0.00000  Uiso   1.00
C1000  C     0.02024   0.79173   0.75302   0.00000  Uiso   1.00
C1001  C     0.31310   0.87493   0.74698   0.00000  Uiso   1.00
C1002  C     0.31198   0.79273   0.74086   0.00000  Uiso   1.00
C1003  C     0.02135   0.87393   0.75914   0.00000  Uiso   1.00
C1004  C     0.29096   0.83400   0.74214   0.00000  Uiso   1.00
H1005  H     0.10404   0.84557   0.88362   0.00000  Uiso   1.00
H1006  H     0.22929   0.82110   0.61638   0.00000  Uiso   1.00
N1007  N     0.16667   0.95240   0.75000   0.00000  Uiso   1.00
N1008  N     0.16667   0.71427   0.75000   0.00000  Uiso   1.00
N1009  N     0.27378   0.83305   0.86388   0.00000  Uiso   1.00
N1010  N     0.05955   0.83362   0.63612   0.00000  Uiso   1.00
N1011  N     0.05281   0.71417   0.77366   0.00000  Uiso   1.00
N1012  N     0.28052   0.95250   0.72635   0.00000  Uiso   1.00
N1013  N     0.27646   0.71923   0.71001   0.00000  Uiso   1.00
N1014  N     0.05688   0.94744   0.78999   0.00000  Uiso   1.00
O1015  O     0.10559   0.87154   0.75000   0.00000  Uiso   1.00
O1016  O     0.22774   0.79513   0.75001   0.00000  Uiso   1.00
O1017  O     0.22774   0.87154   0.75001   0.00000  Uiso   1.00
O1018  O     0.10559   0.79513   0.75000   0.00000  Uiso   1.00
O1019  O     0.16666   0.87156   0.68393   0.00000  Uiso   1.00
O1020  O     0.16667   0.79511   0.81608   0.00000  Uiso   1.00
O1021  O     0.16667   0.87156   0.81608   0.00000  Uiso   1.00
O1022  O     0.16666   0.79511   0.68393   0.00000  Uiso   1.00
Zn1023 Zn    0.16667   0.88437   0.75000   0.00000  Uiso   1.00
Zn1024 Zn    0.16667   0.78229   0.75000   0.00000  Uiso   1.00
Br1025 Br    0.37769   0.86995   0.93644   0.00000  Uiso   1.00
Br1026 Br    0.62231   0.79671   0.56356   0.00000  Uiso   1.00
Br1027 Br    0.38047   0.88956   0.54351   0.00000  Uiso   1.00
Br1028 Br    0.61953   0.77711   0.95649   0.00000  Uiso   1.00
Br1029 Br    0.56195   0.72247   0.82079   0.00000  Uiso   1.00
Br1030 Br    0.43805   0.94419   0.67921   0.00000  Uiso   1.00
Br1031 Br    0.43933   0.72128   0.67790   0.00000  Uiso   1.00
Br1032 Br    0.56067   0.94539   0.82210   0.00000  Uiso   1.00
C1033  C     0.42023   0.83309   0.75401   0.00000  Uiso   1.00
C1034  C     0.37571   0.83267   0.75786   0.00000  Uiso   1.00
C1035  C     0.52529   0.69083   0.77939   0.00000  Uiso   1.00
C1036  C     0.47471   0.97584   0.72061   0.00000  Uiso   1.00
C1037  C     0.47485   0.69033   0.72047   0.00000  Uiso   1.00
C1038  C     0.52515   0.97634   0.77953   0.00000  Uiso   1.00
C1039  C     0.49959   0.83336   0.66372   0.00000  Uiso   1.00
C1040  C     0.50041   0.83331   0.83628   0.00000  Uiso   1.00
C1041  C     0.53891   0.82647   0.90803   0.00000  Uiso   1.00
C1042  C     0.46109   0.84019   0.59197   0.00000  Uiso   1.00
C1043  C     0.50167   0.83313   0.88400   0.00000  Uiso   1.00
C1044  C     0.57977   0.83358   0.74599   0.00000  Uiso   1.00
C1045  C     0.49833   0.83353   0.61600   0.00000  Uiso   1.00
C1046  C     0.46484   0.84030   0.90467   0.00000  Uiso   1.00
C1047  C     0.53516   0.82637   0.59533   0.00000  Uiso   1.00
C1048  C     0.46391   0.84251   0.95099   0.00000  Uiso   1.00
C1049  C     0.53609   0.82415   0.54901   0.00000  Uiso   1.00
C1050  C     0.50057   0.83297   0.97657   0.00000  Uiso   1.00
C1051  C     0.49943   0.83370   0.52343   0.00000  Uiso   1.00
C1052  C     0.53820   0.82240   0.95513   0.00000  Uiso   1.00
C1053  C     0.46180   0.84427   0.54487   0.00000  Uiso   1.00
C1054  C     0.42733   0.85517   0.97175   0.00000  Uiso   1.00
C1055  C     0.42681   0.85832   0.51851   0.00000  Uiso   1.00
C1056  C     0.57267   0.81149   0.52825   0.00000  Uiso   1.00
C1057  C     0.57704   0.82991   0.88374   0.00000  Uiso   1.00
C1058  C     0.42296   0.83675   0.61626   0.00000  Uiso   1.00
C1059  C     0.37185   0.74856   0.76428   0.00000  Uiso   1.00
C1060  C     0.62815   0.91811   0.73572   0.00000  Uiso   1.00
C1061  C     0.62552   0.75172   0.72385   0.00000  Uiso   1.00
C1062  C     0.37448   0.91494   0.77615   0.00000  Uiso   1.00
C1063  C     0.57319   0.80834   0.98149   0.00000  Uiso   1.00
C1064  C     0.35357   0.79173   0.75302   0.00000  Uiso   1.00
C1065  C     0.64643   0.87493   0.74698   0.00000  Uiso   1.00
C1066  C     0.64531   0.79273   0.74086   0.00000  Uiso   1.00
C1067  C     0.35469   0.87393   0.75914   0.00000  Uiso   1.00
C1068  C     0.62429   0.83400   0.74214   0.00000  Uiso   1.00
H1069  H     0.43737   0.84557   0.88362   0.00000  Uiso   1.00
H1070  H     0.56263   0.82110   0.61638   0.00000  Uiso   1.00
N1071  N     0.50000   0.95240   0.75000   0.00000  Uiso   1.00
N1072  N     0.50000   0.71427   0.75000   0.00000  Uiso   1.00
N1073  N     0.60711   0.83305   0.86388   0.00000  Uiso   1.00
N1074  N     0.39289   0.83362   0.63612   0.00000  Uiso   1.00
N1075  N     0.38615   0.71417   0.77366   0.00000  Uiso   1.00
N1076  N     0.61385   0.95250   0.72635   0.00000  Uiso   1.00
N1077  N     0.60979   0.71923   0.71001   0.00000  Uiso   1.00
N1078  N     0.39021   0.94744   0.78999   0.00000  Uiso   1.00
O1079  O     0.43892   0.87154   0.75000   0.00000  Uiso   1.00
O1080  O     0.56108   0.79513   0.75001   0.00000  Uiso   1.00
O1081  O     0.56108   0.87154   0.75001   0.00000  Uiso   1.00
O1082  O     0.43892   0.79513   0.75000   0.00000  Uiso   1.00
O1083  O     0.49999   0.87156   0.68393   0.00000  Uiso   1.00
O1084  O     0.50001   0.79511   0.81608   0.00000  Uiso   1.00
O1085  O     0.50001   0.87156   0.81608   0.00000  Uiso   1.00
O1086  O     0.49999   0.79511   0.68393   0.00000  Uiso   1.00
Zn1087 Zn    0.50000   0.88437   0.75000   0.00000  Uiso   1.00
Zn1088 Zn    0.50000   0.78229   0.75000   0.00000  Uiso   1.00
Br1089 Br    0.71102   0.86995   0.93644   0.00000  Uiso   1.00
Br1090 Br    0.95565   0.79671   0.56356   0.00000  Uiso   1.00
Br1091 Br    0.71381   0.88956   0.54351   0.00000  Uiso   1.00
Br1092 Br    0.95286   0.77711   0.95649   0.00000  Uiso   1.00
Br1093 Br    0.89528   0.72247   0.82079   0.00000  Uiso   1.00
Br1094 Br    0.77139   0.94419   0.67921   0.00000  Uiso   1.00
Br1095 Br    0.77266   0.72128   0.67790   0.00000  Uiso   1.00
Br1096 Br    0.89400   0.94539   0.82210   0.00000  Uiso   1.00
C1097  C     0.75357   0.83309   0.75401   0.00000  Uiso   1.00
C1098  C     0.70904   0.83267   0.75786   0.00000  Uiso   1.00
C1099  C     0.85862   0.69083   0.77939   0.00000  Uiso   1.00
C1100  C     0.80804   0.97584   0.72061   0.00000  Uiso   1.00
C1101  C     0.80818   0.69033   0.72047   0.00000  Uiso   1.00
C1102  C     0.85849   0.97634   0.77953   0.00000  Uiso   1.00
C1103  C     0.83293   0.83336   0.66372   0.00000  Uiso   1.00
C1104  C     0.83374   0.83331   0.83628   0.00000  Uiso   1.00
C1105  C     0.87224   0.82647   0.90803   0.00000  Uiso   1.00
C1106  C     0.79442   0.84019   0.59197   0.00000  Uiso   1.00
C1107  C     0.83501   0.83313   0.88400   0.00000  Uiso   1.00
C1108  C     0.91310   0.83358   0.74599   0.00000  Uiso   1.00
C1109  C     0.83166   0.83353   0.61600   0.00000  Uiso   1.00
C1110  C     0.79817   0.84030   0.90467   0.00000  Uiso   1.00
C1111  C     0.86850   0.82637   0.59533   0.00000  Uiso   1.00
C1112  C     0.79724   0.84251   0.95099   0.00000  Uiso   1.00
C1113  C     0.86943   0.82415   0.54901   0.00000  Uiso   1.00
C1114  C     0.83391   0.83297   0.97657   0.00000  Uiso   1.00
C1115  C     0.83276   0.83370   0.52343   0.00000  Uiso   1.00
C1116  C     0.87154   0.82240   0.95513   0.00000  Uiso   1.00
C1117  C     0.79513   0.84427   0.54487   0.00000  Uiso   1.00
C1118  C     0.76067   0.85517   0.97175   0.00000  Uiso   1.00
C1119  C     0.76014   0.85832   0.51851   0.00000  Uiso   1.00
C1120  C     0.90600   0.81149   0.52825   0.00000  Uiso   1.00
C1121  C     0.91037   0.82991   0.88374   0.00000  Uiso   1.00
C1122  C     0.75630   0.83675   0.61626   0.00000  Uiso   1.00
C1123  C     0.70518   0.74856   0.76428   0.00000  Uiso   1.00
C1124  C     0.96149   0.91811   0.73572   0.00000  Uiso   1.00
C1125  C     0.95885   0.75172   0.72385   0.00000  Uiso   1.00
C1126  C     0.70782   0.91494   0.77615   0.00000  Uiso   1.00
C1127  C     0.90653   0.80834   0.98149   0.00000  Uiso   1.00
C1128  C     0.68690   0.79173   0.75302   0.00000  Uiso   1.00
C1129  C     0.97976   0.87493   0.74698   0.00000  Uiso   1.00
C1130  C     0.97865   0.79273   0.74086   0.00000  Uiso   1.00
C1131  C     0.68802   0.87393   0.75914   0.00000  Uiso   1.00
C1132  C     0.95762   0.83400   0.74214   0.00000  Uiso   1.00
H1133  H     0.77071   0.84557   0.88362   0.00000  Uiso   1.00
H1134  H     0.89596   0.82110   0.61638   0.00000  Uiso   1.00
N1135  N     0.83333   0.95240   0.75000   0.00000  Uiso   1.00
N1136  N     0.83333   0.71427   0.75000   0.00000  Uiso   1.00
N1137  N     0.94045   0.83305   0.86388   0.00000  Uiso   1.00
N1138  N     0.72622   0.83362   0.63612   0.00000  Uiso   1.00
N1139  N     0.71948   0.71417   0.77366   0.00000  Uiso   1.00
N1140  N     0.94719   0.95250   0.72635   0.00000  Uiso   1.00
N1141  N     0.94312   0.71923   0.71001   0.00000  Uiso   1.00
N1142  N     0.72354   0.94744   0.78999   0.00000  Uiso   1.00
O1143  O     0.77226   0.87154   0.75000   0.00000  Uiso   1.00
O1144  O     0.89441   0.79513   0.75001   0.00000  Uiso   1.00
O1145  O     0.89441   0.87154   0.75001   0.00000  Uiso   1.00
O1146  O     0.77226   0.79513   0.75000   0.00000  Uiso   1.00
O1147  O     0.83333   0.87156   0.68393   0.00000  Uiso   1.00
O1148  O     0.83334   0.79511   0.81608   0.00000  Uiso   1.00
O1149  O     0.83334   0.87156   0.81608   0.00000  Uiso   1.00
O1150  O     0.83333   0.79511   0.68393   0.00000  Uiso   1.00
Zn1151 Zn    0.83333   0.88437   0.75000   0.00000  Uiso   1.00
Zn1152 Zn    0.83333   0.78229   0.75000   0.00000  Uiso   1.00
loop_
_geom_bond_atom_site_label_1
_geom_bond_atom_site_label_2
_geom_bond_distance
_geom_bond_site_symmetry_2
_ccdc_geom_bond_type
Br1    C30     1.943   .     S
Br2    C32     1.943   .     S
Br3    C31     1.941   .     S
Br4    C39     1.941   .     S
Br5    C11     1.921   .     S
Br6    C12     1.921   .     S
Br7    C13     1.922   .     S
Br8    C14     1.922   .     S
C9     O55     1.295   .     A
C9     C10     1.447   .     S
C9     O58     1.294   .     A
C10    C40     1.411   .     A
C10    C43     1.410   .     A
C11    N48     1.373   .     A
C11    C398    1.423   1_545 S
C12    N47     1.373   .     A
C12    C205    1.423   .     S
C13    N48     1.372   .     A
C13    C396    1.423   1_545 S
C14    N47     1.372   .     A
C14    C203    1.423   .     S
C15    C21     1.422   .     S
C15    O62     1.287   .     A
C15    O59     1.286   .     A
C16    C19     1.422   .     S
C16    O61     1.287   .     A
C16    O60     1.286   .     A
C17    C19     1.395   .     A
C17    C28     1.410   .     A
C17    C33     1.453   .     S
C18    C21     1.395   .     A
C18    C34     1.453   .     S
C18    C29     1.410   .     A
C19    C22     1.378   .     A
C20    O56     1.295   .     A
C20    C44     1.447   .     S
C20    O57     1.294   .     A
C21    C23     1.378   .     A
C22    C24     1.384   .     A
C22    H45     1.082   .     S
C23    H46     1.082   .     S
C23    C25     1.384   .     A
C24    C26     1.418   .     A
C24    C30     1.408   .     A
C25    C27     1.418   .     A
C25    C32     1.408   .     A
C26    C28     1.431   .     A
C26    C603    1.399   .     S
C27    C29     1.431   .     A
C27    C602    1.399   1_554 S
C28    C39     1.421   .     A
C29    C31     1.421   .     A
C30    C607    1.398   .     S
C31    C606    1.398   1_554 S
C32    C615    1.398   1_554 S
C33    N49     1.158   .     T
C34    N50     1.158   .     T
C35    C40     1.453   .     S
C35    N51     1.157   .     T
C36    C41     1.453   .     S
C36    N52     1.157   .     T
C37    N53     1.157   .     T
C37    C42     1.455   .     S
C38    C43     1.455   .     S
C38    N54     1.157   .     T
C39    C608    1.398   .     S
C40    C170    1.381   1_455 S
C41    C44     1.411   .     A
C41    C107    1.381   .     S
C42    C44     1.410   .     A
C42    C104    1.381   .     S
C43    C169    1.381   1_455 S
N47    Zn63    2.024   .     S
N48    Zn64    2.024   .     S
O55    Zn63    2.007   .     S
O56    Zn64    2.007   .     S
O57    Zn63    2.014   .     S
O58    Zn64    2.014   .     S
O59    Zn63    2.006   .     S
O60    Zn64    2.006   .     S
O61    Zn63    2.006   .     S
O62    Zn64    2.006   .     S
Br65   C94     1.943   .     S
Br66   C96     1.943   .     S
Br67   C95     1.941   .     S
Br68   C103    1.941   .     S
Br69   C75     1.921   .     S
Br70   C76     1.921   .     S
Br71   C77     1.922   .     S
Br72   C78     1.922   .     S
C73    O119    1.295   .     A
C73    C74     1.447   .     S
C73    O122    1.294   .     A
C74    C104    1.411   .     A
C74    C107    1.410   .     A
C75    N112    1.373   .     A
C75    C462    1.423   1_545 S
C76    N111    1.373   .     A
C76    C269    1.423   .     S
C77    N112    1.372   .     A
C77    C460    1.423   1_545 S
C78    N111    1.372   .     A
C78    C267    1.423   .     S
C79    C85     1.422   .     S
C79    O126    1.287   .     A
C79    O123    1.286   .     A
C80    C83     1.422   .     S
C80    O125    1.287   .     A
C80    O124    1.286   .     A
C81    C83     1.395   .     A
C81    C92     1.410   .     A
C81    C97     1.453   .     S
C82    C85     1.395   .     A
C82    C98     1.453   .     S
C82    C93     1.410   .     A
C83    C86     1.378   .     A
C84    O120    1.295   .     A
C84    C108    1.447   .     S
C84    O121    1.294   .     A
C85    C87     1.378   .     A
C86    C88     1.384   .     A
C86    H109    1.082   .     S
C87    H110    1.082   .     S
C87    C89     1.384   .     A
C88    C90     1.418   .     A
C88    C94     1.408   .     A
C89    C91     1.418   .     A
C89    C96     1.408   .     A
C90    C92     1.431   .     A
C90    C667    1.399   .     S
C91    C93     1.431   .     A
C91    C666    1.399   1_554 S
C92    C103    1.421   .     A
C93    C95     1.421   .     A
C94    C671    1.398   .     S
C95    C670    1.398   1_554 S
C96    C679    1.398   1_554 S
C97    N113    1.158   .     T
C98    N114    1.158   .     T
C99    C104    1.453   .     S
C99    N115    1.157   .     T
C100   C105    1.453   .     S
C100   N116    1.157   .     T
C101   N117    1.157   .     T
C101   C106    1.455   .     S
C102   C107    1.455   .     S
C102   N118    1.157   .     T
C103   C672    1.398   .     S
C105   C108    1.411   .     A
C105   C171    1.381   .     S
C106   C108    1.410   .     A
C106   C168    1.381   .     S
N111   Zn127   2.024   .     S
N112   Zn128   2.024   .     S
O119   Zn127   2.007   .     S
O120   Zn128   2.007   .     S
O121   Zn127   2.014   .     S
O122   Zn128   2.014   .     S
O123   Zn127   2.006   .     S
O124   Zn128   2.006   .     S
O125   Zn127   2.006   .     S
O126   Zn128   2.006   .     S
Br129  C158    1.943   .     S
Br130  C160    1.943   .     S
Br131  C159    1.941   .     S
Br132  C167    1.941   .     S
Br133  C139    1.921   .     S
Br134  C140    1.921   .     S
Br135  C141    1.922   .     S
Br136  C142    1.922   .     S
C137   O183    1.295   .     A
C137   C138    1.447   .     S
C137   O186    1.294   .     A
C138   C168    1.411   .     A
C138   C171    1.410   .     A
C139   N176    1.373   .     A
C139   C526    1.423   1_545 S
C140   N175    1.373   .     A
C140   C333    1.423   .     S
C141   N176    1.372   .     A
C141   C524    1.423   1_545 S
C142   N175    1.372   .     A
C142   C331    1.423   .     S
C143   C149    1.422   .     S
C143   O190    1.287   .     A
C143   O187    1.286   .     A
C144   C147    1.422   .     S
C144   O189    1.287   .     A
C144   O188    1.286   .     A
C145   C147    1.395   .     A
C145   C156    1.410   .     A
C145   C161    1.453   .     S
C146   C149    1.395   .     A
C146   C162    1.453   .     S
C146   C157    1.410   .     A
C147   C150    1.378   .     A
C148   O184    1.295   .     A
C148   C172    1.447   .     S
C148   O185    1.294   .     A
C149   C151    1.378   .     A
C150   C152    1.384   .     A
C150   H173    1.082   .     S
C151   H174    1.082   .     S
C151   C153    1.384   .     A
C152   C154    1.418   .     A
C152   C158    1.408   .     A
C153   C155    1.418   .     A
C153   C160    1.408   .     A
C154   C156    1.431   .     A
C154   C731    1.399   .     S
C155   C157    1.431   .     A
C155   C730    1.399   1_554 S
C156   C167    1.421   .     A
C157   C159    1.421   .     A
C158   C735    1.398   .     S
C159   C734    1.398   1_554 S
C160   C743    1.398   1_554 S
C161   N177    1.158   .     T
C162   N178    1.158   .     T
C163   C168    1.453   .     S
C163   N179    1.157   .     T
C164   C169    1.453   .     S
C164   N180    1.157   .     T
C165   N181    1.157   .     T
C165   C170    1.455   .     S
C166   C171    1.455   .     S
C166   N182    1.157   .     T
C167   C736    1.398   .     S
C169   C172    1.411   .     A
C169   C43     1.381   1_655 S
C170   C172    1.410   .     A
C170   C40     1.381   1_655 S
N175   Zn191   2.024   .     S
N176   Zn192   2.024   .     S
O183   Zn191   2.007   .     S
O184   Zn192   2.007   .     S
O185   Zn191   2.014   .     S
O186   Zn192   2.014   .     S
O187   Zn191   2.006   .     S
O188   Zn192   2.006   .     S
O189   Zn191   2.006   .     S
O190   Zn192   2.006   .     S
Br193  C222    1.943   .     S
Br194  C224    1.943   .     S
Br195  C223    1.941   .     S
Br196  C231    1.941   .     S
Br197  C203    1.921   .     S
Br198  C204    1.921   .     S
Br199  C205    1.922   .     S
Br200  C206    1.922   .     S
C201   O247    1.295   .     A
C201   C202    1.447   .     S
C201   O250    1.294   .     A
C202   C232    1.411   .     A
C202   C235    1.410   .     A
C203   N240    1.373   .     A
C204   N239    1.373   .     A
C204   C397    1.423   .     S
C205   N240    1.372   .     A
C206   N239    1.372   .     A
C206   C395    1.423   .     S
C207   C213    1.422   .     S
C207   O254    1.287   .     A
C207   O251    1.286   .     A
C208   C211    1.422   .     S
C208   O253    1.287   .     A
C208   O252    1.286   .     A
C209   C211    1.395   .     A
C209   C220    1.410   .     A
C209   C225    1.453   .     S
C210   C213    1.395   .     A
C210   C226    1.453   .     S
C210   C221    1.410   .     A
C211   C214    1.378   .     A
C212   O248    1.295   .     A
C212   C236    1.447   .     S
C212   O249    1.294   .     A
C213   C215    1.378   .     A
C214   C216    1.384   .     A
C214   H237    1.082   .     S
C215   H238    1.082   .     S
C215   C217    1.384   .     A
C216   C218    1.418   .     A
C216   C222    1.408   .     A
C217   C219    1.418   .     A
C217   C224    1.408   .     A
C218   C220    1.431   .     A
C218   C795    1.399   .     S
C219   C221    1.431   .     A
C219   C794    1.399   1_554 S
C220   C231    1.421   .     A
C221   C223    1.421   .     A
C222   C799    1.398   .     S
C223   C798    1.398   1_554 S
C224   C807    1.398   1_554 S
C225   N241    1.158   .     T
C226   N242    1.158   .     T
C227   C232    1.453   .     S
C227   N243    1.157   .     T
C228   C233    1.453   .     S
C228   N244    1.157   .     T
C229   N245    1.157   .     T
C229   C234    1.455   .     S
C230   C235    1.455   .     S
C230   N246    1.157   .     T
C231   C800    1.398   .     S
C232   C362    1.381   1_455 S
C233   C236    1.411   .     A
C233   C299    1.381   .     S
C234   C236    1.410   .     A
C234   C296    1.381   .     S
C235   C361    1.381   1_455 S
N239   Zn255   2.024   .     S
N240   Zn256   2.024   .     S
O247   Zn255   2.007   .     S
O248   Zn256   2.007   .     S
O249   Zn255   2.014   .     S
O250   Zn256   2.014   .     S
O251   Zn255   2.006   .     S
O252   Zn256   2.006   .     S
O253   Zn255   2.006   .     S
O254   Zn256   2.006   .     S
Br257  C286    1.943   .     S
Br258  C288    1.943   .     S
Br259  C287    1.941   .     S
Br260  C295    1.941   .     S
Br261  C267    1.921   .     S
Br262  C268    1.921   .     S
Br263  C269    1.922   .     S
Br264  C270    1.922   .     S
C265   O311    1.295   .     A
C265   C266    1.447   .     S
C265   O314    1.294   .     A
C266   C296    1.411   .     A
C266   C299    1.410   .     A
C267   N304    1.373   .     A
C268   N303    1.373   .     A
C268   C461    1.423   .     S
C269   N304    1.372   .     A
C270   N303    1.372   .     A
C270   C459    1.423   .     S
C271   C277    1.422   .     S
C271   O318    1.287   .     A
C271   O315    1.286   .     A
C272   C275    1.422   .     S
C272   O317    1.287   .     A
C272   O316    1.286   .     A
C273   C275    1.395   .     A
C273   C284    1.410   .     A
C273   C289    1.453   .     S
C274   C277    1.395   .     A
C274   C290    1.453   .     S
C274   C285    1.410   .     A
C275   C278    1.378   .     A
C276   O312    1.295   .     A
C276   C300    1.447   .     S
C276   O313    1.294   .     A
C277   C279    1.378   .     A
C278   C280    1.384   .     A
C278   H301    1.082   .     S
C279   H302    1.082   .     S
C279   C281    1.384   .     A
C280   C282    1.418   .     A
C280   C286    1.408   .     A
C281   C283    1.418   .     A
C281   C288    1.408   .     A
C282   C284    1.431   .     A
C282   C859    1.399   .     S
C283   C285    1.431   .     A
C283   C858    1.399   1_554 S
C284   C295    1.421   .     A
C285   C287    1.421   .     A
C286   C863    1.398   .     S
C287   C862    1.398   1_554 S
C288   C871    1.398   1_554 S
C289   N305    1.158   .     T
C290   N306    1.158   .     T
C291   C296    1.453   .     S
C291   N307    1.157   .     T
C292   C297    1.453   .     S
C292   N308    1.157   .     T
C293   N309    1.157   .     T
C293   C298    1.455   .     S
C294   C299    1.455   .     S
C294   N310    1.157   .     T
C295   C864    1.398   .     S
C297   C300    1.411   .     A
C297   C363    1.381   .     S
C298   C300    1.410   .     A
C298   C360    1.381   .     S
N303   Zn319   2.024   .     S
N304   Zn320   2.024   .     S
O311   Zn319   2.007   .     S
O312   Zn320   2.007   .     S
O313   Zn319   2.014   .     S
O314   Zn320   2.014   .     S
O315   Zn319   2.006   .     S
O316   Zn320   2.006   .     S
O317   Zn319   2.006   .     S
O318   Zn320   2.006   .     S
Br321  C350    1.943   .     S
Br322  C352    1.943   .     S
Br323  C351    1.941   .     S
Br324  C359    1.941   .     S
Br325  C331    1.921   .     S
Br326  C332    1.921   .     S
Br327  C333    1.922   .     S
Br328  C334    1.922   .     S
C329   O375    1.295   .     A
C329   C330    1.447   .     S
C329   O378    1.294   .     A
C330   C360    1.411   .     A
C330   C363    1.410   .     A
C331   N368    1.373   .     A
C332   N367    1.373   .     A
C332   C525    1.423   .     S
C333   N368    1.372   .     A
C334   N367    1.372   .     A
C334   C523    1.423   .     S
C335   C341    1.422   .     S
C335   O382    1.287   .     A
C335   O379    1.286   .     A
C336   C339    1.422   .     S
C336   O381    1.287   .     A
C336   O380    1.286   .     A
C337   C339    1.395   .     A
C337   C348    1.410   .     A
C337   C353    1.453   .     S
C338   C341    1.395   .     A
C338   C354    1.453   .     S
C338   C349    1.410   .     A
C339   C342    1.378   .     A
C340   O376    1.295   .     A
C340   C364    1.447   .     S
C340   O377    1.294   .     A
C341   C343    1.378   .     A
C342   C344    1.384   .     A
C342   H365    1.082   .     S
C343   H366    1.082   .     S
C343   C345    1.384   .     A
C344   C346    1.418   .     A
C344   C350    1.408   .     A
C345   C347    1.418   .     A
C345   C352    1.408   .     A
C346   C348    1.431   .     A
C346   C923    1.399   .     S
C347   C349    1.431   .     A
C347   C922    1.399   1_554 S
C348   C359    1.421   .     A
C349   C351    1.421   .     A
C350   C927    1.398   .     S
C351   C926    1.398   1_554 S
C352   C935    1.398   1_554 S
C353   N369    1.158   .     T
C354   N370    1.158   .     T
C355   C360    1.453   .     S
C355   N371    1.157   .     T
C356   C361    1.453   .     S
C356   N372    1.157   .     T
C357   N373    1.157   .     T
C357   C362    1.455   .     S
C358   C363    1.455   .     S
C358   N374    1.157   .     T
C359   C928    1.398   .     S
C361   C364    1.411   .     A
C361   C235    1.381   1_655 S
C362   C364    1.410   .     A
C362   C232    1.381   1_655 S
N367   Zn383   2.024   .     S
N368   Zn384   2.024   .     S
O375   Zn383   2.007   .     S
O376   Zn384   2.007   .     S
O377   Zn383   2.014   .     S
O378   Zn384   2.014   .     S
O379   Zn383   2.006   .     S
O380   Zn384   2.006   .     S
O381   Zn383   2.006   .     S
O382   Zn384   2.006   .     S
Br385  C414    1.943   .     S
Br386  C416    1.943   .     S
Br387  C415    1.941   .     S
Br388  C423    1.941   .     S
Br389  C395    1.921   .     S
Br390  C396    1.921   .     S
Br391  C397    1.922   .     S
Br392  C398    1.922   .     S
C393   O439    1.295   .     A
C393   C394    1.447   .     S
C393   O442    1.294   .     A
C394   C424    1.411   .     A
C394   C427    1.410   .     A
C395   N432    1.373   .     A
C396   N431    1.373   .     A
C396   C13     1.423   1_565 S
C397   N432    1.372   .     A
C398   N431    1.372   .     A
C398   C11     1.423   1_565 S
C399   C405    1.422   .     S
C399   O446    1.287   .     A
C399   O443    1.286   .     A
C400   C403    1.422   .     S
C400   O445    1.287   .     A
C400   O444    1.286   .     A
C401   C403    1.395   .     A
C401   C412    1.410   .     A
C401   C417    1.453   .     S
C402   C405    1.395   .     A
C402   C418    1.453   .     S
C402   C413    1.410   .     A
C403   C406    1.378   .     A
C404   O440    1.295   .     A
C404   C428    1.447   .     S
C404   O441    1.294   .     A
C405   C407    1.378   .     A
C406   C408    1.384   .     A
C406   H429    1.082   .     S
C407   H430    1.082   .     S
C407   C409    1.384   .     A
C408   C410    1.418   .     A
C408   C414    1.408   .     A
C409   C411    1.418   .     A
C409   C416    1.408   .     A
C410   C412    1.431   .     A
C410   C987    1.399   .     S
C411   C413    1.431   .     A
C411   C986    1.399   1_554 S
C412   C423    1.421   .     A
C413   C415    1.421   .     A
C414   C991    1.398   .     S
C415   C990    1.398   1_554 S
C416   C999    1.398   1_554 S
C417   N433    1.158   .     T
C418   N434    1.158   .     T
C419   C424    1.453   .     S
C419   N435    1.157   .     T
C420   C425    1.453   .     S
C420   N436    1.157   .     T
C421   N437    1.157   .     T
C421   C426    1.455   .     S
C422   C427    1.455   .     S
C422   N438    1.157   .     T
C423   C992    1.398   .     S
C424   C554    1.381   1_455 S
C425   C428    1.411   .     A
C425   C491    1.381   .     S
C426   C428    1.410   .     A
C426   C488    1.381   .     S
C427   C553    1.381   1_455 S
N431   Zn447   2.024   .     S
N432   Zn448   2.024   .     S
O439   Zn447   2.007   .     S
O440   Zn448   2.007   .     S
O441   Zn447   2.014   .     S
O442   Zn448   2.014   .     S
O443   Zn447   2.006   .     S
O444   Zn448   2.006   .     S
O445   Zn447   2.006   .     S
O446   Zn448   2.006   .     S
Br449  C478    1.943   .     S
Br450  C480    1.943   .     S
Br451  C479    1.941   .     S
Br452  C487    1.941   .     S
Br453  C459    1.921   .     S
Br454  C460    1.921   .     S
Br455  C461    1.922   .     S
Br456  C462    1.922   .     S
C457   O503    1.295   .     A
C457   C458    1.447   .     S
C457   O506    1.294   .     A
C458   C488    1.411   .     A
C458   C491    1.410   .     A
C459   N496    1.373   .     A
C460   N495    1.373   .     A
C460   C77     1.423   1_565 S
C461   N496    1.372   .     A
C462   N495    1.372   .     A
C462   C75     1.423   1_565 S
C463   C469    1.422   .     S
C463   O510    1.287   .     A
C463   O507    1.286   .     A
C464   C467    1.422   .     S
C464   O509    1.287   .     A
C464   O508    1.286   .     A
C465   C467    1.395   .     A
C465   C476    1.410   .     A
C465   C481    1.453   .     S
C466   C469    1.395   .     A
C466   C482    1.453   .     S
C466   C477    1.410   .     A
C467   C470    1.378   .     A
C468   O504    1.295   .     A
C468   C492    1.447   .     S
C468   O505    1.294   .     A
C469   C471    1.378   .     A
C470   C472    1.384   .     A
C470   H493    1.082   .     S
C471   H494    1.082   .     S
C471   C473    1.384   .     A
C472   C474    1.418   .     A
C472   C478    1.408   .     A
C473   C475    1.418   .     A
C473   C480    1.408   .     A
C474   C476    1.431   .     A
C474   C1051   1.399   .     S
C475   C477    1.431   .     A
C475   C1050   1.399   1_554 S
C476   C487    1.421   .     A
C477   C479    1.421   .     A
C478   C1055   1.398   .     S
C479   C1054   1.398   1_554 S
C480   C1063   1.398   1_554 S
C481   N497    1.158   .     T
C482   N498    1.158   .     T
C483   C488    1.453   .     S
C483   N499    1.157   .     T
C484   C489    1.453   .     S
C484   N500    1.157   .     T
C485   N501    1.157   .     T
C485   C490    1.455   .     S
C486   C491    1.455   .     S
C486   N502    1.157   .     T
C487   C1056   1.398   .     S
C489   C492    1.411   .     A
C489   C555    1.381   .     S
C490   C492    1.410   .     A
C490   C552    1.381   .     S
N495   Zn511   2.024   .     S
N496   Zn512   2.024   .     S
O503   Zn511   2.007   .     S
O504   Zn512   2.007   .     S
O505   Zn511   2.014   .     S
O506   Zn512   2.014   .     S
O507   Zn511   2.006   .     S
O508   Zn512   2.006   .     S
O509   Zn511   2.006   .     S
O510   Zn512   2.006   .     S
Br513  C542    1.943   .     S
Br514  C544    1.943   .     S
Br515  C543    1.941   .     S
Br516  C551    1.941   .     S
Br517  C523    1.921   .     S
Br518  C524    1.921   .     S
Br519  C525    1.922   .     S
Br520  C526    1.922   .     S
C521   O567    1.295   .     A
C521   C522    1.447   .     S
C521   O570    1.294   .     A
C522   C552    1.411   .     A
C522   C555    1.410   .     A
C523   N560    1.373   .     A
C524   N559    1.373   .     A
C524   C141    1.423   1_565 S
C525   N560    1.372   .     A
C526   N559    1.372   .     A
C526   C139    1.423   1_565 S
C527   C533    1.422   .     S
C527   O574    1.287   .     A
C527   O571    1.286   .     A
C528   C531    1.422   .     S
C528   O573    1.287   .     A
C528   O572    1.286   .     A
C529   C531    1.395   .     A
C529   C540    1.410   .     A
C529   C545    1.453   .     S
C530   C533    1.395   .     A
C530   C546    1.453   .     S
C530   C541    1.410   .     A
C531   C534    1.378   .     A
C532   O568    1.295   .     A
C532   C556    1.447   .     S
C532   O569    1.294   .     A
C533   C535    1.378   .     A
C534   C536    1.384   .     A
C534   H557    1.082   .     S
C535   H558    1.082   .     S
C535   C537    1.384   .     A
C536   C538    1.418   .     A
C536   C542    1.408   .     A
C537   C539    1.418   .     A
C537   C544    1.408   .     A
C538   C540    1.431   .     A
C538   C1115   1.399   .     S
C539   C541    1.431   .     A
C539   C1114   1.399   1_554 S
C540   C551    1.421   .     A
C541   C543    1.421   .     A
C542   C1119   1.398   .     S
C543   C1118   1.398   1_554 S
C544   C1127   1.398   1_554 S
C545   N561    1.158   .     T
C546   N562    1.158   .     T
C547   C552    1.453   .     S
C547   N563    1.157   .     T
C548   C553    1.453   .     S
C548   N564    1.157   .     T
C549   N565    1.157   .     T
C549   C554    1.455   .     S
C550   C555    1.455   .     S
C550   N566    1.157   .     T
C551   C1120   1.398   .     S
C553   C556    1.411   .     A
C553   C427    1.381   1_655 S
C554   C556    1.410   .     A
C554   C424    1.381   1_655 S
N559   Zn575   2.024   .     S
N560   Zn576   2.024   .     S
O567   Zn575   2.007   .     S
O568   Zn576   2.007   .     S
O569   Zn575   2.014   .     S
O570   Zn576   2.014   .     S
O571   Zn575   2.006   .     S
O572   Zn576   2.006   .     S
O573   Zn575   2.006   .     S
O574   Zn576   2.006   .     S
Br577  C606    1.943   .     S
Br578  C608    1.943   .     S
Br579  C607    1.941   .     S
Br580  C615    1.941   .     S
Br581  C587    1.921   .     S
Br582  C588    1.921   .     S
Br583  C589    1.922   .     S
Br584  C590    1.922   .     S
C585   O631    1.295   .     A
C585   C586    1.447   .     S
C585   O634    1.294   .     A
C586   C616    1.411   .     A
C586   C619    1.410   .     A
C587   N624    1.373   .     A
C587   C974    1.423   1_545 S
C588   N623    1.373   .     A
C588   C781    1.423   .     S
C589   N624    1.372   .     A
C589   C972    1.423   1_545 S
C590   N623    1.372   .     A
C590   C779    1.423   .     S
C591   C597    1.422   .     S
C591   O638    1.287   .     A
C591   O635    1.286   .     A
C592   C595    1.422   .     S
C592   O637    1.287   .     A
C592   O636    1.286   .     A
C593   C595    1.395   .     A
C593   C604    1.410   .     A
C593   C609    1.453   .     S
C594   C597    1.395   .     A
C594   C610    1.453   .     S
C594   C605    1.410   .     A
C595   C598    1.378   .     A
C596   O632    1.295   .     A
C596   C620    1.447   .     S
C596   O633    1.294   .     A
C597   C599    1.378   .     A
C598   C600    1.384   .     A
C598   H621    1.082   .     S
C599   H622    1.082   .     S
C599   C601    1.384   .     A
C600   C602    1.418   .     A
C600   C606    1.408   .     A
C601   C603    1.418   .     A
C601   C608    1.408   .     A
C602   C604    1.431   .     A
C602   C27     1.399   1_556 S
C603   C605    1.431   .     A
C604   C615    1.421   .     A
C605   C607    1.421   .     A
C606   C31     1.398   1_556 S
C609   N625    1.158   .     T
C610   N626    1.158   .     T
C611   C616    1.453   .     S
C611   N627    1.157   .     T
C612   C617    1.453   .     S
C612   N628    1.157   .     T
C613   N629    1.157   .     T
C613   C618    1.455   .     S
C614   C619    1.455   .     S
C614   N630    1.157   .     T
C615   C32     1.398   1_556 S
C616   C746    1.381   1_455 S
C617   C620    1.411   .     A
C617   C683    1.381   .     S
C618   C620    1.410   .     A
C618   C680    1.381   .     S
C619   C745    1.381   1_455 S
N623   Zn639   2.024   .     S
N624   Zn640   2.024   .     S
O631   Zn639   2.007   .     S
O632   Zn640   2.007   .     S
O633   Zn639   2.014   .     S
O634   Zn640   2.014   .     S
O635   Zn639   2.006   .     S
O636   Zn640   2.006   .     S
O637   Zn639   2.006   .     S
O638   Zn640   2.006   .     S
Br641  C670    1.943   .     S
Br642  C672    1.943   .     S
Br643  C671    1.941   .     S
Br644  C679    1.941   .     S
Br645  C651    1.921   .     S
Br646  C652    1.921   .     S
Br647  C653    1.922   .     S
Br648  C654    1.922   .     S
C649   O695    1.295   .     A
C649   C650    1.447   .     S
C649   O698    1.294   .     A
C650   C680    1.411   .     A
C650   C683    1.410   .     A
C651   N688    1.373   .     A
C651   C1038   1.423   1_545 S
C652   N687    1.373   .     A
C652   C845    1.423   .     S
C653   N688    1.372   .     A
C653   C1036   1.423   1_545 S
C654   N687    1.372   .     A
C654   C843    1.423   .     S
C655   C661    1.422   .     S
C655   O702    1.287   .     A
C655   O699    1.286   .     A
C656   C659    1.422   .     S
C656   O701    1.287   .     A
C656   O700    1.286   .     A
C657   C659    1.395   .     A
C657   C668    1.410   .     A
C657   C673    1.453   .     S
C658   C661    1.395   .     A
C658   C674    1.453   .     S
C658   C669    1.410   .     A
C659   C662    1.378   .     A
C660   O696    1.295   .     A
C660   C684    1.447   .     S
C660   O697    1.294   .     A
C661   C663    1.378   .     A
C662   C664    1.384   .     A
C662   H685    1.082   .     S
C663   H686    1.082   .     S
C663   C665    1.384   .     A
C664   C666    1.418   .     A
C664   C670    1.408   .     A
C665   C667    1.418   .     A
C665   C672    1.408   .     A
C666   C668    1.431   .     A
C666   C91     1.399   1_556 S
C667   C669    1.431   .     A
C668   C679    1.421   .     A
C669   C671    1.421   .     A
C670   C95     1.398   1_556 S
C673   N689    1.158   .     T
C674   N690    1.158   .     T
C675   C680    1.453   .     S
C675   N691    1.157   .     T
C676   C681    1.453   .     S
C676   N692    1.157   .     T
C677   N693    1.157   .     T
C677   C682    1.455   .     S
C678   C683    1.455   .     S
C678   N694    1.157   .     T
C679   C96     1.398   1_556 S
C681   C684    1.411   .     A
C681   C747    1.381   .     S
C682   C684    1.410   .     A
C682   C744    1.381   .     S
N687   Zn703   2.024   .     S
N688   Zn704   2.024   .     S
O695   Zn703   2.007   .     S
O696   Zn704   2.007   .     S
O697   Zn703   2.014   .     S
O698   Zn704   2.014   .     S
O699   Zn703   2.006   .     S
O700   Zn704   2.006   .     S
O701   Zn703   2.006   .     S
O702   Zn704   2.006   .     S
Br705  C734    1.943   .     S
Br706  C736    1.943   .     S
Br707  C735    1.941   .     S
Br708  C743    1.941   .     S
Br709  C715    1.921   .     S
Br710  C716    1.921   .     S
Br711  C717    1.922   .     S
Br712  C718    1.922   .     S
C713   O759    1.295   .     A
C713   C714    1.447   .     S
C713   O762    1.294   .     A
C714   C744    1.411   .     A
C714   C747    1.410   .     A
C715   N752    1.373   .     A
C715   C1102   1.423   1_545 S
C716   N751    1.373   .     A
C716   C909    1.423   .     S
C717   N752    1.372   .     A
C717   C1100   1.423   1_545 S
C718   N751    1.372   .     A
C718   C907    1.423   .     S
C719   C725    1.422   .     S
C719   O766    1.287   .     A
C719   O763    1.286   .     A
C720   C723    1.422   .     S
C720   O765    1.287   .     A
C720   O764    1.286   .     A
C721   C723    1.395   .     A
C721   C732    1.410   .     A
C721   C737    1.453   .     S
C722   C725    1.395   .     A
C722   C738    1.453   .     S
C722   C733    1.410   .     A
C723   C726    1.378   .     A
C724   O760    1.295   .     A
C724   C748    1.447   .     S
C724   O761    1.294   .     A
C725   C727    1.378   .     A
C726   C728    1.384   .     A
C726   H749    1.082   .     S
C727   H750    1.082   .     S
C727   C729    1.384   .     A
C728   C730    1.418   .     A
C728   C734    1.408   .     A
C729   C731    1.418   .     A
C729   C736    1.408   .     A
C730   C732    1.431   .     A
C730   C155    1.399   1_556 S
C731   C733    1.431   .     A
C732   C743    1.421   .     A
C733   C735    1.421   .     A
C734   C159    1.398   1_556 S
C737   N753    1.158   .     T
C738   N754    1.158   .     T
C739   C744    1.453   .     S
C739   N755    1.157   .     T
C740   C745    1.453   .     S
C740   N756    1.157   .     T
C741   N757    1.157   .     T
C741   C746    1.455   .     S
C742   C747    1.455   .     S
C742   N758    1.157   .     T
C743   C160    1.398   1_556 S
C745   C748    1.411   .     A
C745   C619    1.381   1_655 S
C746   C748    1.410   .     A
C746   C616    1.381   1_655 S
N751   Zn767   2.024   .     S
N752   Zn768   2.024   .     S
O759   Zn767   2.007   .     S
O760   Zn768   2.007   .     S
O761   Zn767   2.014   .     S
O762   Zn768   2.014   .     S
O763   Zn767   2.006   .     S
O764   Zn768   2.006   .     S
O765   Zn767   2.006   .     S
O766   Zn768   2.006   .     S
Br769  C798    1.943   .     S
Br770  C800    1.943   .     S
Br771  C799    1.941   .     S
Br772  C807    1.941   .     S
Br773  C779    1.921   .     S
Br774  C780    1.921   .     S
Br775  C781    1.922   .     S
Br776  C782    1.922   .     S
C777   O823    1.295   .     A
C777   C778    1.447   .     S
C777   O826    1.294   .     A
C778   C808    1.411   .     A
C778   C811    1.410   .     A
C779   N816    1.373   .     A
C780   N815    1.373   .     A
C780   C973    1.423   .     S
C781   N816    1.372   .     A
C782   N815    1.372   .     A
C782   C971    1.423   .     S
C783   C789    1.422   .     S
C783   O830    1.287   .     A
C783   O827    1.286   .     A
C784   C787    1.422   .     S
C784   O829    1.287   .     A
C784   O828    1.286   .     A
C785   C787    1.395   .     A
C785   C796    1.410   .     A
C785   C801    1.453   .     S
C786   C789    1.395   .     A
C786   C802    1.453   .     S
C786   C797    1.410   .     A
C787   C790    1.378   .     A
C788   O824    1.295   .     A
C788   C812    1.447   .     S
C788   O825    1.294   .     A
C789   C791    1.378   .     A
C790   C792    1.384   .     A
C790   H813    1.082   .     S
C791   H814    1.082   .     S
C791   C793    1.384   .     A
C792   C794    1.418   .     A
C792   C798    1.408   .     A
C793   C795    1.418   .     A
C793   C800    1.408   .     A
C794   C796    1.431   .     A
C794   C219    1.399   1_556 S
C795   C797    1.431   .     A
C796   C807    1.421   .     A
C797   C799    1.421   .     A
C798   C223    1.398   1_556 S
C801   N817    1.158   .     T
C802   N818    1.158   .     T
C803   C808    1.453   .     S
C803   N819    1.157   .     T
C804   C809    1.453   .     S
C804   N820    1.157   .     T
C805   N821    1.157   .     T
C805   C810    1.455   .     S
C806   C811    1.455   .     S
C806   N822    1.157   .     T
C807   C224    1.398   1_556 S
C808   C938    1.381   1_455 S
C809   C812    1.411   .     A
C809   C875    1.381   .     S
C810   C812    1.410   .     A
C810   C872    1.381   .     S
C811   C937    1.381   1_455 S
N815   Zn831   2.024   .     S
N816   Zn832   2.024   .     S
O823   Zn831   2.007   .     S
O824   Zn832   2.007   .     S
O825   Zn831   2.014   .     S
O826   Zn832   2.014   .     S
O827   Zn831   2.006   .     S
O828   Zn832   2.006   .     S
O829   Zn831   2.006   .     S
O830   Zn832   2.006   .     S
Br833  C862    1.943   .     S
Br834  C864    1.943   .     S
Br835  C863    1.941   .     S
Br836  C871    1.941   .     S
Br837  C843    1.921   .     S
Br838  C844    1.921   .     S
Br839  C845    1.922   .     S
Br840  C846    1.922   .     S
C841   O887    1.295   .     A
C841   C842    1.447   .     S
C841   O890    1.294   .     A
C842   C872    1.411   .     A
C842   C875    1.410   .     A
C843   N880    1.373   .     A
C844   N879    1.373   .     A
C844   C1037   1.423   .     S
C845   N880    1.372   .     A
C846   N879    1.372   .     A
C846   C1035   1.423   .     S
C847   C853    1.422   .     S
C847   O894    1.287   .     A
C847   O891    1.286   .     A
C848   C851    1.422   .     S
C848   O893    1.287   .     A
C848   O892    1.286   .     A
C849   C851    1.395   .     A
C849   C860    1.410   .     A
C849   C865    1.453   .     S
C850   C853    1.395   .     A
C850   C866    1.453   .     S
C850   C861    1.410   .     A
C851   C854    1.378   .     A
C852   O888    1.295   .     A
C852   C876    1.447   .     S
C852   O889    1.294   .     A
C853   C855    1.378   .     A
C854   C856    1.384   .     A
C854   H877    1.082   .     S
C855   H878    1.082   .     S
C855   C857    1.384   .     A
C856   C858    1.418   .     A
C856   C862    1.408   .     A
C857   C859    1.418   .     A
C857   C864    1.408   .     A
C858   C860    1.431   .     A
C858   C283    1.399   1_556 S
C859   C861    1.431   .     A
C860   C871    1.421   .     A
C861   C863    1.421   .     A
C862   C287    1.398   1_556 S
C865   N881    1.158   .     T
C866   N882    1.158   .     T
C867   C872    1.453   .     S
C867   N883    1.157   .     T
C868   C873    1.453   .     S
C868   N884    1.157   .     T
C869   N885    1.157   .     T
C869   C874    1.455   .     S
C870   C875    1.455   .     S
C870   N886    1.157   .     T
C871   C288    1.398   1_556 S
C873   C876    1.411   .     A
C873   C939    1.381   .     S
C874   C876    1.410   .     A
C874   C936    1.381   .     S
N879   Zn895   2.024   .     S
N880   Zn896   2.024   .     S
O887   Zn895   2.007   .     S
O888   Zn896   2.007   .     S
O889   Zn895   2.014   .     S
O890   Zn896   2.014   .     S
O891   Zn895   2.006   .     S
O892   Zn896   2.006   .     S
O893   Zn895   2.006   .     S
O894   Zn896   2.006   .     S
Br897  C926    1.943   .     S
Br898  C928    1.943   .     S
Br899  C927    1.941   .     S
Br900  C935    1.941   .     S
Br901  C907    1.921   .     S
Br902  C908    1.921   .     S
Br903  C909    1.922   .     S
Br904  C910    1.922   .     S
C905   O951    1.295   .     A
C905   C906    1.447   .     S
C905   O954    1.294   .     A
C906   C936    1.411   .     A
C906   C939    1.410   .     A
C907   N944    1.373   .     A
C908   N943    1.373   .     A
C908   C1101   1.423   .     S
C909   N944    1.372   .     A
C910   N943    1.372   .     A
C910   C1099   1.423   .     S
C911   C917    1.422   .     S
C911   O958    1.287   .     A
C911   O955    1.286   .     A
C912   C915    1.422   .     S
C912   O957    1.287   .     A
C912   O956    1.286   .     A
C913   C915    1.395   .     A
C913   C924    1.410   .     A
C913   C929    1.453   .     S
C914   C917    1.395   .     A
C914   C930    1.453   .     S
C914   C925    1.410   .     A
C915   C918    1.378   .     A
C916   O952    1.295   .     A
C916   C940    1.447   .     S
C916   O953    1.294   .     A
C917   C919    1.378   .     A
C918   C920    1.384   .     A
C918   H941    1.082   .     S
C919   H942    1.082   .     S
C919   C921    1.384   .     A
C920   C922    1.418   .     A
C920   C926    1.408   .     A
C921   C923    1.418   .     A
C921   C928    1.408   .     A
C922   C924    1.431   .     A
C922   C347    1.399   1_556 S
C923   C925    1.431   .     A
C924   C935    1.421   .     A
C925   C927    1.421   .     A
C926   C351    1.398   1_556 S
C929   N945    1.158   .     T
C930   N946    1.158   .     T
C931   C936    1.453   .     S
C931   N947    1.157   .     T
C932   C937    1.453   .     S
C932   N948    1.157   .     T
C933   N949    1.157   .     T
C933   C938    1.455   .     S
C934   C939    1.455   .     S
C934   N950    1.157   .     T
C935   C352    1.398   1_556 S
C937   C940    1.411   .     A
C937   C811    1.381   1_655 S
C938   C940    1.410   .     A
C938   C808    1.381   1_655 S
N943   Zn959   2.024   .     S
N944   Zn960   2.024   .     S
O951   Zn959   2.007   .     S
O952   Zn960   2.007   .     S
O953   Zn959   2.014   .     S
O954   Zn960   2.014   .     S
O955   Zn959   2.006   .     S
O956   Zn960   2.006   .     S
O957   Zn959   2.006   .     S
O958   Zn960   2.006   .     S
Br961  C990    1.943   .     S
Br962  C992    1.943   .     S
Br963  C991    1.941   .     S
Br964  C999    1.941   .     S
Br965  C971    1.921   .     S
Br966  C972    1.921   .     S
Br967  C973    1.922   .     S
Br968  C974    1.922   .     S
C969   O1015   1.295   .     A
C969   C970    1.447   .     S
C969   O1018   1.294   .     A
C970   C1000   1.411   .     A
C970   C1003   1.410   .     A
C971   N1008   1.373   .     A
C972   N1007   1.373   .     A
C972   C589    1.423   1_565 S
C973   N1008   1.372   .     A
C974   N1007   1.372   .     A
C974   C587    1.423   1_565 S
C975   C981    1.422   .     S
C975   O1022   1.287   .     A
C975   O1019   1.286   .     A
C976   C979    1.422   .     S
C976   O1021   1.287   .     A
C976   O1020   1.286   .     A
C977   C979    1.395   .     A
C977   C988    1.410   .     A
C977   C993    1.453   .     S
C978   C981    1.395   .     A
C978   C994    1.453   .     S
C978   C989    1.410   .     A
C979   C982    1.378   .     A
C980   O1016   1.295   .     A
C980   C1004   1.447   .     S
C980   O1017   1.294   .     A
C981   C983    1.378   .     A
C982   C984    1.384   .     A
C982   H1005   1.082   .     S
C983   H1006   1.082   .     S
C983   C985    1.384   .     A
C984   C986    1.418   .     A
C984   C990    1.408   .     A
C985   C987    1.418   .     A
C985   C992    1.408   .     A
C986   C988    1.431   .     A
C986   C411    1.399   1_556 S
C987   C989    1.431   .     A
C988   C999    1.421   .     A
C989   C991    1.421   .     A
C990   C415    1.398   1_556 S
C993   N1009   1.158   .     T
C994   N1010   1.158   .     T
C995   C1000   1.453   .     S
C995   N1011   1.157   .     T
C996   C1001   1.453   .     S
C996   N1012   1.157   .     T
C997   N1013   1.157   .     T
C997   C1002   1.455   .     S
C998   C1003   1.455   .     S
C998   N1014   1.157   .     T
C999   C416    1.398   1_556 S
C1000  C1130   1.381   1_455 S
C1001  C1004   1.411   .     A
C1001  C1067   1.381   .     S
C1002  C1004   1.410   .     A
C1002  C1064   1.381   .     S
C1003  C1129   1.381   1_455 S
N1007  Zn1023  2.024   .     S
N1008  Zn1024  2.024   .     S
O1015  Zn1023  2.007   .     S
O1016  Zn1024  2.007   .     S
O1017  Zn1023  2.014   .     S
O1018  Zn1024  2.014   .     S
O1019  Zn1023  2.006   .     S
O1020  Zn1024  2.006   .     S
O1021  Zn1023  2.006   .     S
O1022  Zn1024  2.006   .     S
Br1025 C1054   1.943   .     S
Br1026 C1056   1.943   .     S
Br1027 C1055   1.941   .     S
Br1028 C1063   1.941   .     S
Br1029 C1035   1.921   .     S
Br1030 C1036   1.921   .     S
Br1031 C1037   1.922   .     S
Br1032 C1038   1.922   .     S
C1033  O1079   1.295   .     A
C1033  C1034   1.447   .     S
C1033  O1082   1.294   .     A
C1034  C1064   1.411   .     A
C1034  C1067   1.410   .     A
C1035  N1072   1.373   .     A
C1036  N1071   1.373   .     A
C1036  C653    1.423   1_565 S
C1037  N1072   1.372   .     A
C1038  N1071   1.372   .     A
C1038  C651    1.423   1_565 S
C1039  C1045   1.422   .     S
C1039  O1086   1.287   .     A
C1039  O1083   1.286   .     A
C1040  C1043   1.422   .     S
C1040  O1085   1.287   .     A
C1040  O1084   1.286   .     A
C1041  C1043   1.395   .     A
C1041  C1052   1.410   .     A
C1041  C1057   1.453   .     S
C1042  C1045   1.395   .     A
C1042  C1058   1.453   .     S
C1042  C1053   1.410   .     A
C1043  C1046   1.378   .     A
C1044  O1080   1.295   .     A
C1044  C1068   1.447   .     S
C1044  O1081   1.294   .     A
C1045  C1047   1.378   .     A
C1046  C1048   1.384   .     A
C1046  H1069   1.082   .     S
C1047  H1070   1.082   .     S
C1047  C1049   1.384   .     A
C1048  C1050   1.418   .     A
C1048  C1054   1.408   .     A
C1049  C1051   1.418   .     A
C1049  C1056   1.408   .     A
C1050  C1052   1.431   .     A
C1050  C475    1.399   1_556 S
C1051  C1053   1.431   .     A
C1052  C1063   1.421   .     A
C1053  C1055   1.421   .     A
C1054  C479    1.398   1_556 S
C1057  N1073   1.158   .     T
C1058  N1074   1.158   .     T
C1059  C1064   1.453   .     S
C1059  N1075   1.157   .     T
C1060  C1065   1.453   .     S
C1060  N1076   1.157   .     T
C1061  N1077   1.157   .     T
C1061  C1066   1.455   .     S
C1062  C1067   1.455   .     S
C1062  N1078   1.157   .     T
C1063  C480    1.398   1_556 S
C1065  C1068   1.411   .     A
C1065  C1131   1.381   .     S
C1066  C1068   1.410   .     A
C1066  C1128   1.381   .     S
N1071  Zn1087  2.024   .     S
N1072  Zn1088  2.024   .     S
O1079  Zn1087  2.007   .     S
O1080  Zn1088  2.007   .     S
O1081  Zn1087  2.014   .     S
O1082  Zn1088  2.014   .     S
O1083  Zn1087  2.006   .     S
O1084  Zn1088  2.006   .     S
O1085  Zn1087  2.006   .     S
O1086  Zn1088  2.006   .     S
Br1089 C1118   1.943   .     S
Br1090 C1120   1.943   .     S
Br1091 C1119   1.941   .     S
Br1092 C1127   1.941   .     S
Br1093 C1099   1.921   .     S
Br1094 C1100   1.921   .     S
Br1095 C1101   1.922   .     S
Br1096 C1102   1.922   .     S
C1097  O1143   1.295   .     A
C1097  C1098   1.447   .     S
C1097  O1146   1.294   .     A
C1098  C1128   1.411   .     A
C1098  C1131   1.410   .     A
C1099  N1136   1.373   .     A
C1100  N1135   1.373   .     A
C1100  C717    1.423   1_565 S
C1101  N1136   1.372   .     A
C1102  N1135   1.372   .     A
C1102  C715    1.423   1_565 S
C1103  C1109   1.422   .     S
C1103  O1150   1.287   .     A
C1103  O1147   1.286   .     A
C1104  C1107   1.422   .     S
C1104  O1149   1.287   .     A
C1104  O1148   1.286   .     A
C1105  C1107   1.395   .     A
C1105  C1116   1.410   .     A
C1105  C1121   1.453   .     S
C1106  C1109   1.395   .     A
C1106  C1122   1.453   .     S
C1106  C1117   1.410   .     A
C1107  C1110   1.378   .     A
C1108  O1144   1.295   .     A
C1108  C1132   1.447   .     S
C1108  O1145   1.294   .     A
C1109  C1111   1.378   .     A
C1110  C1112   1.384   .     A
C1110  H1133   1.082   .     S
C1111  H1134   1.082   .     S
C1111  C1113   1.384   .     A
C1112  C1114   1.418   .     A
C1112  C1118   1.408   .     A
C1113  C1115   1.418   .     A
C1113  C1120   1.408   .     A
C1114  C1116   1.431   .     A
C1114  C539    1.399   1_556 S
C1115  C1117   1.431   .     A
C1116  C1127   1.421   .     A
C1117  C1119   1.421   .     A
C1118  C543    1.398   1_556 S
C1121  N1137   1.158   .     T
C1122  N1138   1.158   .     T
C1123  C1128   1.453   .     S
C1123  N1139   1.157   .     T
C1124  C1129   1.453   .     S
C1124  N1140   1.157   .     T
C1125  N1141   1.157   .     T
C1125  C1130   1.455   .     S
C1126  C1131   1.455   .     S
C1126  N1142   1.157   .     T
C1127  C544    1.398   1_556 S
C1129  C1132   1.411   .     A
C1129  C1003   1.381   1_655 S
C1130  C1132   1.410   .     A
C1130  C1000   1.381   1_655 S
N1135  Zn1151  2.024   .     S
N1136  Zn1152  2.024   .     S
O1143  Zn1151  2.007   .     S
O1144  Zn1152  2.007   .     S
O1145  Zn1151  2.014   .     S
O1146  Zn1152  2.014   .     S
O1147  Zn1151  2.006   .     S
O1148  Zn1152  2.006   .     S
O1149  Zn1151  2.006   .     S
O1150  Zn1152  2.006   .     S
