data_str_m3_o1_o18_pcu_sym.92
_audit_creation_date              2020-01-03
_audit_creation_method            'Materials Studio'
_symmetry_space_group_name_H-M    'P1'
_symmetry_Int_Tables_number       1
_symmetry_cell_setting            triclinic
loop_
_symmetry_equiv_pos_as_xyz
  x,y,z
_cell_length_a                    29.5499
_cell_length_b                    31.8936
_cell_length_c                    30.8290
_cell_angle_alpha                 90.1299
_cell_angle_beta                  66.5079
_cell_angle_gamma                 89.6230
loop_
_atom_site_label
_atom_site_type_symbol
_atom_site_fract_x
_atom_site_fract_y
_atom_site_fract_z
_atom_site_U_iso_or_equiv
_atom_site_adp_type
_atom_site_occupancy
O1     O     0.12846   0.22775   0.25001   0.00000  Uiso   1.00
O2     O     0.20488   0.10558   0.25000   0.00000  Uiso   1.00
O3     O     0.20490   0.22774   0.25000   0.00000  Uiso   1.00
O4     O     0.12843   0.10559   0.25000   0.00000  Uiso   1.00
C5     C     0.16638   0.24651   0.25027   0.00000  Uiso   1.00
C6     C     0.16698   0.08681   0.24967   0.00000  Uiso   1.00
O7     O     0.10661   0.16667   0.31613   0.00000  Uiso   1.00
O8     O     0.22672   0.16666   0.18388   0.00000  Uiso   1.00
O9     O     0.18305   0.16666   0.31612   0.00000  Uiso   1.00
O10    O     0.15028   0.16667   0.18388   0.00000  Uiso   1.00
C11    C     0.13531   0.16708   0.33858   0.00000  Uiso   1.00
C12    C     0.19799   0.16552   0.16141   0.00000  Uiso   1.00
Zn13   Zn    0.11562   0.16667   0.25000   0.00000  Uiso   1.00
Zn14   Zn    0.21771   0.16666   0.25000   0.00000  Uiso   1.00
C15    C     0.11388   0.16734   0.39069   0.00000  Uiso   1.00
C16    C     0.21817   0.15688   0.11015   0.00000  Uiso   1.00
C17    C     0.05308   0.18937   0.46824   0.00000  Uiso   1.00
C18    C     0.26945   0.11548   0.04071   0.00000  Uiso   1.00
C19    C     0.06795   0.18630   0.41853   0.00000  Uiso   1.00
C20    C     0.26089   0.13200   0.08617   0.00000  Uiso   1.00
C21    C     0.14349   0.15098   0.41208   0.00000  Uiso   1.00
C22    C     0.18659   0.16637   0.08818   0.00000  Uiso   1.00
C23    C     0.13081   0.15442   0.46063   0.00000  Uiso   1.00
C24    C     0.19117   0.14704   0.04609   0.00000  Uiso   1.00
C25    C     0.08516   0.17407   0.48906   0.00000  Uiso   1.00
C26    C     0.23437   0.12327   0.02058   0.00000  Uiso   1.00
C27    C     0.16423   0.14128   0.48097   0.00000  Uiso   1.00
C28    C     0.15404   0.15244   0.02828   0.00000  Uiso   1.00
C29    C     0.10649   0.16767   0.05692   0.00000  Uiso   1.00
C30    C     0.20796   0.11820   0.45556   0.00000  Uiso   1.00
C31    C     0.07266   0.17773   0.03782   0.00000  Uiso   1.00
C32    C     0.24190   0.10920   0.47506   0.00000  Uiso   1.00
H33    H     0.03707   0.18929   0.06195   0.00000  Uiso   1.00
H34    H     0.27479   0.09217   0.45303   0.00000  Uiso   1.00
H35    H     0.15707   0.18854   0.10570   0.00000  Uiso   1.00
H36    H     0.17834   0.13765   0.38910   0.00000  Uiso   1.00
H37    H     0.09401   0.17117   0.09479   0.00000  Uiso   1.00
H38    H     0.21675   0.10543   0.42075   0.00000  Uiso   1.00
C39    C     0.16402   0.31199   0.29146   0.00000  Uiso   1.00
C40    C     0.16921   0.02130   0.20847   0.00000  Uiso   1.00
C41    C     0.16545   0.02219   0.29006   0.00000  Uiso   1.00
C42    C     0.16806   0.31109   0.20977   0.00000  Uiso   1.00
C43    C     0.16785   0.04263   0.24898   0.00000  Uiso   1.00
C44    C     0.16549   0.29067   0.25092   0.00000  Uiso   1.00
C45    C     0.32036   0.13777   0.22405   0.00000  Uiso   1.00
C46    C     0.01298   0.19557   0.27593   0.00000  Uiso   1.00
H47    H     0.31099   0.11460   0.20340   0.00000  Uiso   1.00
H48    H     0.02235   0.21873   0.29661   0.00000  Uiso   1.00
C49    C     0.03498   0.13781   0.22401   0.00000  Uiso   1.00
C50    C     0.29837   0.19555   0.27594   0.00000  Uiso   1.00
H51    H     0.06194   0.11474   0.20318   0.00000  Uiso   1.00
H52    H     0.27143   0.21865   0.29673   0.00000  Uiso   1.00
N53    N     0.04759   0.16668   0.25001   0.00000  Uiso   1.00
N54    N     0.28574   0.16666   0.24999   0.00000  Uiso   1.00
C55    C     0.29535   0.12197   0.10909   0.00000  Uiso   1.00
H56    H     0.30747   0.14646   0.12633   0.00000  Uiso   1.00
O57    O     0.31016   0.08616   0.10926   0.00000  Uiso   1.00
C58    C     0.03763   0.20592   0.39548   0.00000  Uiso   1.00
H59    H     0.02461   0.18727   0.37340   0.00000  Uiso   1.00
O60    O     0.02719   0.24321   0.40100   0.00000  Uiso   1.00
C61    C     0.00522   0.21011   0.49799   0.00000  Uiso   1.00
H62    H     0.00240   0.23042   0.02721   0.00000  Uiso   1.00
O63    O     0.30163   0.20460   0.49021   0.00000  Uiso   1.00
C64    C     0.31515   0.09048   0.01511   0.00000  Uiso   1.00
H65    H     0.01688   0.10133   0.01426   0.00000  Uiso   1.00
O66    O     0.31358   0.05655   0.49738   0.00000  Uiso   1.00
C67    C     0.16017   0.28853   0.33473   0.00000  Uiso   1.00
H68    H     0.14681   0.25660   0.34012   0.00000  Uiso   1.00
O69    O     0.17255   0.30415   0.36447   0.00000  Uiso   1.00
C70    C     0.17260   0.04475   0.16535   0.00000  Uiso   1.00
H71    H     0.18532   0.07683   0.16018   0.00000  Uiso   1.00
O72    O     0.16046   0.02897   0.13553   0.00000  Uiso   1.00
N73    N     0.16155   0.04607   0.33094   0.00000  Uiso   1.00
O74    O     0.11879   0.05154   0.36570   0.00000  Uiso   1.00
O75    O     0.20079   0.06203   0.33354   0.00000  Uiso   1.00
N76    N     0.17257   0.28720   0.16869   0.00000  Uiso   1.00
O77    O     0.21536   0.28296   0.13366   0.00000  Uiso   1.00
O78    O     0.13390   0.26996   0.16620   0.00000  Uiso   1.00
O79    O     0.46179   0.22775   0.25001   0.00000  Uiso   1.00
O80    O     0.53821   0.10558   0.25000   0.00000  Uiso   1.00
O81    O     0.53823   0.22774   0.25000   0.00000  Uiso   1.00
O82    O     0.46177   0.10559   0.25000   0.00000  Uiso   1.00
C83    C     0.49971   0.24651   0.25027   0.00000  Uiso   1.00
C84    C     0.50031   0.08681   0.24967   0.00000  Uiso   1.00
O85    O     0.43994   0.16667   0.31613   0.00000  Uiso   1.00
O86    O     0.56006   0.16666   0.18388   0.00000  Uiso   1.00
O87    O     0.51639   0.16666   0.31612   0.00000  Uiso   1.00
O88    O     0.48361   0.16667   0.18388   0.00000  Uiso   1.00
C89    C     0.46864   0.16708   0.33858   0.00000  Uiso   1.00
C90    C     0.53132   0.16552   0.16141   0.00000  Uiso   1.00
Zn91   Zn    0.44896   0.16667   0.25000   0.00000  Uiso   1.00
Zn92   Zn    0.55104   0.16666   0.25000   0.00000  Uiso   1.00
C93    C     0.44721   0.16734   0.39069   0.00000  Uiso   1.00
C94    C     0.55150   0.15688   0.11015   0.00000  Uiso   1.00
C95    C     0.38642   0.18937   0.46824   0.00000  Uiso   1.00
C96    C     0.60278   0.11548   0.04071   0.00000  Uiso   1.00
C97    C     0.40128   0.18630   0.41853   0.00000  Uiso   1.00
C98    C     0.59422   0.13200   0.08617   0.00000  Uiso   1.00
C99    C     0.47682   0.15098   0.41208   0.00000  Uiso   1.00
C100   C     0.51993   0.16637   0.08818   0.00000  Uiso   1.00
C101   C     0.46414   0.15442   0.46063   0.00000  Uiso   1.00
C102   C     0.52450   0.14704   0.04609   0.00000  Uiso   1.00
C103   C     0.41849   0.17407   0.48906   0.00000  Uiso   1.00
C104   C     0.56771   0.12327   0.02058   0.00000  Uiso   1.00
C105   C     0.49757   0.14128   0.48097   0.00000  Uiso   1.00
C106   C     0.48737   0.15244   0.02828   0.00000  Uiso   1.00
C107   C     0.43983   0.16767   0.05692   0.00000  Uiso   1.00
C108   C     0.54129   0.11820   0.45556   0.00000  Uiso   1.00
C109   C     0.40599   0.17773   0.03782   0.00000  Uiso   1.00
C110   C     0.57524   0.10920   0.47506   0.00000  Uiso   1.00
H111   H     0.37041   0.18929   0.06195   0.00000  Uiso   1.00
H112   H     0.60812   0.09217   0.45303   0.00000  Uiso   1.00
H113   H     0.49040   0.18854   0.10570   0.00000  Uiso   1.00
H114   H     0.51167   0.13765   0.38910   0.00000  Uiso   1.00
H115   H     0.42735   0.17117   0.09479   0.00000  Uiso   1.00
H116   H     0.55008   0.10543   0.42075   0.00000  Uiso   1.00
C117   C     0.49735   0.31199   0.29146   0.00000  Uiso   1.00
C118   C     0.50255   0.02130   0.20847   0.00000  Uiso   1.00
C119   C     0.49878   0.02219   0.29006   0.00000  Uiso   1.00
C120   C     0.50139   0.31109   0.20977   0.00000  Uiso   1.00
C121   C     0.50118   0.04263   0.24898   0.00000  Uiso   1.00
C122   C     0.49883   0.29067   0.25092   0.00000  Uiso   1.00
C123   C     0.65370   0.13777   0.22405   0.00000  Uiso   1.00
C124   C     0.34631   0.19557   0.27593   0.00000  Uiso   1.00
H125   H     0.64433   0.11460   0.20340   0.00000  Uiso   1.00
H126   H     0.35568   0.21873   0.29661   0.00000  Uiso   1.00
C127   C     0.36831   0.13781   0.22401   0.00000  Uiso   1.00
C128   C     0.63171   0.19555   0.27594   0.00000  Uiso   1.00
H129   H     0.39527   0.11474   0.20318   0.00000  Uiso   1.00
H130   H     0.60477   0.21865   0.29673   0.00000  Uiso   1.00
N131   N     0.38093   0.16668   0.25001   0.00000  Uiso   1.00
N132   N     0.61907   0.16666   0.24999   0.00000  Uiso   1.00
C133   C     0.62869   0.12197   0.10909   0.00000  Uiso   1.00
H134   H     0.64080   0.14646   0.12633   0.00000  Uiso   1.00
O135   O     0.64350   0.08616   0.10926   0.00000  Uiso   1.00
C136   C     0.37096   0.20592   0.39548   0.00000  Uiso   1.00
H137   H     0.35794   0.18727   0.37340   0.00000  Uiso   1.00
O138   O     0.36052   0.24321   0.40100   0.00000  Uiso   1.00
C139   C     0.33855   0.21011   0.49799   0.00000  Uiso   1.00
H140   H     0.33573   0.23042   0.02721   0.00000  Uiso   1.00
O141   O     0.63496   0.20460   0.49021   0.00000  Uiso   1.00
C142   C     0.64848   0.09048   0.01511   0.00000  Uiso   1.00
H143   H     0.35022   0.10133   0.01426   0.00000  Uiso   1.00
O144   O     0.64692   0.05655   0.49738   0.00000  Uiso   1.00
C145   C     0.49350   0.28853   0.33473   0.00000  Uiso   1.00
H146   H     0.48014   0.25660   0.34012   0.00000  Uiso   1.00
O147   O     0.50589   0.30415   0.36447   0.00000  Uiso   1.00
C148   C     0.50593   0.04475   0.16535   0.00000  Uiso   1.00
H149   H     0.51865   0.07683   0.16018   0.00000  Uiso   1.00
O150   O     0.49379   0.02897   0.13553   0.00000  Uiso   1.00
N151   N     0.49488   0.04607   0.33094   0.00000  Uiso   1.00
O152   O     0.45212   0.05154   0.36570   0.00000  Uiso   1.00
O153   O     0.53413   0.06203   0.33354   0.00000  Uiso   1.00
N154   N     0.50590   0.28720   0.16869   0.00000  Uiso   1.00
O155   O     0.54869   0.28296   0.13366   0.00000  Uiso   1.00
O156   O     0.46723   0.26996   0.16620   0.00000  Uiso   1.00
O157   O     0.79512   0.22775   0.25001   0.00000  Uiso   1.00
O158   O     0.87154   0.10558   0.25000   0.00000  Uiso   1.00
O159   O     0.87157   0.22774   0.25000   0.00000  Uiso   1.00
O160   O     0.79510   0.10559   0.25000   0.00000  Uiso   1.00
C161   C     0.83305   0.24651   0.25027   0.00000  Uiso   1.00
C162   C     0.83364   0.08681   0.24967   0.00000  Uiso   1.00
O163   O     0.77328   0.16667   0.31613   0.00000  Uiso   1.00
O164   O     0.89339   0.16666   0.18388   0.00000  Uiso   1.00
O165   O     0.84972   0.16666   0.31612   0.00000  Uiso   1.00
O166   O     0.81695   0.16667   0.18388   0.00000  Uiso   1.00
C167   C     0.80198   0.16708   0.33858   0.00000  Uiso   1.00
C168   C     0.86465   0.16552   0.16141   0.00000  Uiso   1.00
Zn169  Zn    0.78229   0.16667   0.25000   0.00000  Uiso   1.00
Zn170  Zn    0.88438   0.16666   0.25000   0.00000  Uiso   1.00
C171   C     0.78055   0.16734   0.39069   0.00000  Uiso   1.00
C172   C     0.88484   0.15688   0.11015   0.00000  Uiso   1.00
C173   C     0.71975   0.18937   0.46824   0.00000  Uiso   1.00
C174   C     0.93612   0.11548   0.04071   0.00000  Uiso   1.00
C175   C     0.73461   0.18630   0.41853   0.00000  Uiso   1.00
C176   C     0.92755   0.13200   0.08617   0.00000  Uiso   1.00
C177   C     0.81016   0.15098   0.41208   0.00000  Uiso   1.00
C178   C     0.85326   0.16637   0.08818   0.00000  Uiso   1.00
C179   C     0.79748   0.15442   0.46063   0.00000  Uiso   1.00
C180   C     0.85783   0.14704   0.04609   0.00000  Uiso   1.00
C181   C     0.75182   0.17407   0.48906   0.00000  Uiso   1.00
C182   C     0.90104   0.12327   0.02058   0.00000  Uiso   1.00
C183   C     0.83090   0.14128   0.48097   0.00000  Uiso   1.00
C184   C     0.82071   0.15244   0.02828   0.00000  Uiso   1.00
C185   C     0.77316   0.16767   0.05692   0.00000  Uiso   1.00
C186   C     0.87463   0.11820   0.45556   0.00000  Uiso   1.00
C187   C     0.73933   0.17773   0.03782   0.00000  Uiso   1.00
C188   C     0.90857   0.10920   0.47506   0.00000  Uiso   1.00
H189   H     0.70374   0.18929   0.06195   0.00000  Uiso   1.00
H190   H     0.94145   0.09217   0.45303   0.00000  Uiso   1.00
H191   H     0.82373   0.18854   0.10570   0.00000  Uiso   1.00
H192   H     0.84501   0.13765   0.38910   0.00000  Uiso   1.00
H193   H     0.76068   0.17117   0.09479   0.00000  Uiso   1.00
H194   H     0.88342   0.10543   0.42075   0.00000  Uiso   1.00
C195   C     0.83069   0.31199   0.29146   0.00000  Uiso   1.00
C196   C     0.83588   0.02130   0.20847   0.00000  Uiso   1.00
C197   C     0.83211   0.02219   0.29006   0.00000  Uiso   1.00
C198   C     0.83472   0.31109   0.20977   0.00000  Uiso   1.00
C199   C     0.83452   0.04263   0.24898   0.00000  Uiso   1.00
C200   C     0.83216   0.29067   0.25092   0.00000  Uiso   1.00
C201   C     0.98703   0.13777   0.22405   0.00000  Uiso   1.00
C202   C     0.67965   0.19557   0.27593   0.00000  Uiso   1.00
H203   H     0.97766   0.11460   0.20340   0.00000  Uiso   1.00
H204   H     0.68902   0.21873   0.29661   0.00000  Uiso   1.00
C205   C     0.70165   0.13781   0.22401   0.00000  Uiso   1.00
C206   C     0.96504   0.19555   0.27594   0.00000  Uiso   1.00
H207   H     0.72860   0.11474   0.20318   0.00000  Uiso   1.00
H208   H     0.93810   0.21865   0.29673   0.00000  Uiso   1.00
N209   N     0.71426   0.16668   0.25001   0.00000  Uiso   1.00
N210   N     0.95241   0.16666   0.24999   0.00000  Uiso   1.00
C211   C     0.96202   0.12197   0.10909   0.00000  Uiso   1.00
H212   H     0.97413   0.14646   0.12633   0.00000  Uiso   1.00
O213   O     0.97683   0.08616   0.10926   0.00000  Uiso   1.00
C214   C     0.70429   0.20592   0.39548   0.00000  Uiso   1.00
H215   H     0.69128   0.18727   0.37340   0.00000  Uiso   1.00
O216   O     0.69385   0.24321   0.40100   0.00000  Uiso   1.00
C217   C     0.67189   0.21011   0.49799   0.00000  Uiso   1.00
H218   H     0.66906   0.23042   0.02721   0.00000  Uiso   1.00
O219   O     0.96829   0.20460   0.49021   0.00000  Uiso   1.00
C220   C     0.98182   0.09048   0.01511   0.00000  Uiso   1.00
H221   H     0.68355   0.10133   0.01426   0.00000  Uiso   1.00
O222   O     0.98025   0.05655   0.49738   0.00000  Uiso   1.00
C223   C     0.82684   0.28853   0.33473   0.00000  Uiso   1.00
H224   H     0.81348   0.25660   0.34012   0.00000  Uiso   1.00
O225   O     0.83922   0.30415   0.36447   0.00000  Uiso   1.00
C226   C     0.83926   0.04475   0.16535   0.00000  Uiso   1.00
H227   H     0.85199   0.07683   0.16018   0.00000  Uiso   1.00
O228   O     0.82713   0.02897   0.13553   0.00000  Uiso   1.00
N229   N     0.82822   0.04607   0.33094   0.00000  Uiso   1.00
O230   O     0.78545   0.05154   0.36570   0.00000  Uiso   1.00
O231   O     0.86746   0.06203   0.33354   0.00000  Uiso   1.00
N232   N     0.83924   0.28720   0.16869   0.00000  Uiso   1.00
O233   O     0.88203   0.28296   0.13366   0.00000  Uiso   1.00
O234   O     0.80057   0.26996   0.16620   0.00000  Uiso   1.00
O235   O     0.12846   0.56108   0.25001   0.00000  Uiso   1.00
O236   O     0.20488   0.43892   0.25000   0.00000  Uiso   1.00
O237   O     0.20490   0.56107   0.25000   0.00000  Uiso   1.00
O238   O     0.12843   0.43893   0.25000   0.00000  Uiso   1.00
C239   C     0.16638   0.57984   0.25027   0.00000  Uiso   1.00
C240   C     0.16698   0.42015   0.24967   0.00000  Uiso   1.00
O241   O     0.10661   0.50001   0.31613   0.00000  Uiso   1.00
O242   O     0.22672   0.49999   0.18388   0.00000  Uiso   1.00
O243   O     0.18305   0.50000   0.31612   0.00000  Uiso   1.00
O244   O     0.15028   0.50000   0.18388   0.00000  Uiso   1.00
C245   C     0.13531   0.50041   0.33858   0.00000  Uiso   1.00
C246   C     0.19799   0.49886   0.16141   0.00000  Uiso   1.00
Zn247  Zn    0.11562   0.50001   0.25000   0.00000  Uiso   1.00
Zn248  Zn    0.21771   0.49999   0.25000   0.00000  Uiso   1.00
C249   C     0.11388   0.50068   0.39069   0.00000  Uiso   1.00
C250   C     0.21817   0.49021   0.11015   0.00000  Uiso   1.00
C251   C     0.05308   0.52271   0.46824   0.00000  Uiso   1.00
C252   C     0.26945   0.44881   0.04071   0.00000  Uiso   1.00
C253   C     0.06795   0.51964   0.41853   0.00000  Uiso   1.00
C254   C     0.26089   0.46533   0.08617   0.00000  Uiso   1.00
C255   C     0.14349   0.48431   0.41208   0.00000  Uiso   1.00
C256   C     0.18659   0.49970   0.08818   0.00000  Uiso   1.00
C257   C     0.13081   0.48775   0.46063   0.00000  Uiso   1.00
C258   C     0.19117   0.48038   0.04609   0.00000  Uiso   1.00
C259   C     0.08516   0.50741   0.48906   0.00000  Uiso   1.00
C260   C     0.23437   0.45660   0.02058   0.00000  Uiso   1.00
C261   C     0.16423   0.47462   0.48097   0.00000  Uiso   1.00
C262   C     0.15404   0.48577   0.02828   0.00000  Uiso   1.00
C263   C     0.10649   0.50101   0.05692   0.00000  Uiso   1.00
C264   C     0.20796   0.45154   0.45556   0.00000  Uiso   1.00
C265   C     0.07266   0.51106   0.03782   0.00000  Uiso   1.00
C266   C     0.24190   0.44253   0.47506   0.00000  Uiso   1.00
H267   H     0.03707   0.52262   0.06195   0.00000  Uiso   1.00
H268   H     0.27479   0.42551   0.45303   0.00000  Uiso   1.00
H269   H     0.15707   0.52187   0.10570   0.00000  Uiso   1.00
H270   H     0.17834   0.47098   0.38910   0.00000  Uiso   1.00
H271   H     0.09401   0.50450   0.09479   0.00000  Uiso   1.00
H272   H     0.21675   0.43876   0.42075   0.00000  Uiso   1.00
C273   C     0.16402   0.64532   0.29146   0.00000  Uiso   1.00
C274   C     0.16921   0.35463   0.20847   0.00000  Uiso   1.00
C275   C     0.16545   0.35552   0.29006   0.00000  Uiso   1.00
C276   C     0.16806   0.64443   0.20977   0.00000  Uiso   1.00
C277   C     0.16785   0.37596   0.24898   0.00000  Uiso   1.00
C278   C     0.16549   0.62401   0.25092   0.00000  Uiso   1.00
C279   C     0.32036   0.47111   0.22405   0.00000  Uiso   1.00
C280   C     0.01298   0.52890   0.27593   0.00000  Uiso   1.00
H281   H     0.31099   0.44793   0.20340   0.00000  Uiso   1.00
H282   H     0.02235   0.55207   0.29661   0.00000  Uiso   1.00
C283   C     0.03498   0.47114   0.22401   0.00000  Uiso   1.00
C284   C     0.29837   0.52888   0.27594   0.00000  Uiso   1.00
H285   H     0.06194   0.44807   0.20318   0.00000  Uiso   1.00
H286   H     0.27143   0.55198   0.29673   0.00000  Uiso   1.00
N287   N     0.04759   0.50001   0.25001   0.00000  Uiso   1.00
N288   N     0.28574   0.49999   0.24999   0.00000  Uiso   1.00
C289   C     0.29535   0.45530   0.10909   0.00000  Uiso   1.00
H290   H     0.30747   0.47980   0.12633   0.00000  Uiso   1.00
O291   O     0.31016   0.41949   0.10926   0.00000  Uiso   1.00
C292   C     0.03763   0.53925   0.39548   0.00000  Uiso   1.00
H293   H     0.02461   0.52061   0.37340   0.00000  Uiso   1.00
O294   O     0.02719   0.57654   0.40100   0.00000  Uiso   1.00
C295   C     0.00522   0.54345   0.49799   0.00000  Uiso   1.00
H296   H     0.00240   0.56375   0.02721   0.00000  Uiso   1.00
O297   O     0.30163   0.53794   0.49021   0.00000  Uiso   1.00
C298   C     0.31515   0.42382   0.01511   0.00000  Uiso   1.00
H299   H     0.01688   0.43466   0.01426   0.00000  Uiso   1.00
O300   O     0.31358   0.38988   0.49738   0.00000  Uiso   1.00
C301   C     0.16017   0.62186   0.33473   0.00000  Uiso   1.00
H302   H     0.14681   0.58993   0.34012   0.00000  Uiso   1.00
O303   O     0.17255   0.63748   0.36447   0.00000  Uiso   1.00
C304   C     0.17260   0.37809   0.16535   0.00000  Uiso   1.00
H305   H     0.18532   0.41016   0.16018   0.00000  Uiso   1.00
O306   O     0.16046   0.36230   0.13553   0.00000  Uiso   1.00
N307   N     0.16155   0.37941   0.33094   0.00000  Uiso   1.00
O308   O     0.11879   0.38487   0.36570   0.00000  Uiso   1.00
O309   O     0.20079   0.39537   0.33354   0.00000  Uiso   1.00
N310   N     0.17257   0.62053   0.16869   0.00000  Uiso   1.00
O311   O     0.21536   0.61629   0.13366   0.00000  Uiso   1.00
O312   O     0.13390   0.60330   0.16620   0.00000  Uiso   1.00
O313   O     0.46179   0.56108   0.25001   0.00000  Uiso   1.00
O314   O     0.53821   0.43892   0.25000   0.00000  Uiso   1.00
O315   O     0.53823   0.56107   0.25000   0.00000  Uiso   1.00
O316   O     0.46177   0.43893   0.25000   0.00000  Uiso   1.00
C317   C     0.49971   0.57984   0.25027   0.00000  Uiso   1.00
C318   C     0.50031   0.42015   0.24967   0.00000  Uiso   1.00
O319   O     0.43994   0.50001   0.31613   0.00000  Uiso   1.00
O320   O     0.56006   0.49999   0.18388   0.00000  Uiso   1.00
O321   O     0.51639   0.50000   0.31612   0.00000  Uiso   1.00
O322   O     0.48361   0.50000   0.18388   0.00000  Uiso   1.00
C323   C     0.46864   0.50041   0.33858   0.00000  Uiso   1.00
C324   C     0.53132   0.49886   0.16141   0.00000  Uiso   1.00
Zn325  Zn    0.44896   0.50001   0.25000   0.00000  Uiso   1.00
Zn326  Zn    0.55104   0.49999   0.25000   0.00000  Uiso   1.00
C327   C     0.44721   0.50068   0.39069   0.00000  Uiso   1.00
C328   C     0.55150   0.49021   0.11015   0.00000  Uiso   1.00
C329   C     0.38642   0.52271   0.46824   0.00000  Uiso   1.00
C330   C     0.60278   0.44881   0.04071   0.00000  Uiso   1.00
C331   C     0.40128   0.51964   0.41853   0.00000  Uiso   1.00
C332   C     0.59422   0.46533   0.08617   0.00000  Uiso   1.00
C333   C     0.47682   0.48431   0.41208   0.00000  Uiso   1.00
C334   C     0.51993   0.49970   0.08818   0.00000  Uiso   1.00
C335   C     0.46414   0.48775   0.46063   0.00000  Uiso   1.00
C336   C     0.52450   0.48038   0.04609   0.00000  Uiso   1.00
C337   C     0.41849   0.50741   0.48906   0.00000  Uiso   1.00
C338   C     0.56771   0.45660   0.02058   0.00000  Uiso   1.00
C339   C     0.49757   0.47462   0.48097   0.00000  Uiso   1.00
C340   C     0.48737   0.48577   0.02828   0.00000  Uiso   1.00
C341   C     0.43983   0.50101   0.05692   0.00000  Uiso   1.00
C342   C     0.54129   0.45154   0.45556   0.00000  Uiso   1.00
C343   C     0.40599   0.51106   0.03782   0.00000  Uiso   1.00
C344   C     0.57524   0.44253   0.47506   0.00000  Uiso   1.00
H345   H     0.37041   0.52262   0.06195   0.00000  Uiso   1.00
H346   H     0.60812   0.42551   0.45303   0.00000  Uiso   1.00
H347   H     0.49040   0.52187   0.10570   0.00000  Uiso   1.00
H348   H     0.51167   0.47098   0.38910   0.00000  Uiso   1.00
H349   H     0.42735   0.50450   0.09479   0.00000  Uiso   1.00
H350   H     0.55008   0.43876   0.42075   0.00000  Uiso   1.00
C351   C     0.49735   0.64532   0.29146   0.00000  Uiso   1.00
C352   C     0.50255   0.35463   0.20847   0.00000  Uiso   1.00
C353   C     0.49878   0.35552   0.29006   0.00000  Uiso   1.00
C354   C     0.50139   0.64443   0.20977   0.00000  Uiso   1.00
C355   C     0.50118   0.37596   0.24898   0.00000  Uiso   1.00
C356   C     0.49883   0.62401   0.25092   0.00000  Uiso   1.00
C357   C     0.65370   0.47111   0.22405   0.00000  Uiso   1.00
C358   C     0.34631   0.52890   0.27593   0.00000  Uiso   1.00
H359   H     0.64433   0.44793   0.20340   0.00000  Uiso   1.00
H360   H     0.35568   0.55207   0.29661   0.00000  Uiso   1.00
C361   C     0.36831   0.47114   0.22401   0.00000  Uiso   1.00
C362   C     0.63171   0.52888   0.27594   0.00000  Uiso   1.00
H363   H     0.39527   0.44807   0.20318   0.00000  Uiso   1.00
H364   H     0.60477   0.55198   0.29673   0.00000  Uiso   1.00
N365   N     0.38093   0.50001   0.25001   0.00000  Uiso   1.00
N366   N     0.61907   0.49999   0.24999   0.00000  Uiso   1.00
C367   C     0.62869   0.45530   0.10909   0.00000  Uiso   1.00
H368   H     0.64080   0.47980   0.12633   0.00000  Uiso   1.00
O369   O     0.64350   0.41949   0.10926   0.00000  Uiso   1.00
C370   C     0.37096   0.53925   0.39548   0.00000  Uiso   1.00
H371   H     0.35794   0.52061   0.37340   0.00000  Uiso   1.00
O372   O     0.36052   0.57654   0.40100   0.00000  Uiso   1.00
C373   C     0.33855   0.54345   0.49799   0.00000  Uiso   1.00
H374   H     0.33573   0.56375   0.02721   0.00000  Uiso   1.00
O375   O     0.63496   0.53794   0.49021   0.00000  Uiso   1.00
C376   C     0.64848   0.42382   0.01511   0.00000  Uiso   1.00
H377   H     0.35022   0.43466   0.01426   0.00000  Uiso   1.00
O378   O     0.64692   0.38988   0.49738   0.00000  Uiso   1.00
C379   C     0.49350   0.62186   0.33473   0.00000  Uiso   1.00
H380   H     0.48014   0.58993   0.34012   0.00000  Uiso   1.00
O381   O     0.50589   0.63748   0.36447   0.00000  Uiso   1.00
C382   C     0.50593   0.37809   0.16535   0.00000  Uiso   1.00
H383   H     0.51865   0.41016   0.16018   0.00000  Uiso   1.00
O384   O     0.49379   0.36230   0.13553   0.00000  Uiso   1.00
N385   N     0.49488   0.37941   0.33094   0.00000  Uiso   1.00
O386   O     0.45212   0.38487   0.36570   0.00000  Uiso   1.00
O387   O     0.53413   0.39537   0.33354   0.00000  Uiso   1.00
N388   N     0.50590   0.62053   0.16869   0.00000  Uiso   1.00
O389   O     0.54869   0.61629   0.13366   0.00000  Uiso   1.00
O390   O     0.46723   0.60330   0.16620   0.00000  Uiso   1.00
O391   O     0.79512   0.56108   0.25001   0.00000  Uiso   1.00
O392   O     0.87154   0.43892   0.25000   0.00000  Uiso   1.00
O393   O     0.87157   0.56107   0.25000   0.00000  Uiso   1.00
O394   O     0.79510   0.43893   0.25000   0.00000  Uiso   1.00
C395   C     0.83305   0.57984   0.25027   0.00000  Uiso   1.00
C396   C     0.83364   0.42015   0.24967   0.00000  Uiso   1.00
O397   O     0.77328   0.50001   0.31613   0.00000  Uiso   1.00
O398   O     0.89339   0.49999   0.18388   0.00000  Uiso   1.00
O399   O     0.84972   0.50000   0.31612   0.00000  Uiso   1.00
O400   O     0.81695   0.50000   0.18388   0.00000  Uiso   1.00
C401   C     0.80198   0.50041   0.33858   0.00000  Uiso   1.00
C402   C     0.86465   0.49886   0.16141   0.00000  Uiso   1.00
Zn403  Zn    0.78229   0.50001   0.25000   0.00000  Uiso   1.00
Zn404  Zn    0.88438   0.49999   0.25000   0.00000  Uiso   1.00
C405   C     0.78055   0.50068   0.39069   0.00000  Uiso   1.00
C406   C     0.88484   0.49021   0.11015   0.00000  Uiso   1.00
C407   C     0.71975   0.52271   0.46824   0.00000  Uiso   1.00
C408   C     0.93612   0.44881   0.04071   0.00000  Uiso   1.00
C409   C     0.73461   0.51964   0.41853   0.00000  Uiso   1.00
C410   C     0.92755   0.46533   0.08617   0.00000  Uiso   1.00
C411   C     0.81016   0.48431   0.41208   0.00000  Uiso   1.00
C412   C     0.85326   0.49970   0.08818   0.00000  Uiso   1.00
C413   C     0.79748   0.48775   0.46063   0.00000  Uiso   1.00
C414   C     0.85783   0.48038   0.04609   0.00000  Uiso   1.00
C415   C     0.75182   0.50741   0.48906   0.00000  Uiso   1.00
C416   C     0.90104   0.45660   0.02058   0.00000  Uiso   1.00
C417   C     0.83090   0.47462   0.48097   0.00000  Uiso   1.00
C418   C     0.82071   0.48577   0.02828   0.00000  Uiso   1.00
C419   C     0.77316   0.50101   0.05692   0.00000  Uiso   1.00
C420   C     0.87463   0.45154   0.45556   0.00000  Uiso   1.00
C421   C     0.73933   0.51106   0.03782   0.00000  Uiso   1.00
C422   C     0.90857   0.44253   0.47506   0.00000  Uiso   1.00
H423   H     0.70374   0.52262   0.06195   0.00000  Uiso   1.00
H424   H     0.94145   0.42551   0.45303   0.00000  Uiso   1.00
H425   H     0.82373   0.52187   0.10570   0.00000  Uiso   1.00
H426   H     0.84501   0.47098   0.38910   0.00000  Uiso   1.00
H427   H     0.76068   0.50450   0.09479   0.00000  Uiso   1.00
H428   H     0.88342   0.43876   0.42075   0.00000  Uiso   1.00
C429   C     0.83069   0.64532   0.29146   0.00000  Uiso   1.00
C430   C     0.83588   0.35463   0.20847   0.00000  Uiso   1.00
C431   C     0.83211   0.35552   0.29006   0.00000  Uiso   1.00
C432   C     0.83472   0.64443   0.20977   0.00000  Uiso   1.00
C433   C     0.83452   0.37596   0.24898   0.00000  Uiso   1.00
C434   C     0.83216   0.62401   0.25092   0.00000  Uiso   1.00
C435   C     0.98703   0.47111   0.22405   0.00000  Uiso   1.00
C436   C     0.67965   0.52890   0.27593   0.00000  Uiso   1.00
H437   H     0.97766   0.44793   0.20340   0.00000  Uiso   1.00
H438   H     0.68902   0.55207   0.29661   0.00000  Uiso   1.00
C439   C     0.70165   0.47114   0.22401   0.00000  Uiso   1.00
C440   C     0.96504   0.52888   0.27594   0.00000  Uiso   1.00
H441   H     0.72860   0.44807   0.20318   0.00000  Uiso   1.00
H442   H     0.93810   0.55198   0.29673   0.00000  Uiso   1.00
N443   N     0.71426   0.50001   0.25001   0.00000  Uiso   1.00
N444   N     0.95241   0.49999   0.24999   0.00000  Uiso   1.00
C445   C     0.96202   0.45530   0.10909   0.00000  Uiso   1.00
H446   H     0.97413   0.47980   0.12633   0.00000  Uiso   1.00
O447   O     0.97683   0.41949   0.10926   0.00000  Uiso   1.00
C448   C     0.70429   0.53925   0.39548   0.00000  Uiso   1.00
H449   H     0.69128   0.52061   0.37340   0.00000  Uiso   1.00
O450   O     0.69385   0.57654   0.40100   0.00000  Uiso   1.00
C451   C     0.67189   0.54345   0.49799   0.00000  Uiso   1.00
H452   H     0.66906   0.56375   0.02721   0.00000  Uiso   1.00
O453   O     0.96829   0.53794   0.49021   0.00000  Uiso   1.00
C454   C     0.98182   0.42382   0.01511   0.00000  Uiso   1.00
H455   H     0.68355   0.43466   0.01426   0.00000  Uiso   1.00
O456   O     0.98025   0.38988   0.49738   0.00000  Uiso   1.00
C457   C     0.82684   0.62186   0.33473   0.00000  Uiso   1.00
H458   H     0.81348   0.58993   0.34012   0.00000  Uiso   1.00
O459   O     0.83922   0.63748   0.36447   0.00000  Uiso   1.00
C460   C     0.83926   0.37809   0.16535   0.00000  Uiso   1.00
H461   H     0.85199   0.41016   0.16018   0.00000  Uiso   1.00
O462   O     0.82713   0.36230   0.13553   0.00000  Uiso   1.00
N463   N     0.82822   0.37941   0.33094   0.00000  Uiso   1.00
O464   O     0.78545   0.38487   0.36570   0.00000  Uiso   1.00
O465   O     0.86746   0.39537   0.33354   0.00000  Uiso   1.00
N466   N     0.83924   0.62053   0.16869   0.00000  Uiso   1.00
O467   O     0.88203   0.61629   0.13366   0.00000  Uiso   1.00
O468   O     0.80057   0.60330   0.16620   0.00000  Uiso   1.00
O469   O     0.12846   0.89442   0.25001   0.00000  Uiso   1.00
O470   O     0.20488   0.77225   0.25000   0.00000  Uiso   1.00
O471   O     0.20490   0.89441   0.25000   0.00000  Uiso   1.00
O472   O     0.12843   0.77226   0.25000   0.00000  Uiso   1.00
C473   C     0.16638   0.91317   0.25027   0.00000  Uiso   1.00
C474   C     0.16698   0.75348   0.24967   0.00000  Uiso   1.00
O475   O     0.10661   0.83334   0.31613   0.00000  Uiso   1.00
O476   O     0.22672   0.83333   0.18388   0.00000  Uiso   1.00
O477   O     0.18305   0.83333   0.31612   0.00000  Uiso   1.00
O478   O     0.15028   0.83334   0.18388   0.00000  Uiso   1.00
C479   C     0.13531   0.83375   0.33858   0.00000  Uiso   1.00
C480   C     0.19799   0.83219   0.16141   0.00000  Uiso   1.00
Zn481  Zn    0.11562   0.83334   0.25000   0.00000  Uiso   1.00
Zn482  Zn    0.21771   0.83333   0.25000   0.00000  Uiso   1.00
C483   C     0.11388   0.83401   0.39069   0.00000  Uiso   1.00
C484   C     0.21817   0.82354   0.11015   0.00000  Uiso   1.00
C485   C     0.05308   0.85604   0.46824   0.00000  Uiso   1.00
C486   C     0.26945   0.78215   0.04071   0.00000  Uiso   1.00
C487   C     0.06795   0.85297   0.41853   0.00000  Uiso   1.00
C488   C     0.26089   0.79866   0.08617   0.00000  Uiso   1.00
C489   C     0.14349   0.81764   0.41208   0.00000  Uiso   1.00
C490   C     0.18659   0.83304   0.08818   0.00000  Uiso   1.00
C491   C     0.13081   0.82108   0.46063   0.00000  Uiso   1.00
C492   C     0.19117   0.81371   0.04609   0.00000  Uiso   1.00
C493   C     0.08516   0.84074   0.48906   0.00000  Uiso   1.00
C494   C     0.23437   0.78994   0.02058   0.00000  Uiso   1.00
C495   C     0.16423   0.80795   0.48097   0.00000  Uiso   1.00
C496   C     0.15404   0.81910   0.02828   0.00000  Uiso   1.00
C497   C     0.10649   0.83434   0.05692   0.00000  Uiso   1.00
C498   C     0.20796   0.78487   0.45556   0.00000  Uiso   1.00
C499   C     0.07266   0.84439   0.03782   0.00000  Uiso   1.00
C500   C     0.24190   0.77586   0.47506   0.00000  Uiso   1.00
H501   H     0.03707   0.85596   0.06195   0.00000  Uiso   1.00
H502   H     0.27479   0.75884   0.45303   0.00000  Uiso   1.00
H503   H     0.15707   0.85520   0.10570   0.00000  Uiso   1.00
H504   H     0.17834   0.80432   0.38910   0.00000  Uiso   1.00
H505   H     0.09401   0.83784   0.09479   0.00000  Uiso   1.00
H506   H     0.21675   0.77209   0.42075   0.00000  Uiso   1.00
C507   C     0.16402   0.97866   0.29146   0.00000  Uiso   1.00
C508   C     0.16921   0.68797   0.20847   0.00000  Uiso   1.00
C509   C     0.16545   0.68885   0.29006   0.00000  Uiso   1.00
C510   C     0.16806   0.97776   0.20977   0.00000  Uiso   1.00
C511   C     0.16785   0.70930   0.24898   0.00000  Uiso   1.00
C512   C     0.16549   0.95734   0.25092   0.00000  Uiso   1.00
C513   C     0.32036   0.80444   0.22405   0.00000  Uiso   1.00
C514   C     0.01298   0.86224   0.27593   0.00000  Uiso   1.00
H515   H     0.31099   0.78127   0.20340   0.00000  Uiso   1.00
H516   H     0.02235   0.88540   0.29661   0.00000  Uiso   1.00
C517   C     0.03498   0.80448   0.22401   0.00000  Uiso   1.00
C518   C     0.29837   0.86222   0.27594   0.00000  Uiso   1.00
H519   H     0.06194   0.78141   0.20318   0.00000  Uiso   1.00
H520   H     0.27143   0.88532   0.29673   0.00000  Uiso   1.00
N521   N     0.04759   0.83334   0.25001   0.00000  Uiso   1.00
N522   N     0.28574   0.83332   0.24999   0.00000  Uiso   1.00
C523   C     0.29535   0.78863   0.10909   0.00000  Uiso   1.00
H524   H     0.30747   0.81313   0.12633   0.00000  Uiso   1.00
O525   O     0.31016   0.75283   0.10926   0.00000  Uiso   1.00
C526   C     0.03763   0.87259   0.39548   0.00000  Uiso   1.00
H527   H     0.02461   0.85394   0.37340   0.00000  Uiso   1.00
O528   O     0.02719   0.90987   0.40100   0.00000  Uiso   1.00
C529   C     0.00522   0.87678   0.49799   0.00000  Uiso   1.00
H530   H     0.00240   0.89708   0.02721   0.00000  Uiso   1.00
O531   O     0.30163   0.87127   0.49021   0.00000  Uiso   1.00
C532   C     0.31515   0.75715   0.01511   0.00000  Uiso   1.00
H533   H     0.01688   0.76799   0.01426   0.00000  Uiso   1.00
O534   O     0.31358   0.72322   0.49738   0.00000  Uiso   1.00
C535   C     0.16017   0.95520   0.33473   0.00000  Uiso   1.00
H536   H     0.14681   0.92327   0.34012   0.00000  Uiso   1.00
O537   O     0.17255   0.97081   0.36447   0.00000  Uiso   1.00
C538   C     0.17260   0.71142   0.16535   0.00000  Uiso   1.00
H539   H     0.18532   0.74350   0.16018   0.00000  Uiso   1.00
O540   O     0.16046   0.69564   0.13553   0.00000  Uiso   1.00
N541   N     0.16155   0.71274   0.33094   0.00000  Uiso   1.00
O542   O     0.11879   0.71820   0.36570   0.00000  Uiso   1.00
O543   O     0.20079   0.72870   0.33354   0.00000  Uiso   1.00
N544   N     0.17257   0.95387   0.16869   0.00000  Uiso   1.00
O545   O     0.21536   0.94962   0.13366   0.00000  Uiso   1.00
O546   O     0.13390   0.93663   0.16620   0.00000  Uiso   1.00
O547   O     0.46179   0.89442   0.25001   0.00000  Uiso   1.00
O548   O     0.53821   0.77225   0.25000   0.00000  Uiso   1.00
O549   O     0.53823   0.89441   0.25000   0.00000  Uiso   1.00
O550   O     0.46177   0.77226   0.25000   0.00000  Uiso   1.00
C551   C     0.49971   0.91317   0.25027   0.00000  Uiso   1.00
C552   C     0.50031   0.75348   0.24967   0.00000  Uiso   1.00
O553   O     0.43994   0.83334   0.31613   0.00000  Uiso   1.00
O554   O     0.56006   0.83333   0.18388   0.00000  Uiso   1.00
O555   O     0.51639   0.83333   0.31612   0.00000  Uiso   1.00
O556   O     0.48361   0.83334   0.18388   0.00000  Uiso   1.00
C557   C     0.46864   0.83375   0.33858   0.00000  Uiso   1.00
C558   C     0.53132   0.83219   0.16141   0.00000  Uiso   1.00
Zn559  Zn    0.44896   0.83334   0.25000   0.00000  Uiso   1.00
Zn560  Zn    0.55104   0.83333   0.25000   0.00000  Uiso   1.00
C561   C     0.44721   0.83401   0.39069   0.00000  Uiso   1.00
C562   C     0.55150   0.82354   0.11015   0.00000  Uiso   1.00
C563   C     0.38642   0.85604   0.46824   0.00000  Uiso   1.00
C564   C     0.60278   0.78215   0.04071   0.00000  Uiso   1.00
C565   C     0.40128   0.85297   0.41853   0.00000  Uiso   1.00
C566   C     0.59422   0.79866   0.08617   0.00000  Uiso   1.00
C567   C     0.47682   0.81764   0.41208   0.00000  Uiso   1.00
C568   C     0.51993   0.83304   0.08818   0.00000  Uiso   1.00
C569   C     0.46414   0.82108   0.46063   0.00000  Uiso   1.00
C570   C     0.52450   0.81371   0.04609   0.00000  Uiso   1.00
C571   C     0.41849   0.84074   0.48906   0.00000  Uiso   1.00
C572   C     0.56771   0.78994   0.02058   0.00000  Uiso   1.00
C573   C     0.49757   0.80795   0.48097   0.00000  Uiso   1.00
C574   C     0.48737   0.81910   0.02828   0.00000  Uiso   1.00
C575   C     0.43983   0.83434   0.05692   0.00000  Uiso   1.00
C576   C     0.54129   0.78487   0.45556   0.00000  Uiso   1.00
C577   C     0.40599   0.84439   0.03782   0.00000  Uiso   1.00
C578   C     0.57524   0.77586   0.47506   0.00000  Uiso   1.00
H579   H     0.37041   0.85596   0.06195   0.00000  Uiso   1.00
H580   H     0.60812   0.75884   0.45303   0.00000  Uiso   1.00
H581   H     0.49040   0.85520   0.10570   0.00000  Uiso   1.00
H582   H     0.51167   0.80432   0.38910   0.00000  Uiso   1.00
H583   H     0.42735   0.83784   0.09479   0.00000  Uiso   1.00
H584   H     0.55008   0.77209   0.42075   0.00000  Uiso   1.00
C585   C     0.49735   0.97866   0.29146   0.00000  Uiso   1.00
C586   C     0.50255   0.68797   0.20847   0.00000  Uiso   1.00
C587   C     0.49878   0.68885   0.29006   0.00000  Uiso   1.00
C588   C     0.50139   0.97776   0.20977   0.00000  Uiso   1.00
C589   C     0.50118   0.70930   0.24898   0.00000  Uiso   1.00
C590   C     0.49883   0.95734   0.25092   0.00000  Uiso   1.00
C591   C     0.65370   0.80444   0.22405   0.00000  Uiso   1.00
C592   C     0.34631   0.86224   0.27593   0.00000  Uiso   1.00
H593   H     0.64433   0.78127   0.20340   0.00000  Uiso   1.00
H594   H     0.35568   0.88540   0.29661   0.00000  Uiso   1.00
C595   C     0.36831   0.80448   0.22401   0.00000  Uiso   1.00
C596   C     0.63171   0.86222   0.27594   0.00000  Uiso   1.00
H597   H     0.39527   0.78141   0.20318   0.00000  Uiso   1.00
H598   H     0.60477   0.88532   0.29673   0.00000  Uiso   1.00
N599   N     0.38093   0.83334   0.25001   0.00000  Uiso   1.00
N600   N     0.61907   0.83332   0.24999   0.00000  Uiso   1.00
C601   C     0.62869   0.78863   0.10909   0.00000  Uiso   1.00
H602   H     0.64080   0.81313   0.12633   0.00000  Uiso   1.00
O603   O     0.64350   0.75283   0.10926   0.00000  Uiso   1.00
C604   C     0.37096   0.87259   0.39548   0.00000  Uiso   1.00
H605   H     0.35794   0.85394   0.37340   0.00000  Uiso   1.00
O606   O     0.36052   0.90987   0.40100   0.00000  Uiso   1.00
C607   C     0.33855   0.87678   0.49799   0.00000  Uiso   1.00
H608   H     0.33573   0.89708   0.02721   0.00000  Uiso   1.00
O609   O     0.63496   0.87127   0.49021   0.00000  Uiso   1.00
C610   C     0.64848   0.75715   0.01511   0.00000  Uiso   1.00
H611   H     0.35022   0.76799   0.01426   0.00000  Uiso   1.00
O612   O     0.64692   0.72322   0.49738   0.00000  Uiso   1.00
C613   C     0.49350   0.95520   0.33473   0.00000  Uiso   1.00
H614   H     0.48014   0.92327   0.34012   0.00000  Uiso   1.00
O615   O     0.50589   0.97081   0.36447   0.00000  Uiso   1.00
C616   C     0.50593   0.71142   0.16535   0.00000  Uiso   1.00
H617   H     0.51865   0.74350   0.16018   0.00000  Uiso   1.00
O618   O     0.49379   0.69564   0.13553   0.00000  Uiso   1.00
N619   N     0.49488   0.71274   0.33094   0.00000  Uiso   1.00
O620   O     0.45212   0.71820   0.36570   0.00000  Uiso   1.00
O621   O     0.53413   0.72870   0.33354   0.00000  Uiso   1.00
N622   N     0.50590   0.95387   0.16869   0.00000  Uiso   1.00
O623   O     0.54869   0.94962   0.13366   0.00000  Uiso   1.00
O624   O     0.46723   0.93663   0.16620   0.00000  Uiso   1.00
O625   O     0.79512   0.89442   0.25001   0.00000  Uiso   1.00
O626   O     0.87154   0.77225   0.25000   0.00000  Uiso   1.00
O627   O     0.87157   0.89441   0.25000   0.00000  Uiso   1.00
O628   O     0.79510   0.77226   0.25000   0.00000  Uiso   1.00
C629   C     0.83305   0.91317   0.25027   0.00000  Uiso   1.00
C630   C     0.83364   0.75348   0.24967   0.00000  Uiso   1.00
O631   O     0.77328   0.83334   0.31613   0.00000  Uiso   1.00
O632   O     0.89339   0.83333   0.18388   0.00000  Uiso   1.00
O633   O     0.84972   0.83333   0.31612   0.00000  Uiso   1.00
O634   O     0.81695   0.83334   0.18388   0.00000  Uiso   1.00
C635   C     0.80198   0.83375   0.33858   0.00000  Uiso   1.00
C636   C     0.86465   0.83219   0.16141   0.00000  Uiso   1.00
Zn637  Zn    0.78229   0.83334   0.25000   0.00000  Uiso   1.00
Zn638  Zn    0.88438   0.83333   0.25000   0.00000  Uiso   1.00
C639   C     0.78055   0.83401   0.39069   0.00000  Uiso   1.00
C640   C     0.88484   0.82354   0.11015   0.00000  Uiso   1.00
C641   C     0.71975   0.85604   0.46824   0.00000  Uiso   1.00
C642   C     0.93612   0.78215   0.04071   0.00000  Uiso   1.00
C643   C     0.73461   0.85297   0.41853   0.00000  Uiso   1.00
C644   C     0.92755   0.79866   0.08617   0.00000  Uiso   1.00
C645   C     0.81016   0.81764   0.41208   0.00000  Uiso   1.00
C646   C     0.85326   0.83304   0.08818   0.00000  Uiso   1.00
C647   C     0.79748   0.82108   0.46063   0.00000  Uiso   1.00
C648   C     0.85783   0.81371   0.04609   0.00000  Uiso   1.00
C649   C     0.75182   0.84074   0.48906   0.00000  Uiso   1.00
C650   C     0.90104   0.78994   0.02058   0.00000  Uiso   1.00
C651   C     0.83090   0.80795   0.48097   0.00000  Uiso   1.00
C652   C     0.82071   0.81910   0.02828   0.00000  Uiso   1.00
C653   C     0.77316   0.83434   0.05692   0.00000  Uiso   1.00
C654   C     0.87463   0.78487   0.45556   0.00000  Uiso   1.00
C655   C     0.73933   0.84439   0.03782   0.00000  Uiso   1.00
C656   C     0.90857   0.77586   0.47506   0.00000  Uiso   1.00
H657   H     0.70374   0.85596   0.06195   0.00000  Uiso   1.00
H658   H     0.94145   0.75884   0.45303   0.00000  Uiso   1.00
H659   H     0.82373   0.85520   0.10570   0.00000  Uiso   1.00
H660   H     0.84501   0.80432   0.38910   0.00000  Uiso   1.00
H661   H     0.76068   0.83784   0.09479   0.00000  Uiso   1.00
H662   H     0.88342   0.77209   0.42075   0.00000  Uiso   1.00
C663   C     0.83069   0.97866   0.29146   0.00000  Uiso   1.00
C664   C     0.83588   0.68797   0.20847   0.00000  Uiso   1.00
C665   C     0.83211   0.68885   0.29006   0.00000  Uiso   1.00
C666   C     0.83472   0.97776   0.20977   0.00000  Uiso   1.00
C667   C     0.83452   0.70930   0.24898   0.00000  Uiso   1.00
C668   C     0.83216   0.95734   0.25092   0.00000  Uiso   1.00
C669   C     0.98703   0.80444   0.22405   0.00000  Uiso   1.00
C670   C     0.67965   0.86224   0.27593   0.00000  Uiso   1.00
H671   H     0.97766   0.78127   0.20340   0.00000  Uiso   1.00
H672   H     0.68902   0.88540   0.29661   0.00000  Uiso   1.00
C673   C     0.70165   0.80448   0.22401   0.00000  Uiso   1.00
C674   C     0.96504   0.86222   0.27594   0.00000  Uiso   1.00
H675   H     0.72860   0.78141   0.20318   0.00000  Uiso   1.00
H676   H     0.93810   0.88532   0.29673   0.00000  Uiso   1.00
N677   N     0.71426   0.83334   0.25001   0.00000  Uiso   1.00
N678   N     0.95241   0.83332   0.24999   0.00000  Uiso   1.00
C679   C     0.96202   0.78863   0.10909   0.00000  Uiso   1.00
H680   H     0.97413   0.81313   0.12633   0.00000  Uiso   1.00
O681   O     0.97683   0.75283   0.10926   0.00000  Uiso   1.00
C682   C     0.70429   0.87259   0.39548   0.00000  Uiso   1.00
H683   H     0.69128   0.85394   0.37340   0.00000  Uiso   1.00
O684   O     0.69385   0.90987   0.40100   0.00000  Uiso   1.00
C685   C     0.67189   0.87678   0.49799   0.00000  Uiso   1.00
H686   H     0.66906   0.89708   0.02721   0.00000  Uiso   1.00
O687   O     0.96829   0.87127   0.49021   0.00000  Uiso   1.00
C688   C     0.98182   0.75715   0.01511   0.00000  Uiso   1.00
H689   H     0.68355   0.76799   0.01426   0.00000  Uiso   1.00
O690   O     0.98025   0.72322   0.49738   0.00000  Uiso   1.00
C691   C     0.82684   0.95520   0.33473   0.00000  Uiso   1.00
H692   H     0.81348   0.92327   0.34012   0.00000  Uiso   1.00
O693   O     0.83922   0.97081   0.36447   0.00000  Uiso   1.00
C694   C     0.83926   0.71142   0.16535   0.00000  Uiso   1.00
H695   H     0.85199   0.74350   0.16018   0.00000  Uiso   1.00
O696   O     0.82713   0.69564   0.13553   0.00000  Uiso   1.00
N697   N     0.82822   0.71274   0.33094   0.00000  Uiso   1.00
O698   O     0.78545   0.71820   0.36570   0.00000  Uiso   1.00
O699   O     0.86746   0.72870   0.33354   0.00000  Uiso   1.00
N700   N     0.83924   0.95387   0.16869   0.00000  Uiso   1.00
O701   O     0.88203   0.94962   0.13366   0.00000  Uiso   1.00
O702   O     0.80057   0.93663   0.16620   0.00000  Uiso   1.00
O703   O     0.12846   0.22775   0.75001   0.00000  Uiso   1.00
O704   O     0.20488   0.10558   0.75000   0.00000  Uiso   1.00
O705   O     0.20490   0.22774   0.75000   0.00000  Uiso   1.00
O706   O     0.12843   0.10559   0.75000   0.00000  Uiso   1.00
C707   C     0.16638   0.24651   0.75027   0.00000  Uiso   1.00
C708   C     0.16698   0.08681   0.74967   0.00000  Uiso   1.00
O709   O     0.10661   0.16667   0.81613   0.00000  Uiso   1.00
O710   O     0.22672   0.16666   0.68388   0.00000  Uiso   1.00
O711   O     0.18305   0.16666   0.81612   0.00000  Uiso   1.00
O712   O     0.15028   0.16667   0.68388   0.00000  Uiso   1.00
C713   C     0.13531   0.16708   0.83858   0.00000  Uiso   1.00
C714   C     0.19799   0.16552   0.66141   0.00000  Uiso   1.00
Zn715  Zn    0.11562   0.16667   0.75000   0.00000  Uiso   1.00
Zn716  Zn    0.21771   0.16666   0.75000   0.00000  Uiso   1.00
C717   C     0.11388   0.16734   0.89069   0.00000  Uiso   1.00
C718   C     0.21817   0.15688   0.61015   0.00000  Uiso   1.00
C719   C     0.05308   0.18937   0.96824   0.00000  Uiso   1.00
C720   C     0.26945   0.11548   0.54071   0.00000  Uiso   1.00
C721   C     0.06795   0.18630   0.91853   0.00000  Uiso   1.00
C722   C     0.26089   0.13200   0.58617   0.00000  Uiso   1.00
C723   C     0.14349   0.15098   0.91208   0.00000  Uiso   1.00
C724   C     0.18659   0.16637   0.58818   0.00000  Uiso   1.00
C725   C     0.13081   0.15442   0.96063   0.00000  Uiso   1.00
C726   C     0.19117   0.14704   0.54609   0.00000  Uiso   1.00
C727   C     0.08516   0.17407   0.98906   0.00000  Uiso   1.00
C728   C     0.23437   0.12327   0.52058   0.00000  Uiso   1.00
C729   C     0.16423   0.14128   0.98097   0.00000  Uiso   1.00
C730   C     0.15404   0.15244   0.52828   0.00000  Uiso   1.00
C731   C     0.10649   0.16767   0.55692   0.00000  Uiso   1.00
C732   C     0.20796   0.11820   0.95556   0.00000  Uiso   1.00
C733   C     0.07266   0.17773   0.53782   0.00000  Uiso   1.00
C734   C     0.24190   0.10920   0.97506   0.00000  Uiso   1.00
H735   H     0.03707   0.18929   0.56195   0.00000  Uiso   1.00
H736   H     0.27479   0.09217   0.95303   0.00000  Uiso   1.00
H737   H     0.15707   0.18854   0.60570   0.00000  Uiso   1.00
H738   H     0.17834   0.13765   0.88910   0.00000  Uiso   1.00
H739   H     0.09401   0.17117   0.59479   0.00000  Uiso   1.00
H740   H     0.21675   0.10543   0.92075   0.00000  Uiso   1.00
C741   C     0.16402   0.31199   0.79146   0.00000  Uiso   1.00
C742   C     0.16921   0.02130   0.70847   0.00000  Uiso   1.00
C743   C     0.16545   0.02219   0.79006   0.00000  Uiso   1.00
C744   C     0.16806   0.31109   0.70977   0.00000  Uiso   1.00
C745   C     0.16785   0.04263   0.74898   0.00000  Uiso   1.00
C746   C     0.16549   0.29067   0.75092   0.00000  Uiso   1.00
C747   C     0.32036   0.13777   0.72405   0.00000  Uiso   1.00
C748   C     0.01298   0.19557   0.77593   0.00000  Uiso   1.00
H749   H     0.31099   0.11460   0.70340   0.00000  Uiso   1.00
H750   H     0.02235   0.21873   0.79661   0.00000  Uiso   1.00
C751   C     0.03498   0.13781   0.72401   0.00000  Uiso   1.00
C752   C     0.29837   0.19555   0.77594   0.00000  Uiso   1.00
H753   H     0.06194   0.11474   0.70318   0.00000  Uiso   1.00
H754   H     0.27143   0.21865   0.79673   0.00000  Uiso   1.00
N755   N     0.04759   0.16668   0.75001   0.00000  Uiso   1.00
N756   N     0.28574   0.16666   0.74999   0.00000  Uiso   1.00
C757   C     0.29535   0.12197   0.60909   0.00000  Uiso   1.00
H758   H     0.30747   0.14646   0.62633   0.00000  Uiso   1.00
O759   O     0.31016   0.08616   0.60926   0.00000  Uiso   1.00
C760   C     0.03763   0.20592   0.89548   0.00000  Uiso   1.00
H761   H     0.02461   0.18727   0.87340   0.00000  Uiso   1.00
O762   O     0.02719   0.24321   0.90100   0.00000  Uiso   1.00
C763   C     0.00522   0.21011   0.99799   0.00000  Uiso   1.00
H764   H     0.00240   0.23042   0.52721   0.00000  Uiso   1.00
O765   O     0.30163   0.20460   0.99021   0.00000  Uiso   1.00
C766   C     0.31515   0.09048   0.51511   0.00000  Uiso   1.00
H767   H     0.01688   0.10133   0.51426   0.00000  Uiso   1.00
O768   O     0.31358   0.05655   0.99738   0.00000  Uiso   1.00
C769   C     0.16017   0.28853   0.83473   0.00000  Uiso   1.00
H770   H     0.14681   0.25660   0.84012   0.00000  Uiso   1.00
O771   O     0.17255   0.30415   0.86447   0.00000  Uiso   1.00
C772   C     0.17260   0.04475   0.66535   0.00000  Uiso   1.00
H773   H     0.18532   0.07683   0.66018   0.00000  Uiso   1.00
O774   O     0.16046   0.02897   0.63553   0.00000  Uiso   1.00
N775   N     0.16155   0.04607   0.83094   0.00000  Uiso   1.00
O776   O     0.11879   0.05154   0.86570   0.00000  Uiso   1.00
O777   O     0.20079   0.06203   0.83354   0.00000  Uiso   1.00
N778   N     0.17257   0.28720   0.66869   0.00000  Uiso   1.00
O779   O     0.21536   0.28296   0.63366   0.00000  Uiso   1.00
O780   O     0.13390   0.26996   0.66620   0.00000  Uiso   1.00
O781   O     0.46179   0.22775   0.75001   0.00000  Uiso   1.00
O782   O     0.53821   0.10558   0.75000   0.00000  Uiso   1.00
O783   O     0.53823   0.22774   0.75000   0.00000  Uiso   1.00
O784   O     0.46177   0.10559   0.75000   0.00000  Uiso   1.00
C785   C     0.49971   0.24651   0.75027   0.00000  Uiso   1.00
C786   C     0.50031   0.08681   0.74967   0.00000  Uiso   1.00
O787   O     0.43994   0.16667   0.81613   0.00000  Uiso   1.00
O788   O     0.56006   0.16666   0.68388   0.00000  Uiso   1.00
O789   O     0.51639   0.16666   0.81612   0.00000  Uiso   1.00
O790   O     0.48361   0.16667   0.68388   0.00000  Uiso   1.00
C791   C     0.46864   0.16708   0.83858   0.00000  Uiso   1.00
C792   C     0.53132   0.16552   0.66141   0.00000  Uiso   1.00
Zn793  Zn    0.44896   0.16667   0.75000   0.00000  Uiso   1.00
Zn794  Zn    0.55104   0.16666   0.75000   0.00000  Uiso   1.00
C795   C     0.44721   0.16734   0.89069   0.00000  Uiso   1.00
C796   C     0.55150   0.15688   0.61015   0.00000  Uiso   1.00
C797   C     0.38642   0.18937   0.96824   0.00000  Uiso   1.00
C798   C     0.60278   0.11548   0.54071   0.00000  Uiso   1.00
C799   C     0.40128   0.18630   0.91853   0.00000  Uiso   1.00
C800   C     0.59422   0.13200   0.58617   0.00000  Uiso   1.00
C801   C     0.47682   0.15098   0.91208   0.00000  Uiso   1.00
C802   C     0.51993   0.16637   0.58818   0.00000  Uiso   1.00
C803   C     0.46414   0.15442   0.96063   0.00000  Uiso   1.00
C804   C     0.52450   0.14704   0.54609   0.00000  Uiso   1.00
C805   C     0.41849   0.17407   0.98906   0.00000  Uiso   1.00
C806   C     0.56771   0.12327   0.52058   0.00000  Uiso   1.00
C807   C     0.49757   0.14128   0.98097   0.00000  Uiso   1.00
C808   C     0.48737   0.15244   0.52828   0.00000  Uiso   1.00
C809   C     0.43983   0.16767   0.55692   0.00000  Uiso   1.00
C810   C     0.54129   0.11820   0.95556   0.00000  Uiso   1.00
C811   C     0.40599   0.17773   0.53782   0.00000  Uiso   1.00
C812   C     0.57524   0.10920   0.97506   0.00000  Uiso   1.00
H813   H     0.37041   0.18929   0.56195   0.00000  Uiso   1.00
H814   H     0.60812   0.09217   0.95303   0.00000  Uiso   1.00
H815   H     0.49040   0.18854   0.60570   0.00000  Uiso   1.00
H816   H     0.51167   0.13765   0.88910   0.00000  Uiso   1.00
H817   H     0.42735   0.17117   0.59479   0.00000  Uiso   1.00
H818   H     0.55008   0.10543   0.92075   0.00000  Uiso   1.00
C819   C     0.49735   0.31199   0.79146   0.00000  Uiso   1.00
C820   C     0.50255   0.02130   0.70847   0.00000  Uiso   1.00
C821   C     0.49878   0.02219   0.79006   0.00000  Uiso   1.00
C822   C     0.50139   0.31109   0.70977   0.00000  Uiso   1.00
C823   C     0.50118   0.04263   0.74898   0.00000  Uiso   1.00
C824   C     0.49883   0.29067   0.75092   0.00000  Uiso   1.00
C825   C     0.65370   0.13777   0.72405   0.00000  Uiso   1.00
C826   C     0.34631   0.19557   0.77593   0.00000  Uiso   1.00
H827   H     0.64433   0.11460   0.70340   0.00000  Uiso   1.00
H828   H     0.35568   0.21873   0.79661   0.00000  Uiso   1.00
C829   C     0.36831   0.13781   0.72401   0.00000  Uiso   1.00
C830   C     0.63171   0.19555   0.77594   0.00000  Uiso   1.00
H831   H     0.39527   0.11474   0.70318   0.00000  Uiso   1.00
H832   H     0.60477   0.21865   0.79673   0.00000  Uiso   1.00
N833   N     0.38093   0.16668   0.75001   0.00000  Uiso   1.00
N834   N     0.61907   0.16666   0.74999   0.00000  Uiso   1.00
C835   C     0.62869   0.12197   0.60909   0.00000  Uiso   1.00
H836   H     0.64080   0.14646   0.62633   0.00000  Uiso   1.00
O837   O     0.64350   0.08616   0.60926   0.00000  Uiso   1.00
C838   C     0.37096   0.20592   0.89548   0.00000  Uiso   1.00
H839   H     0.35794   0.18727   0.87340   0.00000  Uiso   1.00
O840   O     0.36052   0.24321   0.90100   0.00000  Uiso   1.00
C841   C     0.33855   0.21011   0.99799   0.00000  Uiso   1.00
H842   H     0.33573   0.23042   0.52721   0.00000  Uiso   1.00
O843   O     0.63496   0.20460   0.99021   0.00000  Uiso   1.00
C844   C     0.64848   0.09048   0.51511   0.00000  Uiso   1.00
H845   H     0.35022   0.10133   0.51426   0.00000  Uiso   1.00
O846   O     0.64692   0.05655   0.99738   0.00000  Uiso   1.00
C847   C     0.49350   0.28853   0.83473   0.00000  Uiso   1.00
H848   H     0.48014   0.25660   0.84012   0.00000  Uiso   1.00
O849   O     0.50589   0.30415   0.86447   0.00000  Uiso   1.00
C850   C     0.50593   0.04475   0.66535   0.00000  Uiso   1.00
H851   H     0.51865   0.07683   0.66018   0.00000  Uiso   1.00
O852   O     0.49379   0.02897   0.63553   0.00000  Uiso   1.00
N853   N     0.49488   0.04607   0.83094   0.00000  Uiso   1.00
O854   O     0.45212   0.05154   0.86570   0.00000  Uiso   1.00
O855   O     0.53413   0.06203   0.83354   0.00000  Uiso   1.00
N856   N     0.50590   0.28720   0.66869   0.00000  Uiso   1.00
O857   O     0.54869   0.28296   0.63366   0.00000  Uiso   1.00
O858   O     0.46723   0.26996   0.66620   0.00000  Uiso   1.00
O859   O     0.79512   0.22775   0.75001   0.00000  Uiso   1.00
O860   O     0.87154   0.10558   0.75000   0.00000  Uiso   1.00
O861   O     0.87157   0.22774   0.75000   0.00000  Uiso   1.00
O862   O     0.79510   0.10559   0.75000   0.00000  Uiso   1.00
C863   C     0.83305   0.24651   0.75027   0.00000  Uiso   1.00
C864   C     0.83364   0.08681   0.74967   0.00000  Uiso   1.00
O865   O     0.77328   0.16667   0.81613   0.00000  Uiso   1.00
O866   O     0.89339   0.16666   0.68388   0.00000  Uiso   1.00
O867   O     0.84972   0.16666   0.81612   0.00000  Uiso   1.00
O868   O     0.81695   0.16667   0.68388   0.00000  Uiso   1.00
C869   C     0.80198   0.16708   0.83858   0.00000  Uiso   1.00
C870   C     0.86465   0.16552   0.66141   0.00000  Uiso   1.00
Zn871  Zn    0.78229   0.16667   0.75000   0.00000  Uiso   1.00
Zn872  Zn    0.88438   0.16666   0.75000   0.00000  Uiso   1.00
C873   C     0.78055   0.16734   0.89069   0.00000  Uiso   1.00
C874   C     0.88484   0.15688   0.61015   0.00000  Uiso   1.00
C875   C     0.71975   0.18937   0.96824   0.00000  Uiso   1.00
C876   C     0.93612   0.11548   0.54071   0.00000  Uiso   1.00
C877   C     0.73461   0.18630   0.91853   0.00000  Uiso   1.00
C878   C     0.92755   0.13200   0.58617   0.00000  Uiso   1.00
C879   C     0.81016   0.15098   0.91208   0.00000  Uiso   1.00
C880   C     0.85326   0.16637   0.58818   0.00000  Uiso   1.00
C881   C     0.79748   0.15442   0.96063   0.00000  Uiso   1.00
C882   C     0.85783   0.14704   0.54609   0.00000  Uiso   1.00
C883   C     0.75182   0.17407   0.98906   0.00000  Uiso   1.00
C884   C     0.90104   0.12327   0.52058   0.00000  Uiso   1.00
C885   C     0.83090   0.14128   0.98097   0.00000  Uiso   1.00
C886   C     0.82071   0.15244   0.52828   0.00000  Uiso   1.00
C887   C     0.77316   0.16767   0.55692   0.00000  Uiso   1.00
C888   C     0.87463   0.11820   0.95556   0.00000  Uiso   1.00
C889   C     0.73933   0.17773   0.53782   0.00000  Uiso   1.00
C890   C     0.90857   0.10920   0.97506   0.00000  Uiso   1.00
H891   H     0.70374   0.18929   0.56195   0.00000  Uiso   1.00
H892   H     0.94145   0.09217   0.95303   0.00000  Uiso   1.00
H893   H     0.82373   0.18854   0.60570   0.00000  Uiso   1.00
H894   H     0.84501   0.13765   0.88910   0.00000  Uiso   1.00
H895   H     0.76068   0.17117   0.59479   0.00000  Uiso   1.00
H896   H     0.88342   0.10543   0.92075   0.00000  Uiso   1.00
C897   C     0.83069   0.31199   0.79146   0.00000  Uiso   1.00
C898   C     0.83588   0.02130   0.70847   0.00000  Uiso   1.00
C899   C     0.83211   0.02219   0.79006   0.00000  Uiso   1.00
C900   C     0.83472   0.31109   0.70977   0.00000  Uiso   1.00
C901   C     0.83452   0.04263   0.74898   0.00000  Uiso   1.00
C902   C     0.83216   0.29067   0.75092   0.00000  Uiso   1.00
C903   C     0.98703   0.13777   0.72405   0.00000  Uiso   1.00
C904   C     0.67965   0.19557   0.77593   0.00000  Uiso   1.00
H905   H     0.97766   0.11460   0.70340   0.00000  Uiso   1.00
H906   H     0.68902   0.21873   0.79661   0.00000  Uiso   1.00
C907   C     0.70165   0.13781   0.72401   0.00000  Uiso   1.00
C908   C     0.96504   0.19555   0.77594   0.00000  Uiso   1.00
H909   H     0.72860   0.11474   0.70318   0.00000  Uiso   1.00
H910   H     0.93810   0.21865   0.79673   0.00000  Uiso   1.00
N911   N     0.71426   0.16668   0.75001   0.00000  Uiso   1.00
N912   N     0.95241   0.16666   0.74999   0.00000  Uiso   1.00
C913   C     0.96202   0.12197   0.60909   0.00000  Uiso   1.00
H914   H     0.97413   0.14646   0.62633   0.00000  Uiso   1.00
O915   O     0.97683   0.08616   0.60926   0.00000  Uiso   1.00
C916   C     0.70429   0.20592   0.89548   0.00000  Uiso   1.00
H917   H     0.69128   0.18727   0.87340   0.00000  Uiso   1.00
O918   O     0.69385   0.24321   0.90100   0.00000  Uiso   1.00
C919   C     0.67189   0.21011   0.99799   0.00000  Uiso   1.00
H920   H     0.66906   0.23042   0.52721   0.00000  Uiso   1.00
O921   O     0.96829   0.20460   0.99021   0.00000  Uiso   1.00
C922   C     0.98182   0.09048   0.51511   0.00000  Uiso   1.00
H923   H     0.68355   0.10133   0.51426   0.00000  Uiso   1.00
O924   O     0.98025   0.05655   0.99738   0.00000  Uiso   1.00
C925   C     0.82684   0.28853   0.83473   0.00000  Uiso   1.00
H926   H     0.81348   0.25660   0.84012   0.00000  Uiso   1.00
O927   O     0.83922   0.30415   0.86447   0.00000  Uiso   1.00
C928   C     0.83926   0.04475   0.66535   0.00000  Uiso   1.00
H929   H     0.85199   0.07683   0.66018   0.00000  Uiso   1.00
O930   O     0.82713   0.02897   0.63553   0.00000  Uiso   1.00
N931   N     0.82822   0.04607   0.83094   0.00000  Uiso   1.00
O932   O     0.78545   0.05154   0.86570   0.00000  Uiso   1.00
O933   O     0.86746   0.06203   0.83354   0.00000  Uiso   1.00
N934   N     0.83924   0.28720   0.66869   0.00000  Uiso   1.00
O935   O     0.88203   0.28296   0.63366   0.00000  Uiso   1.00
O936   O     0.80057   0.26996   0.66620   0.00000  Uiso   1.00
O937   O     0.12846   0.56108   0.75001   0.00000  Uiso   1.00
O938   O     0.20488   0.43892   0.75000   0.00000  Uiso   1.00
O939   O     0.20490   0.56107   0.75000   0.00000  Uiso   1.00
O940   O     0.12843   0.43893   0.75000   0.00000  Uiso   1.00
C941   C     0.16638   0.57984   0.75027   0.00000  Uiso   1.00
C942   C     0.16698   0.42015   0.74967   0.00000  Uiso   1.00
O943   O     0.10661   0.50001   0.81613   0.00000  Uiso   1.00
O944   O     0.22672   0.49999   0.68388   0.00000  Uiso   1.00
O945   O     0.18305   0.50000   0.81612   0.00000  Uiso   1.00
O946   O     0.15028   0.50000   0.68388   0.00000  Uiso   1.00
C947   C     0.13531   0.50041   0.83858   0.00000  Uiso   1.00
C948   C     0.19799   0.49886   0.66141   0.00000  Uiso   1.00
Zn949  Zn    0.11562   0.50001   0.75000   0.00000  Uiso   1.00
Zn950  Zn    0.21771   0.49999   0.75000   0.00000  Uiso   1.00
C951   C     0.11388   0.50068   0.89069   0.00000  Uiso   1.00
C952   C     0.21817   0.49021   0.61015   0.00000  Uiso   1.00
C953   C     0.05308   0.52271   0.96824   0.00000  Uiso   1.00
C954   C     0.26945   0.44881   0.54071   0.00000  Uiso   1.00
C955   C     0.06795   0.51964   0.91853   0.00000  Uiso   1.00
C956   C     0.26089   0.46533   0.58617   0.00000  Uiso   1.00
C957   C     0.14349   0.48431   0.91208   0.00000  Uiso   1.00
C958   C     0.18659   0.49970   0.58818   0.00000  Uiso   1.00
C959   C     0.13081   0.48775   0.96063   0.00000  Uiso   1.00
C960   C     0.19117   0.48038   0.54609   0.00000  Uiso   1.00
C961   C     0.08516   0.50741   0.98906   0.00000  Uiso   1.00
C962   C     0.23437   0.45660   0.52058   0.00000  Uiso   1.00
C963   C     0.16423   0.47462   0.98097   0.00000  Uiso   1.00
C964   C     0.15404   0.48577   0.52828   0.00000  Uiso   1.00
C965   C     0.10649   0.50101   0.55692   0.00000  Uiso   1.00
C966   C     0.20796   0.45154   0.95556   0.00000  Uiso   1.00
C967   C     0.07266   0.51106   0.53782   0.00000  Uiso   1.00
C968   C     0.24190   0.44253   0.97506   0.00000  Uiso   1.00
H969   H     0.03707   0.52262   0.56195   0.00000  Uiso   1.00
H970   H     0.27479   0.42551   0.95303   0.00000  Uiso   1.00
H971   H     0.15707   0.52187   0.60570   0.00000  Uiso   1.00
H972   H     0.17834   0.47098   0.88910   0.00000  Uiso   1.00
H973   H     0.09401   0.50450   0.59479   0.00000  Uiso   1.00
H974   H     0.21675   0.43876   0.92075   0.00000  Uiso   1.00
C975   C     0.16402   0.64532   0.79146   0.00000  Uiso   1.00
C976   C     0.16921   0.35463   0.70847   0.00000  Uiso   1.00
C977   C     0.16545   0.35552   0.79006   0.00000  Uiso   1.00
C978   C     0.16806   0.64443   0.70977   0.00000  Uiso   1.00
C979   C     0.16785   0.37596   0.74898   0.00000  Uiso   1.00
C980   C     0.16549   0.62401   0.75092   0.00000  Uiso   1.00
C981   C     0.32036   0.47111   0.72405   0.00000  Uiso   1.00
C982   C     0.01298   0.52890   0.77593   0.00000  Uiso   1.00
H983   H     0.31099   0.44793   0.70340   0.00000  Uiso   1.00
H984   H     0.02235   0.55207   0.79661   0.00000  Uiso   1.00
C985   C     0.03498   0.47114   0.72401   0.00000  Uiso   1.00
C986   C     0.29837   0.52888   0.77594   0.00000  Uiso   1.00
H987   H     0.06194   0.44807   0.70318   0.00000  Uiso   1.00
H988   H     0.27143   0.55198   0.79673   0.00000  Uiso   1.00
N989   N     0.04759   0.50001   0.75001   0.00000  Uiso   1.00
N990   N     0.28574   0.49999   0.74999   0.00000  Uiso   1.00
C991   C     0.29535   0.45530   0.60909   0.00000  Uiso   1.00
H992   H     0.30747   0.47980   0.62633   0.00000  Uiso   1.00
O993   O     0.31016   0.41949   0.60926   0.00000  Uiso   1.00
C994   C     0.03763   0.53925   0.89548   0.00000  Uiso   1.00
H995   H     0.02461   0.52061   0.87340   0.00000  Uiso   1.00
O996   O     0.02719   0.57654   0.90100   0.00000  Uiso   1.00
C997   C     0.00522   0.54345   0.99799   0.00000  Uiso   1.00
H998   H     0.00240   0.56375   0.52721   0.00000  Uiso   1.00
O999   O     0.30163   0.53794   0.99021   0.00000  Uiso   1.00
C1000  C     0.31515   0.42382   0.51511   0.00000  Uiso   1.00
H1001  H     0.01688   0.43466   0.51426   0.00000  Uiso   1.00
O1002  O     0.31358   0.38988   0.99738   0.00000  Uiso   1.00
C1003  C     0.16017   0.62186   0.83473   0.00000  Uiso   1.00
H1004  H     0.14681   0.58993   0.84012   0.00000  Uiso   1.00
O1005  O     0.17255   0.63748   0.86447   0.00000  Uiso   1.00
C1006  C     0.17260   0.37809   0.66535   0.00000  Uiso   1.00
H1007  H     0.18532   0.41016   0.66018   0.00000  Uiso   1.00
O1008  O     0.16046   0.36230   0.63553   0.00000  Uiso   1.00
N1009  N     0.16155   0.37941   0.83094   0.00000  Uiso   1.00
O1010  O     0.11879   0.38487   0.86570   0.00000  Uiso   1.00
O1011  O     0.20079   0.39537   0.83354   0.00000  Uiso   1.00
N1012  N     0.17257   0.62053   0.66869   0.00000  Uiso   1.00
O1013  O     0.21536   0.61629   0.63366   0.00000  Uiso   1.00
O1014  O     0.13390   0.60330   0.66620   0.00000  Uiso   1.00
O1015  O     0.46179   0.56108   0.75001   0.00000  Uiso   1.00
O1016  O     0.53821   0.43892   0.75000   0.00000  Uiso   1.00
O1017  O     0.53823   0.56107   0.75000   0.00000  Uiso   1.00
O1018  O     0.46177   0.43893   0.75000   0.00000  Uiso   1.00
C1019  C     0.49971   0.57984   0.75027   0.00000  Uiso   1.00
C1020  C     0.50031   0.42015   0.74967   0.00000  Uiso   1.00
O1021  O     0.43994   0.50001   0.81613   0.00000  Uiso   1.00
O1022  O     0.56006   0.49999   0.68388   0.00000  Uiso   1.00
O1023  O     0.51639   0.50000   0.81612   0.00000  Uiso   1.00
O1024  O     0.48361   0.50000   0.68388   0.00000  Uiso   1.00
C1025  C     0.46864   0.50041   0.83858   0.00000  Uiso   1.00
C1026  C     0.53132   0.49886   0.66141   0.00000  Uiso   1.00
Zn1027 Zn    0.44896   0.50001   0.75000   0.00000  Uiso   1.00
Zn1028 Zn    0.55104   0.49999   0.75000   0.00000  Uiso   1.00
C1029  C     0.44721   0.50068   0.89069   0.00000  Uiso   1.00
C1030  C     0.55150   0.49021   0.61015   0.00000  Uiso   1.00
C1031  C     0.38642   0.52271   0.96824   0.00000  Uiso   1.00
C1032  C     0.60278   0.44881   0.54071   0.00000  Uiso   1.00
C1033  C     0.40128   0.51964   0.91853   0.00000  Uiso   1.00
C1034  C     0.59422   0.46533   0.58617   0.00000  Uiso   1.00
C1035  C     0.47682   0.48431   0.91208   0.00000  Uiso   1.00
C1036  C     0.51993   0.49970   0.58818   0.00000  Uiso   1.00
C1037  C     0.46414   0.48775   0.96063   0.00000  Uiso   1.00
C1038  C     0.52450   0.48038   0.54609   0.00000  Uiso   1.00
C1039  C     0.41849   0.50741   0.98906   0.00000  Uiso   1.00
C1040  C     0.56771   0.45660   0.52058   0.00000  Uiso   1.00
C1041  C     0.49757   0.47462   0.98097   0.00000  Uiso   1.00
C1042  C     0.48737   0.48577   0.52828   0.00000  Uiso   1.00
C1043  C     0.43983   0.50101   0.55692   0.00000  Uiso   1.00
C1044  C     0.54129   0.45154   0.95556   0.00000  Uiso   1.00
C1045  C     0.40599   0.51106   0.53782   0.00000  Uiso   1.00
C1046  C     0.57524   0.44253   0.97506   0.00000  Uiso   1.00
H1047  H     0.37041   0.52262   0.56195   0.00000  Uiso   1.00
H1048  H     0.60812   0.42551   0.95303   0.00000  Uiso   1.00
H1049  H     0.49040   0.52187   0.60570   0.00000  Uiso   1.00
H1050  H     0.51167   0.47098   0.88910   0.00000  Uiso   1.00
H1051  H     0.42735   0.50450   0.59479   0.00000  Uiso   1.00
H1052  H     0.55008   0.43876   0.92075   0.00000  Uiso   1.00
C1053  C     0.49735   0.64532   0.79146   0.00000  Uiso   1.00
C1054  C     0.50255   0.35463   0.70847   0.00000  Uiso   1.00
C1055  C     0.49878   0.35552   0.79006   0.00000  Uiso   1.00
C1056  C     0.50139   0.64443   0.70977   0.00000  Uiso   1.00
C1057  C     0.50118   0.37596   0.74898   0.00000  Uiso   1.00
C1058  C     0.49883   0.62401   0.75092   0.00000  Uiso   1.00
C1059  C     0.65370   0.47111   0.72405   0.00000  Uiso   1.00
C1060  C     0.34631   0.52890   0.77593   0.00000  Uiso   1.00
H1061  H     0.64433   0.44793   0.70340   0.00000  Uiso   1.00
H1062  H     0.35568   0.55207   0.79661   0.00000  Uiso   1.00
C1063  C     0.36831   0.47114   0.72401   0.00000  Uiso   1.00
C1064  C     0.63171   0.52888   0.77594   0.00000  Uiso   1.00
H1065  H     0.39527   0.44807   0.70318   0.00000  Uiso   1.00
H1066  H     0.60477   0.55198   0.79673   0.00000  Uiso   1.00
N1067  N     0.38093   0.50001   0.75001   0.00000  Uiso   1.00
N1068  N     0.61907   0.49999   0.74999   0.00000  Uiso   1.00
C1069  C     0.62869   0.45530   0.60909   0.00000  Uiso   1.00
H1070  H     0.64080   0.47980   0.62633   0.00000  Uiso   1.00
O1071  O     0.64350   0.41949   0.60926   0.00000  Uiso   1.00
C1072  C     0.37096   0.53925   0.89548   0.00000  Uiso   1.00
H1073  H     0.35794   0.52061   0.87340   0.00000  Uiso   1.00
O1074  O     0.36052   0.57654   0.90100   0.00000  Uiso   1.00
C1075  C     0.33855   0.54345   0.99799   0.00000  Uiso   1.00
H1076  H     0.33573   0.56375   0.52721   0.00000  Uiso   1.00
O1077  O     0.63496   0.53794   0.99021   0.00000  Uiso   1.00
C1078  C     0.64848   0.42382   0.51511   0.00000  Uiso   1.00
H1079  H     0.35022   0.43466   0.51426   0.00000  Uiso   1.00
O1080  O     0.64692   0.38988   0.99738   0.00000  Uiso   1.00
C1081  C     0.49350   0.62186   0.83473   0.00000  Uiso   1.00
H1082  H     0.48014   0.58993   0.84012   0.00000  Uiso   1.00
O1083  O     0.50589   0.63748   0.86447   0.00000  Uiso   1.00
C1084  C     0.50593   0.37809   0.66535   0.00000  Uiso   1.00
H1085  H     0.51865   0.41016   0.66018   0.00000  Uiso   1.00
O1086  O     0.49379   0.36230   0.63553   0.00000  Uiso   1.00
N1087  N     0.49488   0.37941   0.83094   0.00000  Uiso   1.00
O1088  O     0.45212   0.38487   0.86570   0.00000  Uiso   1.00
O1089  O     0.53413   0.39537   0.83354   0.00000  Uiso   1.00
N1090  N     0.50590   0.62053   0.66869   0.00000  Uiso   1.00
O1091  O     0.54869   0.61629   0.63366   0.00000  Uiso   1.00
O1092  O     0.46723   0.60330   0.66620   0.00000  Uiso   1.00
O1093  O     0.79512   0.56108   0.75001   0.00000  Uiso   1.00
O1094  O     0.87154   0.43892   0.75000   0.00000  Uiso   1.00
O1095  O     0.87157   0.56107   0.75000   0.00000  Uiso   1.00
O1096  O     0.79510   0.43893   0.75000   0.00000  Uiso   1.00
C1097  C     0.83305   0.57984   0.75027   0.00000  Uiso   1.00
C1098  C     0.83364   0.42015   0.74967   0.00000  Uiso   1.00
O1099  O     0.77328   0.50001   0.81613   0.00000  Uiso   1.00
O1100  O     0.89339   0.49999   0.68388   0.00000  Uiso   1.00
O1101  O     0.84972   0.50000   0.81612   0.00000  Uiso   1.00
O1102  O     0.81695   0.50000   0.68388   0.00000  Uiso   1.00
C1103  C     0.80198   0.50041   0.83858   0.00000  Uiso   1.00
C1104  C     0.86465   0.49886   0.66141   0.00000  Uiso   1.00
Zn1105 Zn    0.78229   0.50001   0.75000   0.00000  Uiso   1.00
Zn1106 Zn    0.88438   0.49999   0.75000   0.00000  Uiso   1.00
C1107  C     0.78055   0.50068   0.89069   0.00000  Uiso   1.00
C1108  C     0.88484   0.49021   0.61015   0.00000  Uiso   1.00
C1109  C     0.71975   0.52271   0.96824   0.00000  Uiso   1.00
C1110  C     0.93612   0.44881   0.54071   0.00000  Uiso   1.00
C1111  C     0.73461   0.51964   0.91853   0.00000  Uiso   1.00
C1112  C     0.92755   0.46533   0.58617   0.00000  Uiso   1.00
C1113  C     0.81016   0.48431   0.91208   0.00000  Uiso   1.00
C1114  C     0.85326   0.49970   0.58818   0.00000  Uiso   1.00
C1115  C     0.79748   0.48775   0.96063   0.00000  Uiso   1.00
C1116  C     0.85783   0.48038   0.54609   0.00000  Uiso   1.00
C1117  C     0.75182   0.50741   0.98906   0.00000  Uiso   1.00
C1118  C     0.90104   0.45660   0.52058   0.00000  Uiso   1.00
C1119  C     0.83090   0.47462   0.98097   0.00000  Uiso   1.00
C1120  C     0.82071   0.48577   0.52828   0.00000  Uiso   1.00
C1121  C     0.77316   0.50101   0.55692   0.00000  Uiso   1.00
C1122  C     0.87463   0.45154   0.95556   0.00000  Uiso   1.00
C1123  C     0.73933   0.51106   0.53782   0.00000  Uiso   1.00
C1124  C     0.90857   0.44253   0.97506   0.00000  Uiso   1.00
H1125  H     0.70374   0.52262   0.56195   0.00000  Uiso   1.00
H1126  H     0.94145   0.42551   0.95303   0.00000  Uiso   1.00
H1127  H     0.82373   0.52187   0.60570   0.00000  Uiso   1.00
H1128  H     0.84501   0.47098   0.88910   0.00000  Uiso   1.00
H1129  H     0.76068   0.50450   0.59479   0.00000  Uiso   1.00
H1130  H     0.88342   0.43876   0.92075   0.00000  Uiso   1.00
C1131  C     0.83069   0.64532   0.79146   0.00000  Uiso   1.00
C1132  C     0.83588   0.35463   0.70847   0.00000  Uiso   1.00
C1133  C     0.83211   0.35552   0.79006   0.00000  Uiso   1.00
C1134  C     0.83472   0.64443   0.70977   0.00000  Uiso   1.00
C1135  C     0.83452   0.37596   0.74898   0.00000  Uiso   1.00
C1136  C     0.83216   0.62401   0.75092   0.00000  Uiso   1.00
C1137  C     0.98703   0.47111   0.72405   0.00000  Uiso   1.00
C1138  C     0.67965   0.52890   0.77593   0.00000  Uiso   1.00
H1139  H     0.97766   0.44793   0.70340   0.00000  Uiso   1.00
H1140  H     0.68902   0.55207   0.79661   0.00000  Uiso   1.00
C1141  C     0.70165   0.47114   0.72401   0.00000  Uiso   1.00
C1142  C     0.96504   0.52888   0.77594   0.00000  Uiso   1.00
H1143  H     0.72860   0.44807   0.70318   0.00000  Uiso   1.00
H1144  H     0.93810   0.55198   0.79673   0.00000  Uiso   1.00
N1145  N     0.71426   0.50001   0.75001   0.00000  Uiso   1.00
N1146  N     0.95241   0.49999   0.74999   0.00000  Uiso   1.00
C1147  C     0.96202   0.45530   0.60909   0.00000  Uiso   1.00
H1148  H     0.97413   0.47980   0.62633   0.00000  Uiso   1.00
O1149  O     0.97683   0.41949   0.60926   0.00000  Uiso   1.00
C1150  C     0.70429   0.53925   0.89548   0.00000  Uiso   1.00
H1151  H     0.69128   0.52061   0.87340   0.00000  Uiso   1.00
O1152  O     0.69385   0.57654   0.90100   0.00000  Uiso   1.00
C1153  C     0.67189   0.54345   0.99799   0.00000  Uiso   1.00
H1154  H     0.66906   0.56375   0.52721   0.00000  Uiso   1.00
O1155  O     0.96829   0.53794   0.99021   0.00000  Uiso   1.00
C1156  C     0.98182   0.42382   0.51511   0.00000  Uiso   1.00
H1157  H     0.68355   0.43466   0.51426   0.00000  Uiso   1.00
O1158  O     0.98025   0.38988   0.99738   0.00000  Uiso   1.00
C1159  C     0.82684   0.62186   0.83473   0.00000  Uiso   1.00
H1160  H     0.81348   0.58993   0.84012   0.00000  Uiso   1.00
O1161  O     0.83922   0.63748   0.86447   0.00000  Uiso   1.00
C1162  C     0.83926   0.37809   0.66535   0.00000  Uiso   1.00
H1163  H     0.85199   0.41016   0.66018   0.00000  Uiso   1.00
O1164  O     0.82713   0.36230   0.63553   0.00000  Uiso   1.00
N1165  N     0.82822   0.37941   0.83094   0.00000  Uiso   1.00
O1166  O     0.78545   0.38487   0.86570   0.00000  Uiso   1.00
O1167  O     0.86746   0.39537   0.83354   0.00000  Uiso   1.00
N1168  N     0.83924   0.62053   0.66869   0.00000  Uiso   1.00
O1169  O     0.88203   0.61629   0.63366   0.00000  Uiso   1.00
O1170  O     0.80057   0.60330   0.66620   0.00000  Uiso   1.00
O1171  O     0.12846   0.89442   0.75001   0.00000  Uiso   1.00
O1172  O     0.20488   0.77225   0.75000   0.00000  Uiso   1.00
O1173  O     0.20490   0.89441   0.75000   0.00000  Uiso   1.00
O1174  O     0.12843   0.77226   0.75000   0.00000  Uiso   1.00
C1175  C     0.16638   0.91317   0.75027   0.00000  Uiso   1.00
C1176  C     0.16698   0.75348   0.74967   0.00000  Uiso   1.00
O1177  O     0.10661   0.83334   0.81613   0.00000  Uiso   1.00
O1178  O     0.22672   0.83333   0.68388   0.00000  Uiso   1.00
O1179  O     0.18305   0.83333   0.81612   0.00000  Uiso   1.00
O1180  O     0.15028   0.83334   0.68388   0.00000  Uiso   1.00
C1181  C     0.13531   0.83375   0.83858   0.00000  Uiso   1.00
C1182  C     0.19799   0.83219   0.66141   0.00000  Uiso   1.00
Zn1183 Zn    0.11562   0.83334   0.75000   0.00000  Uiso   1.00
Zn1184 Zn    0.21771   0.83333   0.75000   0.00000  Uiso   1.00
C1185  C     0.11388   0.83401   0.89069   0.00000  Uiso   1.00
C1186  C     0.21817   0.82354   0.61015   0.00000  Uiso   1.00
C1187  C     0.05308   0.85604   0.96824   0.00000  Uiso   1.00
C1188  C     0.26945   0.78215   0.54071   0.00000  Uiso   1.00
C1189  C     0.06795   0.85297   0.91853   0.00000  Uiso   1.00
C1190  C     0.26089   0.79866   0.58617   0.00000  Uiso   1.00
C1191  C     0.14349   0.81764   0.91208   0.00000  Uiso   1.00
C1192  C     0.18659   0.83304   0.58818   0.00000  Uiso   1.00
C1193  C     0.13081   0.82108   0.96063   0.00000  Uiso   1.00
C1194  C     0.19117   0.81371   0.54609   0.00000  Uiso   1.00
C1195  C     0.08516   0.84074   0.98906   0.00000  Uiso   1.00
C1196  C     0.23437   0.78994   0.52058   0.00000  Uiso   1.00
C1197  C     0.16423   0.80795   0.98097   0.00000  Uiso   1.00
C1198  C     0.15404   0.81910   0.52828   0.00000  Uiso   1.00
C1199  C     0.10649   0.83434   0.55692   0.00000  Uiso   1.00
C1200  C     0.20796   0.78487   0.95556   0.00000  Uiso   1.00
C1201  C     0.07266   0.84439   0.53782   0.00000  Uiso   1.00
C1202  C     0.24190   0.77586   0.97506   0.00000  Uiso   1.00
H1203  H     0.03707   0.85596   0.56195   0.00000  Uiso   1.00
H1204  H     0.27479   0.75884   0.95303   0.00000  Uiso   1.00
H1205  H     0.15707   0.85520   0.60570   0.00000  Uiso   1.00
H1206  H     0.17834   0.80432   0.88910   0.00000  Uiso   1.00
H1207  H     0.09401   0.83784   0.59479   0.00000  Uiso   1.00
H1208  H     0.21675   0.77209   0.92075   0.00000  Uiso   1.00
C1209  C     0.16402   0.97866   0.79146   0.00000  Uiso   1.00
C1210  C     0.16921   0.68797   0.70847   0.00000  Uiso   1.00
C1211  C     0.16545   0.68885   0.79006   0.00000  Uiso   1.00
C1212  C     0.16806   0.97776   0.70977   0.00000  Uiso   1.00
C1213  C     0.16785   0.70930   0.74898   0.00000  Uiso   1.00
C1214  C     0.16549   0.95734   0.75092   0.00000  Uiso   1.00
C1215  C     0.32036   0.80444   0.72405   0.00000  Uiso   1.00
C1216  C     0.01298   0.86224   0.77593   0.00000  Uiso   1.00
H1217  H     0.31099   0.78127   0.70340   0.00000  Uiso   1.00
H1218  H     0.02235   0.88540   0.79661   0.00000  Uiso   1.00
C1219  C     0.03498   0.80448   0.72401   0.00000  Uiso   1.00
C1220  C     0.29837   0.86222   0.77594   0.00000  Uiso   1.00
H1221  H     0.06194   0.78141   0.70318   0.00000  Uiso   1.00
H1222  H     0.27143   0.88532   0.79673   0.00000  Uiso   1.00
N1223  N     0.04759   0.83334   0.75001   0.00000  Uiso   1.00
N1224  N     0.28574   0.83332   0.74999   0.00000  Uiso   1.00
C1225  C     0.29535   0.78863   0.60909   0.00000  Uiso   1.00
H1226  H     0.30747   0.81313   0.62633   0.00000  Uiso   1.00
O1227  O     0.31016   0.75283   0.60926   0.00000  Uiso   1.00
C1228  C     0.03763   0.87259   0.89548   0.00000  Uiso   1.00
H1229  H     0.02461   0.85394   0.87340   0.00000  Uiso   1.00
O1230  O     0.02719   0.90987   0.90100   0.00000  Uiso   1.00
C1231  C     0.00522   0.87678   0.99799   0.00000  Uiso   1.00
H1232  H     0.00240   0.89708   0.52721   0.00000  Uiso   1.00
O1233  O     0.30163   0.87127   0.99021   0.00000  Uiso   1.00
C1234  C     0.31515   0.75715   0.51511   0.00000  Uiso   1.00
H1235  H     0.01688   0.76799   0.51426   0.00000  Uiso   1.00
O1236  O     0.31358   0.72322   0.99738   0.00000  Uiso   1.00
C1237  C     0.16017   0.95520   0.83473   0.00000  Uiso   1.00
H1238  H     0.14681   0.92327   0.84012   0.00000  Uiso   1.00
O1239  O     0.17255   0.97081   0.86447   0.00000  Uiso   1.00
C1240  C     0.17260   0.71142   0.66535   0.00000  Uiso   1.00
H1241  H     0.18532   0.74350   0.66018   0.00000  Uiso   1.00
O1242  O     0.16046   0.69564   0.63553   0.00000  Uiso   1.00
N1243  N     0.16155   0.71274   0.83094   0.00000  Uiso   1.00
O1244  O     0.11879   0.71820   0.86570   0.00000  Uiso   1.00
O1245  O     0.20079   0.72870   0.83354   0.00000  Uiso   1.00
N1246  N     0.17257   0.95387   0.66869   0.00000  Uiso   1.00
O1247  O     0.21536   0.94962   0.63366   0.00000  Uiso   1.00
O1248  O     0.13390   0.93663   0.66620   0.00000  Uiso   1.00
O1249  O     0.46179   0.89442   0.75001   0.00000  Uiso   1.00
O1250  O     0.53821   0.77225   0.75000   0.00000  Uiso   1.00
O1251  O     0.53823   0.89441   0.75000   0.00000  Uiso   1.00
O1252  O     0.46177   0.77226   0.75000   0.00000  Uiso   1.00
C1253  C     0.49971   0.91317   0.75027   0.00000  Uiso   1.00
C1254  C     0.50031   0.75348   0.74967   0.00000  Uiso   1.00
O1255  O     0.43994   0.83334   0.81613   0.00000  Uiso   1.00
O1256  O     0.56006   0.83333   0.68388   0.00000  Uiso   1.00
O1257  O     0.51639   0.83333   0.81612   0.00000  Uiso   1.00
O1258  O     0.48361   0.83334   0.68388   0.00000  Uiso   1.00
C1259  C     0.46864   0.83375   0.83858   0.00000  Uiso   1.00
C1260  C     0.53132   0.83219   0.66141   0.00000  Uiso   1.00
Zn1261 Zn    0.44896   0.83334   0.75000   0.00000  Uiso   1.00
Zn1262 Zn    0.55104   0.83333   0.75000   0.00000  Uiso   1.00
C1263  C     0.44721   0.83401   0.89069   0.00000  Uiso   1.00
C1264  C     0.55150   0.82354   0.61015   0.00000  Uiso   1.00
C1265  C     0.38642   0.85604   0.96824   0.00000  Uiso   1.00
C1266  C     0.60278   0.78215   0.54071   0.00000  Uiso   1.00
C1267  C     0.40128   0.85297   0.91853   0.00000  Uiso   1.00
C1268  C     0.59422   0.79866   0.58617   0.00000  Uiso   1.00
C1269  C     0.47682   0.81764   0.91208   0.00000  Uiso   1.00
C1270  C     0.51993   0.83304   0.58818   0.00000  Uiso   1.00
C1271  C     0.46414   0.82108   0.96063   0.00000  Uiso   1.00
C1272  C     0.52450   0.81371   0.54609   0.00000  Uiso   1.00
C1273  C     0.41849   0.84074   0.98906   0.00000  Uiso   1.00
C1274  C     0.56771   0.78994   0.52058   0.00000  Uiso   1.00
C1275  C     0.49757   0.80795   0.98097   0.00000  Uiso   1.00
C1276  C     0.48737   0.81910   0.52828   0.00000  Uiso   1.00
C1277  C     0.43983   0.83434   0.55692   0.00000  Uiso   1.00
C1278  C     0.54129   0.78487   0.95556   0.00000  Uiso   1.00
C1279  C     0.40599   0.84439   0.53782   0.00000  Uiso   1.00
C1280  C     0.57524   0.77586   0.97506   0.00000  Uiso   1.00
H1281  H     0.37041   0.85596   0.56195   0.00000  Uiso   1.00
H1282  H     0.60812   0.75884   0.95303   0.00000  Uiso   1.00
H1283  H     0.49040   0.85520   0.60570   0.00000  Uiso   1.00
H1284  H     0.51167   0.80432   0.88910   0.00000  Uiso   1.00
H1285  H     0.42735   0.83784   0.59479   0.00000  Uiso   1.00
H1286  H     0.55008   0.77209   0.92075   0.00000  Uiso   1.00
C1287  C     0.49735   0.97866   0.79146   0.00000  Uiso   1.00
C1288  C     0.50255   0.68797   0.70847   0.00000  Uiso   1.00
C1289  C     0.49878   0.68885   0.79006   0.00000  Uiso   1.00
C1290  C     0.50139   0.97776   0.70977   0.00000  Uiso   1.00
C1291  C     0.50118   0.70930   0.74898   0.00000  Uiso   1.00
C1292  C     0.49883   0.95734   0.75092   0.00000  Uiso   1.00
C1293  C     0.65370   0.80444   0.72405   0.00000  Uiso   1.00
C1294  C     0.34631   0.86224   0.77593   0.00000  Uiso   1.00
H1295  H     0.64433   0.78127   0.70340   0.00000  Uiso   1.00
H1296  H     0.35568   0.88540   0.79661   0.00000  Uiso   1.00
C1297  C     0.36831   0.80448   0.72401   0.00000  Uiso   1.00
C1298  C     0.63171   0.86222   0.77594   0.00000  Uiso   1.00
H1299  H     0.39527   0.78141   0.70318   0.00000  Uiso   1.00
H1300  H     0.60477   0.88532   0.79673   0.00000  Uiso   1.00
N1301  N     0.38093   0.83334   0.75001   0.00000  Uiso   1.00
N1302  N     0.61907   0.83332   0.74999   0.00000  Uiso   1.00
C1303  C     0.62869   0.78863   0.60909   0.00000  Uiso   1.00
H1304  H     0.64080   0.81313   0.62633   0.00000  Uiso   1.00
O1305  O     0.64350   0.75283   0.60926   0.00000  Uiso   1.00
C1306  C     0.37096   0.87259   0.89548   0.00000  Uiso   1.00
H1307  H     0.35794   0.85394   0.87340   0.00000  Uiso   1.00
O1308  O     0.36052   0.90987   0.90100   0.00000  Uiso   1.00
C1309  C     0.33855   0.87678   0.99799   0.00000  Uiso   1.00
H1310  H     0.33573   0.89708   0.52721   0.00000  Uiso   1.00
O1311  O     0.63496   0.87127   0.99021   0.00000  Uiso   1.00
C1312  C     0.64848   0.75715   0.51511   0.00000  Uiso   1.00
H1313  H     0.35022   0.76799   0.51426   0.00000  Uiso   1.00
O1314  O     0.64692   0.72322   0.99738   0.00000  Uiso   1.00
C1315  C     0.49350   0.95520   0.83473   0.00000  Uiso   1.00
H1316  H     0.48014   0.92327   0.84012   0.00000  Uiso   1.00
O1317  O     0.50589   0.97081   0.86447   0.00000  Uiso   1.00
C1318  C     0.50593   0.71142   0.66535   0.00000  Uiso   1.00
H1319  H     0.51865   0.74350   0.66018   0.00000  Uiso   1.00
O1320  O     0.49379   0.69564   0.63553   0.00000  Uiso   1.00
N1321  N     0.49488   0.71274   0.83094   0.00000  Uiso   1.00
O1322  O     0.45212   0.71820   0.86570   0.00000  Uiso   1.00
O1323  O     0.53413   0.72870   0.83354   0.00000  Uiso   1.00
N1324  N     0.50590   0.95387   0.66869   0.00000  Uiso   1.00
O1325  O     0.54869   0.94962   0.63366   0.00000  Uiso   1.00
O1326  O     0.46723   0.93663   0.66620   0.00000  Uiso   1.00
O1327  O     0.79512   0.89442   0.75001   0.00000  Uiso   1.00
O1328  O     0.87154   0.77225   0.75000   0.00000  Uiso   1.00
O1329  O     0.87157   0.89441   0.75000   0.00000  Uiso   1.00
O1330  O     0.79510   0.77226   0.75000   0.00000  Uiso   1.00
C1331  C     0.83305   0.91317   0.75027   0.00000  Uiso   1.00
C1332  C     0.83364   0.75348   0.74967   0.00000  Uiso   1.00
O1333  O     0.77328   0.83334   0.81613   0.00000  Uiso   1.00
O1334  O     0.89339   0.83333   0.68388   0.00000  Uiso   1.00
O1335  O     0.84972   0.83333   0.81612   0.00000  Uiso   1.00
O1336  O     0.81695   0.83334   0.68388   0.00000  Uiso   1.00
C1337  C     0.80198   0.83375   0.83858   0.00000  Uiso   1.00
C1338  C     0.86465   0.83219   0.66141   0.00000  Uiso   1.00
Zn1339 Zn    0.78229   0.83334   0.75000   0.00000  Uiso   1.00
Zn1340 Zn    0.88438   0.83333   0.75000   0.00000  Uiso   1.00
C1341  C     0.78055   0.83401   0.89069   0.00000  Uiso   1.00
C1342  C     0.88484   0.82354   0.61015   0.00000  Uiso   1.00
C1343  C     0.71975   0.85604   0.96824   0.00000  Uiso   1.00
C1344  C     0.93612   0.78215   0.54071   0.00000  Uiso   1.00
C1345  C     0.73461   0.85297   0.91853   0.00000  Uiso   1.00
C1346  C     0.92755   0.79866   0.58617   0.00000  Uiso   1.00
C1347  C     0.81016   0.81764   0.91208   0.00000  Uiso   1.00
C1348  C     0.85326   0.83304   0.58818   0.00000  Uiso   1.00
C1349  C     0.79748   0.82108   0.96063   0.00000  Uiso   1.00
C1350  C     0.85783   0.81371   0.54609   0.00000  Uiso   1.00
C1351  C     0.75182   0.84074   0.98906   0.00000  Uiso   1.00
C1352  C     0.90104   0.78994   0.52058   0.00000  Uiso   1.00
C1353  C     0.83090   0.80795   0.98097   0.00000  Uiso   1.00
C1354  C     0.82071   0.81910   0.52828   0.00000  Uiso   1.00
C1355  C     0.77316   0.83434   0.55692   0.00000  Uiso   1.00
C1356  C     0.87463   0.78487   0.95556   0.00000  Uiso   1.00
C1357  C     0.73933   0.84439   0.53782   0.00000  Uiso   1.00
C1358  C     0.90857   0.77586   0.97506   0.00000  Uiso   1.00
H1359  H     0.70374   0.85596   0.56195   0.00000  Uiso   1.00
H1360  H     0.94145   0.75884   0.95303   0.00000  Uiso   1.00
H1361  H     0.82373   0.85520   0.60570   0.00000  Uiso   1.00
H1362  H     0.84501   0.80432   0.88910   0.00000  Uiso   1.00
H1363  H     0.76068   0.83784   0.59479   0.00000  Uiso   1.00
H1364  H     0.88342   0.77209   0.92075   0.00000  Uiso   1.00
C1365  C     0.83069   0.97866   0.79146   0.00000  Uiso   1.00
C1366  C     0.83588   0.68797   0.70847   0.00000  Uiso   1.00
C1367  C     0.83211   0.68885   0.79006   0.00000  Uiso   1.00
C1368  C     0.83472   0.97776   0.70977   0.00000  Uiso   1.00
C1369  C     0.83452   0.70930   0.74898   0.00000  Uiso   1.00
C1370  C     0.83216   0.95734   0.75092   0.00000  Uiso   1.00
C1371  C     0.98703   0.80444   0.72405   0.00000  Uiso   1.00
C1372  C     0.67965   0.86224   0.77593   0.00000  Uiso   1.00
H1373  H     0.97766   0.78127   0.70340   0.00000  Uiso   1.00
H1374  H     0.68902   0.88540   0.79661   0.00000  Uiso   1.00
C1375  C     0.70165   0.80448   0.72401   0.00000  Uiso   1.00
C1376  C     0.96504   0.86222   0.77594   0.00000  Uiso   1.00
H1377  H     0.72860   0.78141   0.70318   0.00000  Uiso   1.00
H1378  H     0.93810   0.88532   0.79673   0.00000  Uiso   1.00
N1379  N     0.71426   0.83334   0.75001   0.00000  Uiso   1.00
N1380  N     0.95241   0.83332   0.74999   0.00000  Uiso   1.00
C1381  C     0.96202   0.78863   0.60909   0.00000  Uiso   1.00
H1382  H     0.97413   0.81313   0.62633   0.00000  Uiso   1.00
O1383  O     0.97683   0.75283   0.60926   0.00000  Uiso   1.00
C1384  C     0.70429   0.87259   0.89548   0.00000  Uiso   1.00
H1385  H     0.69128   0.85394   0.87340   0.00000  Uiso   1.00
O1386  O     0.69385   0.90987   0.90100   0.00000  Uiso   1.00
C1387  C     0.67189   0.87678   0.99799   0.00000  Uiso   1.00
H1388  H     0.66906   0.89708   0.52721   0.00000  Uiso   1.00
O1389  O     0.96829   0.87127   0.99021   0.00000  Uiso   1.00
C1390  C     0.98182   0.75715   0.51511   0.00000  Uiso   1.00
H1391  H     0.68355   0.76799   0.51426   0.00000  Uiso   1.00
O1392  O     0.98025   0.72322   0.99738   0.00000  Uiso   1.00
C1393  C     0.82684   0.95520   0.83473   0.00000  Uiso   1.00
H1394  H     0.81348   0.92327   0.84012   0.00000  Uiso   1.00
O1395  O     0.83922   0.97081   0.86447   0.00000  Uiso   1.00
C1396  C     0.83926   0.71142   0.66535   0.00000  Uiso   1.00
H1397  H     0.85199   0.74350   0.66018   0.00000  Uiso   1.00
O1398  O     0.82713   0.69564   0.63553   0.00000  Uiso   1.00
N1399  N     0.82822   0.71274   0.83094   0.00000  Uiso   1.00
O1400  O     0.78545   0.71820   0.86570   0.00000  Uiso   1.00
O1401  O     0.86746   0.72870   0.83354   0.00000  Uiso   1.00
N1402  N     0.83924   0.95387   0.66869   0.00000  Uiso   1.00
O1403  O     0.88203   0.94962   0.63366   0.00000  Uiso   1.00
O1404  O     0.80057   0.93663   0.66620   0.00000  Uiso   1.00
loop_
_geom_bond_atom_site_label_1
_geom_bond_atom_site_label_2
_geom_bond_distance
_geom_bond_site_symmetry_2
_ccdc_geom_bond_type
O1     C5      1.277   .     A
O1     Zn13    1.987   .     S
O2     C6      1.277   .     A
O2     Zn14    1.987   .     S
O3     Zn14    1.982   .     S
O3     C5      1.280   .     A
O4     Zn13    1.982   .     S
O4     C6      1.280   .     A
C5     C44     1.409   .     S
C6     C43     1.409   .     S
O7     C11     1.291   .     A
O7     Zn13    1.948   .     S
O8     C12     1.293   .     A
O8     Zn14    1.948   .     S
O9     Zn14    1.881   .     S
O9     C11     1.300   .     A
O10    C12     1.300   .     A
O10    Zn13    1.881   .     S
C11    C15     1.473   .     S
C12    C16     1.474   .     S
Zn13   N53     2.010   .     S
Zn14   N54     2.010   .     S
C15    C19     1.415   .     A
C15    C21     1.389   .     A
C16    C20     1.418   .     A
C16    C22     1.386   .     A
C17    C61     1.493   .     S
C17    C25     1.424   .     A
C17    C19     1.419   .     A
C18    C26     1.425   .     A
C18    C64     1.488   .     S
C18    C20     1.421   .     A
C19    C58     1.484   .     S
C20    C55     1.486   .     S
C21    H36     1.074   .     S
C21    C23     1.394   .     A
C22    H35     1.080   .     S
C22    C24     1.392   .     A
C23    C27     1.426   .     A
C23    C25     1.423   .     A
C24    C26     1.417   .     A
C24    C28     1.419   .     A
C25    C733    1.402   .     S
C26    C734    1.403   1_554 S
C27    C30     1.415   .     A
C27    C730    1.411   .     S
C28    C29     1.411   .     A
C28    C729    1.411   1_554 S
C29    C31     1.384   .     A
C29    H37     1.080   .     S
C30    H38     1.077   .     S
C30    C32     1.389   .     A
C31    H33     1.079   .     S
C31    C727    1.402   1_554 S
C32    H34     1.080   .     S
C32    C728    1.403   .     S
C39    C67     1.496   .     S
C39    C44     1.407   .     A
C39    C275    1.390   .     S
C40    C70     1.495   .     S
C40    C43     1.407   .     A
C40    C510    1.390   1_545 S
C41    C43     1.403   .     A
C41    N73     1.436   .     S
C41    C507    1.390   1_545 S
C42    C44     1.403   .     A
C42    N76     1.436   .     S
C42    C274    1.390   .     S
C45    H47     1.081   .     S
C45    N54     1.366   .     A
C45    C127    1.416   .     S
C46    H48     1.082   .     S
C46    N53     1.366   .     A
C46    C206    1.417   1_455 S
C49    H51     1.082   .     S
C49    N53     1.367   .     A
C49    C201    1.416   1_455 S
C50    N54     1.367   .     A
C50    H52     1.082   .     S
C50    C124    1.417   .     S
C55    H56     1.084   .     S
C55    O57     1.221   .     D
C58    O60     1.221   .     D
C58    H59     1.084   .     S
C61    H764    1.084   .     S
C61    O219    1.221   1_455 S
H62    C763    1.084   1_554 S
O63    C139    1.221   .     S
C64    H143    1.085   .     S
C64    O768    1.221   1_554 S
H65    C220    1.085   1_455 S
O66    C766    1.221   .     S
C67    H68     1.084   .     S
C67    O69     1.221   .     D
C70    H71     1.082   .     S
C70    O72     1.221   .     D
N73    O74     1.301   .     A
N73    O75     1.301   .     A
N76    O77     1.301   .     A
N76    O78     1.301   .     A
O79    C83     1.277   .     A
O79    Zn91    1.987   .     S
O80    C84     1.277   .     A
O80    Zn92    1.987   .     S
O81    Zn92    1.982   .     S
O81    C83     1.280   .     A
O82    Zn91    1.982   .     S
O82    C84     1.280   .     A
C83    C122    1.409   .     S
C84    C121    1.409   .     S
O85    C89     1.291   .     A
O85    Zn91    1.948   .     S
O86    C90     1.293   .     A
O86    Zn92    1.948   .     S
O87    Zn92    1.881   .     S
O87    C89     1.300   .     A
O88    C90     1.300   .     A
O88    Zn91    1.881   .     S
C89    C93     1.473   .     S
C90    C94     1.474   .     S
Zn91   N131    2.010   .     S
Zn92   N132    2.010   .     S
C93    C97     1.415   .     A
C93    C99     1.389   .     A
C94    C98     1.418   .     A
C94    C100    1.386   .     A
C95    C139    1.493   .     S
C95    C103    1.424   .     A
C95    C97     1.419   .     A
C96    C104    1.425   .     A
C96    C142    1.488   .     S
C96    C98     1.421   .     A
C97    C136    1.484   .     S
C98    C133    1.486   .     S
C99    H114    1.074   .     S
C99    C101    1.394   .     A
C100   H113    1.080   .     S
C100   C102    1.392   .     A
C101   C105    1.426   .     A
C101   C103    1.423   .     A
C102   C104    1.417   .     A
C102   C106    1.419   .     A
C103   C811    1.402   .     S
C104   C812    1.403   1_554 S
C105   C108    1.415   .     A
C105   C808    1.411   .     S
C106   C107    1.411   .     A
C106   C807    1.411   1_554 S
C107   C109    1.384   .     A
C107   H115    1.080   .     S
C108   H116    1.077   .     S
C108   C110    1.389   .     A
C109   H111    1.079   .     S
C109   C805    1.402   1_554 S
C110   H112    1.080   .     S
C110   C806    1.403   .     S
C117   C145    1.496   .     S
C117   C122    1.407   .     A
C117   C353    1.390   .     S
C118   C148    1.495   .     S
C118   C121    1.407   .     A
C118   C588    1.390   1_545 S
C119   C121    1.403   .     A
C119   N151    1.436   .     S
C119   C585    1.390   1_545 S
C120   C122    1.403   .     A
C120   N154    1.436   .     S
C120   C352    1.390   .     S
C123   H125    1.081   .     S
C123   N132    1.366   .     A
C123   C205    1.416   .     S
C124   H126    1.082   .     S
C124   N131    1.366   .     A
C127   H129    1.082   .     S
C127   N131    1.367   .     A
C128   N132    1.367   .     A
C128   H130    1.082   .     S
C128   C202    1.417   .     S
C133   H134    1.084   .     S
C133   O135    1.221   .     D
C136   O138    1.221   .     D
C136   H137    1.084   .     S
C139   H842    1.084   .     S
H140   C841    1.084   1_554 S
O141   C217    1.221   .     S
C142   H221    1.085   .     S
C142   O846    1.221   1_554 S
O144   C844    1.221   .     S
C145   H146    1.084   .     S
C145   O147    1.221   .     D
C148   H149    1.082   .     S
C148   O150    1.221   .     D
N151   O152    1.301   .     A
N151   O153    1.301   .     A
N154   O155    1.301   .     A
N154   O156    1.301   .     A
O157   C161    1.277   .     A
O157   Zn169   1.987   .     S
O158   C162    1.277   .     A
O158   Zn170   1.987   .     S
O159   Zn170   1.982   .     S
O159   C161    1.280   .     A
O160   Zn169   1.982   .     S
O160   C162    1.280   .     A
C161   C200    1.409   .     S
C162   C199    1.409   .     S
O163   C167    1.291   .     A
O163   Zn169   1.948   .     S
O164   C168    1.293   .     A
O164   Zn170   1.948   .     S
O165   Zn170   1.881   .     S
O165   C167    1.300   .     A
O166   C168    1.300   .     A
O166   Zn169   1.881   .     S
C167   C171    1.473   .     S
C168   C172    1.474   .     S
Zn169  N209    2.010   .     S
Zn170  N210    2.010   .     S
C171   C175    1.415   .     A
C171   C177    1.389   .     A
C172   C176    1.418   .     A
C172   C178    1.386   .     A
C173   C217    1.493   .     S
C173   C181    1.424   .     A
C173   C175    1.419   .     A
C174   C182    1.425   .     A
C174   C220    1.488   .     S
C174   C176    1.421   .     A
C175   C214    1.484   .     S
C176   C211    1.486   .     S
C177   H192    1.074   .     S
C177   C179    1.394   .     A
C178   H191    1.080   .     S
C178   C180    1.392   .     A
C179   C183    1.426   .     A
C179   C181    1.423   .     A
C180   C182    1.417   .     A
C180   C184    1.419   .     A
C181   C889    1.402   .     S
C182   C890    1.403   1_554 S
C183   C186    1.415   .     A
C183   C886    1.411   .     S
C184   C185    1.411   .     A
C184   C885    1.411   1_554 S
C185   C187    1.384   .     A
C185   H193    1.080   .     S
C186   H194    1.077   .     S
C186   C188    1.389   .     A
C187   H189    1.079   .     S
C187   C883    1.402   1_554 S
C188   H190    1.080   .     S
C188   C884    1.403   .     S
C195   C223    1.496   .     S
C195   C200    1.407   .     A
C195   C431    1.390   .     S
C196   C226    1.495   .     S
C196   C199    1.407   .     A
C196   C666    1.390   1_545 S
C197   C199    1.403   .     A
C197   N229    1.436   .     S
C197   C663    1.390   1_545 S
C198   C200    1.403   .     A
C198   N232    1.436   .     S
C198   C430    1.390   .     S
C201   H203    1.081   .     S
C201   N210    1.366   .     A
C201   C49     1.416   1_655 S
C202   H204    1.082   .     S
C202   N209    1.366   .     A
C205   H207    1.082   .     S
C205   N209    1.367   .     A
C206   N210    1.367   .     A
C206   H208    1.082   .     S
C206   C46     1.417   1_655 S
C211   H212    1.084   .     S
C211   O213    1.221   .     D
C214   O216    1.221   .     D
C214   H215    1.084   .     S
C217   H920    1.084   .     S
H218   C919    1.084   1_554 S
O219   C61     1.221   1_655 S
C220   H65     1.085   1_655 S
C220   O924    1.221   1_554 S
O222   C922    1.221   .     S
C223   H224    1.084   .     S
C223   O225    1.221   .     D
C226   H227    1.082   .     S
C226   O228    1.221   .     D
N229   O230    1.301   .     A
N229   O231    1.301   .     A
N232   O233    1.301   .     A
N232   O234    1.301   .     A
O235   C239    1.277   .     A
O235   Zn247   1.987   .     S
O236   C240    1.277   .     A
O236   Zn248   1.987   .     S
O237   Zn248   1.982   .     S
O237   C239    1.280   .     A
O238   Zn247   1.982   .     S
O238   C240    1.280   .     A
C239   C278    1.409   .     S
C240   C277    1.409   .     S
O241   C245    1.291   .     A
O241   Zn247   1.948   .     S
O242   C246    1.293   .     A
O242   Zn248   1.948   .     S
O243   Zn248   1.881   .     S
O243   C245    1.300   .     A
O244   C246    1.300   .     A
O244   Zn247   1.881   .     S
C245   C249    1.473   .     S
C246   C250    1.474   .     S
Zn247  N287    2.010   .     S
Zn248  N288    2.010   .     S
C249   C253    1.415   .     A
C249   C255    1.389   .     A
C250   C254    1.418   .     A
C250   C256    1.386   .     A
C251   C295    1.493   .     S
C251   C259    1.424   .     A
C251   C253    1.419   .     A
C252   C260    1.425   .     A
C252   C298    1.488   .     S
C252   C254    1.421   .     A
C253   C292    1.484   .     S
C254   C289    1.486   .     S
C255   H270    1.074   .     S
C255   C257    1.394   .     A
C256   H269    1.080   .     S
C256   C258    1.392   .     A
C257   C261    1.426   .     A
C257   C259    1.423   .     A
C258   C260    1.417   .     A
C258   C262    1.419   .     A
C259   C967    1.402   .     S
C260   C968    1.403   1_554 S
C261   C264    1.415   .     A
C261   C964    1.411   .     S
C262   C263    1.411   .     A
C262   C963    1.411   1_554 S
C263   C265    1.384   .     A
C263   H271    1.080   .     S
C264   H272    1.077   .     S
C264   C266    1.389   .     A
C265   H267    1.079   .     S
C265   C961    1.402   1_554 S
C266   H268    1.080   .     S
C266   C962    1.403   .     S
C273   C301    1.496   .     S
C273   C278    1.407   .     A
C273   C509    1.390   .     S
C274   C304    1.495   .     S
C274   C277    1.407   .     A
C275   C277    1.403   .     A
C275   N307    1.436   .     S
C276   C278    1.403   .     A
C276   N310    1.436   .     S
C276   C508    1.390   .     S
C279   H281    1.081   .     S
C279   N288    1.366   .     A
C279   C361    1.416   .     S
C280   H282    1.082   .     S
C280   N287    1.366   .     A
C280   C440    1.417   1_455 S
C283   H285    1.082   .     S
C283   N287    1.367   .     A
C283   C435    1.416   1_455 S
C284   N288    1.367   .     A
C284   H286    1.082   .     S
C284   C358    1.417   .     S
C289   H290    1.084   .     S
C289   O291    1.221   .     D
C292   O294    1.221   .     D
C292   H293    1.084   .     S
C295   H998    1.084   .     S
C295   O453    1.221   1_455 S
H296   C997    1.084   1_554 S
O297   C373    1.221   .     S
C298   H377    1.085   .     S
C298   O1002   1.221   1_554 S
H299   C454    1.085   1_455 S
O300   C1000   1.221   .     S
C301   H302    1.084   .     S
C301   O303    1.221   .     D
C304   H305    1.082   .     S
C304   O306    1.221   .     D
N307   O308    1.301   .     A
N307   O309    1.301   .     A
N310   O311    1.301   .     A
N310   O312    1.301   .     A
O313   C317    1.277   .     A
O313   Zn325   1.987   .     S
O314   C318    1.277   .     A
O314   Zn326   1.987   .     S
O315   Zn326   1.982   .     S
O315   C317    1.280   .     A
O316   Zn325   1.982   .     S
O316   C318    1.280   .     A
C317   C356    1.409   .     S
C318   C355    1.409   .     S
O319   C323    1.291   .     A
O319   Zn325   1.948   .     S
O320   C324    1.293   .     A
O320   Zn326   1.948   .     S
O321   Zn326   1.881   .     S
O321   C323    1.300   .     A
O322   C324    1.300   .     A
O322   Zn325   1.881   .     S
C323   C327    1.473   .     S
C324   C328    1.474   .     S
Zn325  N365    2.010   .     S
Zn326  N366    2.010   .     S
C327   C331    1.415   .     A
C327   C333    1.389   .     A
C328   C332    1.418   .     A
C328   C334    1.386   .     A
C329   C373    1.493   .     S
C329   C337    1.424   .     A
C329   C331    1.419   .     A
C330   C338    1.425   .     A
C330   C376    1.488   .     S
C330   C332    1.421   .     A
C331   C370    1.484   .     S
C332   C367    1.486   .     S
C333   H348    1.074   .     S
C333   C335    1.394   .     A
C334   H347    1.080   .     S
C334   C336    1.392   .     A
C335   C339    1.426   .     A
C335   C337    1.423   .     A
C336   C338    1.417   .     A
C336   C340    1.419   .     A
C337   C1045   1.402   .     S
C338   C1046   1.403   1_554 S
C339   C342    1.415   .     A
C339   C1042   1.411   .     S
C340   C341    1.411   .     A
C340   C1041   1.411   1_554 S
C341   C343    1.384   .     A
C341   H349    1.080   .     S
C342   H350    1.077   .     S
C342   C344    1.389   .     A
C343   H345    1.079   .     S
C343   C1039   1.402   1_554 S
C344   H346    1.080   .     S
C344   C1040   1.403   .     S
C351   C379    1.496   .     S
C351   C356    1.407   .     A
C351   C587    1.390   .     S
C352   C382    1.495   .     S
C352   C355    1.407   .     A
C353   C355    1.403   .     A
C353   N385    1.436   .     S
C354   C356    1.403   .     A
C354   N388    1.436   .     S
C354   C586    1.390   .     S
C357   H359    1.081   .     S
C357   N366    1.366   .     A
C357   C439    1.416   .     S
C358   H360    1.082   .     S
C358   N365    1.366   .     A
C361   H363    1.082   .     S
C361   N365    1.367   .     A
C362   N366    1.367   .     A
C362   H364    1.082   .     S
C362   C436    1.417   .     S
C367   H368    1.084   .     S
C367   O369    1.221   .     D
C370   O372    1.221   .     D
C370   H371    1.084   .     S
C373   H1076   1.084   .     S
H374   C1075   1.084   1_554 S
O375   C451    1.221   .     S
C376   H455    1.085   .     S
C376   O1080   1.221   1_554 S
O378   C1078   1.221   .     S
C379   H380    1.084   .     S
C379   O381    1.221   .     D
C382   H383    1.082   .     S
C382   O384    1.221   .     D
N385   O386    1.301   .     A
N385   O387    1.301   .     A
N388   O389    1.301   .     A
N388   O390    1.301   .     A
O391   C395    1.277   .     A
O391   Zn403   1.987   .     S
O392   C396    1.277   .     A
O392   Zn404   1.987   .     S
O393   Zn404   1.982   .     S
O393   C395    1.280   .     A
O394   Zn403   1.982   .     S
O394   C396    1.280   .     A
C395   C434    1.409   .     S
C396   C433    1.409   .     S
O397   C401    1.291   .     A
O397   Zn403   1.948   .     S
O398   C402    1.293   .     A
O398   Zn404   1.948   .     S
O399   Zn404   1.881   .     S
O399   C401    1.300   .     A
O400   C402    1.300   .     A
O400   Zn403   1.881   .     S
C401   C405    1.473   .     S
C402   C406    1.474   .     S
Zn403  N443    2.010   .     S
Zn404  N444    2.010   .     S
C405   C409    1.415   .     A
C405   C411    1.389   .     A
C406   C410    1.418   .     A
C406   C412    1.386   .     A
C407   C451    1.493   .     S
C407   C415    1.424   .     A
C407   C409    1.419   .     A
C408   C416    1.425   .     A
C408   C454    1.488   .     S
C408   C410    1.421   .     A
C409   C448    1.484   .     S
C410   C445    1.486   .     S
C411   H426    1.074   .     S
C411   C413    1.394   .     A
C412   H425    1.080   .     S
C412   C414    1.392   .     A
C413   C417    1.426   .     A
C413   C415    1.423   .     A
C414   C416    1.417   .     A
C414   C418    1.419   .     A
C415   C1123   1.402   .     S
C416   C1124   1.403   1_554 S
C417   C420    1.415   .     A
C417   C1120   1.411   .     S
C418   C419    1.411   .     A
C418   C1119   1.411   1_554 S
C419   C421    1.384   .     A
C419   H427    1.080   .     S
C420   H428    1.077   .     S
C420   C422    1.389   .     A
C421   H423    1.079   .     S
C421   C1117   1.402   1_554 S
C422   H424    1.080   .     S
C422   C1118   1.403   .     S
C429   C457    1.496   .     S
C429   C434    1.407   .     A
C429   C665    1.390   .     S
C430   C460    1.495   .     S
C430   C433    1.407   .     A
C431   C433    1.403   .     A
C431   N463    1.436   .     S
C432   C434    1.403   .     A
C432   N466    1.436   .     S
C432   C664    1.390   .     S
C435   H437    1.081   .     S
C435   N444    1.366   .     A
C435   C283    1.416   1_655 S
C436   H438    1.082   .     S
C436   N443    1.366   .     A
C439   H441    1.082   .     S
C439   N443    1.367   .     A
C440   N444    1.367   .     A
C440   H442    1.082   .     S
C440   C280    1.417   1_655 S
C445   H446    1.084   .     S
C445   O447    1.221   .     D
C448   O450    1.221   .     D
C448   H449    1.084   .     S
C451   H1154   1.084   .     S
H452   C1153   1.084   1_554 S
O453   C295    1.221   1_655 S
C454   H299    1.085   1_655 S
C454   O1158   1.221   1_554 S
O456   C1156   1.221   .     S
C457   H458    1.084   .     S
C457   O459    1.221   .     D
C460   H461    1.082   .     S
C460   O462    1.221   .     D
N463   O464    1.301   .     A
N463   O465    1.301   .     A
N466   O467    1.301   .     A
N466   O468    1.301   .     A
O469   C473    1.277   .     A
O469   Zn481   1.987   .     S
O470   C474    1.277   .     A
O470   Zn482   1.987   .     S
O471   Zn482   1.982   .     S
O471   C473    1.280   .     A
O472   Zn481   1.982   .     S
O472   C474    1.280   .     A
C473   C512    1.409   .     S
C474   C511    1.409   .     S
O475   C479    1.291   .     A
O475   Zn481   1.948   .     S
O476   C480    1.293   .     A
O476   Zn482   1.948   .     S
O477   Zn482   1.881   .     S
O477   C479    1.300   .     A
O478   C480    1.300   .     A
O478   Zn481   1.881   .     S
C479   C483    1.473   .     S
C480   C484    1.474   .     S
Zn481  N521    2.010   .     S
Zn482  N522    2.010   .     S
C483   C487    1.415   .     A
C483   C489    1.389   .     A
C484   C488    1.418   .     A
C484   C490    1.386   .     A
C485   C529    1.493   .     S
C485   C493    1.424   .     A
C485   C487    1.419   .     A
C486   C494    1.425   .     A
C486   C532    1.488   .     S
C486   C488    1.421   .     A
C487   C526    1.484   .     S
C488   C523    1.486   .     S
C489   H504    1.074   .     S
C489   C491    1.394   .     A
C490   H503    1.080   .     S
C490   C492    1.392   .     A
C491   C495    1.426   .     A
C491   C493    1.423   .     A
C492   C494    1.417   .     A
C492   C496    1.419   .     A
C493   C1201   1.402   .     S
C494   C1202   1.403   1_554 S
C495   C498    1.415   .     A
C495   C1198   1.411   .     S
C496   C497    1.411   .     A
C496   C1197   1.411   1_554 S
C497   C499    1.384   .     A
C497   H505    1.080   .     S
C498   H506    1.077   .     S
C498   C500    1.389   .     A
C499   H501    1.079   .     S
C499   C1195   1.402   1_554 S
C500   H502    1.080   .     S
C500   C1196   1.403   .     S
C507   C535    1.496   .     S
C507   C512    1.407   .     A
C507   C41     1.390   1_565 S
C508   C538    1.495   .     S
C508   C511    1.407   .     A
C509   C511    1.403   .     A
C509   N541    1.436   .     S
C510   C512    1.403   .     A
C510   N544    1.436   .     S
C510   C40     1.390   1_565 S
C513   H515    1.081   .     S
C513   N522    1.366   .     A
C513   C595    1.416   .     S
C514   H516    1.082   .     S
C514   N521    1.366   .     A
C514   C674    1.417   1_455 S
C517   H519    1.082   .     S
C517   N521    1.367   .     A
C517   C669    1.416   1_455 S
C518   N522    1.367   .     A
C518   H520    1.082   .     S
C518   C592    1.417   .     S
C523   H524    1.084   .     S
C523   O525    1.221   .     D
C526   O528    1.221   .     D
C526   H527    1.084   .     S
C529   H1232   1.084   .     S
C529   O687    1.221   1_455 S
H530   C1231   1.084   1_554 S
O531   C607    1.221   .     S
C532   H611    1.085   .     S
C532   O1236   1.221   1_554 S
H533   C688    1.085   1_455 S
O534   C1234   1.221   .     S
C535   H536    1.084   .     S
C535   O537    1.221   .     D
C538   H539    1.082   .     S
C538   O540    1.221   .     D
N541   O542    1.301   .     A
N541   O543    1.301   .     A
N544   O545    1.301   .     A
N544   O546    1.301   .     A
O547   C551    1.277   .     A
O547   Zn559   1.987   .     S
O548   C552    1.277   .     A
O548   Zn560   1.987   .     S
O549   Zn560   1.982   .     S
O549   C551    1.280   .     A
O550   Zn559   1.982   .     S
O550   C552    1.280   .     A
C551   C590    1.409   .     S
C552   C589    1.409   .     S
O553   C557    1.291   .     A
O553   Zn559   1.948   .     S
O554   C558    1.293   .     A
O554   Zn560   1.948   .     S
O555   Zn560   1.881   .     S
O555   C557    1.300   .     A
O556   C558    1.300   .     A
O556   Zn559   1.881   .     S
C557   C561    1.473   .     S
C558   C562    1.474   .     S
Zn559  N599    2.010   .     S
Zn560  N600    2.010   .     S
C561   C565    1.415   .     A
C561   C567    1.389   .     A
C562   C566    1.418   .     A
C562   C568    1.386   .     A
C563   C607    1.493   .     S
C563   C571    1.424   .     A
C563   C565    1.419   .     A
C564   C572    1.425   .     A
C564   C610    1.488   .     S
C564   C566    1.421   .     A
C565   C604    1.484   .     S
C566   C601    1.486   .     S
C567   H582    1.074   .     S
C567   C569    1.394   .     A
C568   H581    1.080   .     S
C568   C570    1.392   .     A
C569   C573    1.426   .     A
C569   C571    1.423   .     A
C570   C572    1.417   .     A
C570   C574    1.419   .     A
C571   C1279   1.402   .     S
C572   C1280   1.403   1_554 S
C573   C576    1.415   .     A
C573   C1276   1.411   .     S
C574   C575    1.411   .     A
C574   C1275   1.411   1_554 S
C575   C577    1.384   .     A
C575   H583    1.080   .     S
C576   H584    1.077   .     S
C576   C578    1.389   .     A
C577   H579    1.079   .     S
C577   C1273   1.402   1_554 S
C578   H580    1.080   .     S
C578   C1274   1.403   .     S
C585   C613    1.496   .     S
C585   C590    1.407   .     A
C585   C119    1.390   1_565 S
C586   C616    1.495   .     S
C586   C589    1.407   .     A
C587   C589    1.403   .     A
C587   N619    1.436   .     S
C588   C590    1.403   .     A
C588   N622    1.436   .     S
C588   C118    1.390   1_565 S
C591   H593    1.081   .     S
C591   N600    1.366   .     A
C591   C673    1.416   .     S
C592   H594    1.082   .     S
C592   N599    1.366   .     A
C595   H597    1.082   .     S
C595   N599    1.367   .     A
C596   N600    1.367   .     A
C596   H598    1.082   .     S
C596   C670    1.417   .     S
C601   H602    1.084   .     S
C601   O603    1.221   .     D
C604   O606    1.221   .     D
C604   H605    1.084   .     S
C607   H1310   1.084   .     S
H608   C1309   1.084   1_554 S
O609   C685    1.221   .     S
C610   H689    1.085   .     S
C610   O1314   1.221   1_554 S
O612   C1312   1.221   .     S
C613   H614    1.084   .     S
C613   O615    1.221   .     D
C616   H617    1.082   .     S
C616   O618    1.221   .     D
N619   O620    1.301   .     A
N619   O621    1.301   .     A
N622   O623    1.301   .     A
N622   O624    1.301   .     A
O625   C629    1.277   .     A
O625   Zn637   1.987   .     S
O626   C630    1.277   .     A
O626   Zn638   1.987   .     S
O627   Zn638   1.982   .     S
O627   C629    1.280   .     A
O628   Zn637   1.982   .     S
O628   C630    1.280   .     A
C629   C668    1.409   .     S
C630   C667    1.409   .     S
O631   C635    1.291   .     A
O631   Zn637   1.948   .     S
O632   C636    1.293   .     A
O632   Zn638   1.948   .     S
O633   Zn638   1.881   .     S
O633   C635    1.300   .     A
O634   C636    1.300   .     A
O634   Zn637   1.881   .     S
C635   C639    1.473   .     S
C636   C640    1.474   .     S
Zn637  N677    2.010   .     S
Zn638  N678    2.010   .     S
C639   C643    1.415   .     A
C639   C645    1.389   .     A
C640   C644    1.418   .     A
C640   C646    1.386   .     A
C641   C685    1.493   .     S
C641   C649    1.424   .     A
C641   C643    1.419   .     A
C642   C650    1.425   .     A
C642   C688    1.488   .     S
C642   C644    1.421   .     A
C643   C682    1.484   .     S
C644   C679    1.486   .     S
C645   H660    1.074   .     S
C645   C647    1.394   .     A
C646   H659    1.080   .     S
C646   C648    1.392   .     A
C647   C651    1.426   .     A
C647   C649    1.423   .     A
C648   C650    1.417   .     A
C648   C652    1.419   .     A
C649   C1357   1.402   .     S
C650   C1358   1.403   1_554 S
C651   C654    1.415   .     A
C651   C1354   1.411   .     S
C652   C653    1.411   .     A
C652   C1353   1.411   1_554 S
C653   C655    1.384   .     A
C653   H661    1.080   .     S
C654   H662    1.077   .     S
C654   C656    1.389   .     A
C655   H657    1.079   .     S
C655   C1351   1.402   1_554 S
C656   H658    1.080   .     S
C656   C1352   1.403   .     S
C663   C691    1.496   .     S
C663   C668    1.407   .     A
C663   C197    1.390   1_565 S
C664   C694    1.495   .     S
C664   C667    1.407   .     A
C665   C667    1.403   .     A
C665   N697    1.436   .     S
C666   C668    1.403   .     A
C666   N700    1.436   .     S
C666   C196    1.390   1_565 S
C669   H671    1.081   .     S
C669   N678    1.366   .     A
C669   C517    1.416   1_655 S
C670   H672    1.082   .     S
C670   N677    1.366   .     A
C673   H675    1.082   .     S
C673   N677    1.367   .     A
C674   N678    1.367   .     A
C674   H676    1.082   .     S
C674   C514    1.417   1_655 S
C679   H680    1.084   .     S
C679   O681    1.221   .     D
C682   O684    1.221   .     D
C682   H683    1.084   .     S
C685   H1388   1.084   .     S
H686   C1387   1.084   1_554 S
O687   C529    1.221   1_655 S
C688   H533    1.085   1_655 S
C688   O1392   1.221   1_554 S
O690   C1390   1.221   .     S
C691   H692    1.084   .     S
C691   O693    1.221   .     D
C694   H695    1.082   .     S
C694   O696    1.221   .     D
N697   O698    1.301   .     A
N697   O699    1.301   .     A
N700   O701    1.301   .     A
N700   O702    1.301   .     A
O703   C707    1.277   .     A
O703   Zn715   1.987   .     S
O704   C708    1.277   .     A
O704   Zn716   1.987   .     S
O705   Zn716   1.982   .     S
O705   C707    1.280   .     A
O706   Zn715   1.982   .     S
O706   C708    1.280   .     A
C707   C746    1.409   .     S
C708   C745    1.409   .     S
O709   C713    1.291   .     A
O709   Zn715   1.948   .     S
O710   C714    1.293   .     A
O710   Zn716   1.948   .     S
O711   Zn716   1.881   .     S
O711   C713    1.300   .     A
O712   C714    1.300   .     A
O712   Zn715   1.881   .     S
C713   C717    1.473   .     S
C714   C718    1.474   .     S
Zn715  N755    2.010   .     S
Zn716  N756    2.010   .     S
C717   C721    1.415   .     A
C717   C723    1.389   .     A
C718   C722    1.418   .     A
C718   C724    1.386   .     A
C719   C763    1.493   .     S
C719   C727    1.424   .     A
C719   C721    1.419   .     A
C720   C728    1.425   .     A
C720   C766    1.488   .     S
C720   C722    1.421   .     A
C721   C760    1.484   .     S
C722   C757    1.486   .     S
C723   H738    1.074   .     S
C723   C725    1.394   .     A
C724   H737    1.080   .     S
C724   C726    1.392   .     A
C725   C729    1.426   .     A
C725   C727    1.423   .     A
C726   C728    1.417   .     A
C726   C730    1.419   .     A
C727   C31     1.402   1_556 S
C729   C732    1.415   .     A
C729   C28     1.411   1_556 S
C730   C731    1.411   .     A
C731   C733    1.384   .     A
C731   H739    1.080   .     S
C732   H740    1.077   .     S
C732   C734    1.389   .     A
C733   H735    1.079   .     S
C734   H736    1.080   .     S
C734   C26     1.403   1_556 S
C741   C769    1.496   .     S
C741   C746    1.407   .     A
C741   C977    1.390   .     S
C742   C772    1.495   .     S
C742   C745    1.407   .     A
C742   C1212   1.390   1_545 S
C743   C745    1.403   .     A
C743   N775    1.436   .     S
C743   C1209   1.390   1_545 S
C744   C746    1.403   .     A
C744   N778    1.436   .     S
C744   C976    1.390   .     S
C747   H749    1.081   .     S
C747   N756    1.366   .     A
C747   C829    1.416   .     S
C748   H750    1.082   .     S
C748   N755    1.366   .     A
C748   C908    1.417   1_455 S
C751   H753    1.082   .     S
C751   N755    1.367   .     A
C751   C903    1.416   1_455 S
C752   N756    1.367   .     A
C752   H754    1.082   .     S
C752   C826    1.417   .     S
C757   H758    1.084   .     S
C757   O759    1.221   .     D
C760   O762    1.221   .     D
C760   H761    1.084   .     S
C763   H62     1.084   1_556 S
C763   O921    1.221   1_455 S
O765   C841    1.221   .     S
C766   H845    1.085   .     S
H767   C922    1.085   1_455 S
O768   C64     1.221   1_556 S
C769   H770    1.084   .     S
C769   O771    1.221   .     D
C772   H773    1.082   .     S
C772   O774    1.221   .     D
N775   O776    1.301   .     A
N775   O777    1.301   .     A
N778   O779    1.301   .     A
N778   O780    1.301   .     A
O781   C785    1.277   .     A
O781   Zn793   1.987   .     S
O782   C786    1.277   .     A
O782   Zn794   1.987   .     S
O783   Zn794   1.982   .     S
O783   C785    1.280   .     A
O784   Zn793   1.982   .     S
O784   C786    1.280   .     A
C785   C824    1.409   .     S
C786   C823    1.409   .     S
O787   C791    1.291   .     A
O787   Zn793   1.948   .     S
O788   C792    1.293   .     A
O788   Zn794   1.948   .     S
O789   Zn794   1.881   .     S
O789   C791    1.300   .     A
O790   C792    1.300   .     A
O790   Zn793   1.881   .     S
C791   C795    1.473   .     S
C792   C796    1.474   .     S
Zn793  N833    2.010   .     S
Zn794  N834    2.010   .     S
C795   C799    1.415   .     A
C795   C801    1.389   .     A
C796   C800    1.418   .     A
C796   C802    1.386   .     A
C797   C841    1.493   .     S
C797   C805    1.424   .     A
C797   C799    1.419   .     A
C798   C806    1.425   .     A
C798   C844    1.488   .     S
C798   C800    1.421   .     A
C799   C838    1.484   .     S
C800   C835    1.486   .     S
C801   H816    1.074   .     S
C801   C803    1.394   .     A
C802   H815    1.080   .     S
C802   C804    1.392   .     A
C803   C807    1.426   .     A
C803   C805    1.423   .     A
C804   C806    1.417   .     A
C804   C808    1.419   .     A
C805   C109    1.402   1_556 S
C807   C810    1.415   .     A
C807   C106    1.411   1_556 S
C808   C809    1.411   .     A
C809   C811    1.384   .     A
C809   H817    1.080   .     S
C810   H818    1.077   .     S
C810   C812    1.389   .     A
C811   H813    1.079   .     S
C812   H814    1.080   .     S
C812   C104    1.403   1_556 S
C819   C847    1.496   .     S
C819   C824    1.407   .     A
C819   C1055   1.390   .     S
C820   C850    1.495   .     S
C820   C823    1.407   .     A
C820   C1290   1.390   1_545 S
C821   C823    1.403   .     A
C821   N853    1.436   .     S
C821   C1287   1.390   1_545 S
C822   C824    1.403   .     A
C822   N856    1.436   .     S
C822   C1054   1.390   .     S
C825   H827    1.081   .     S
C825   N834    1.366   .     A
C825   C907    1.416   .     S
C826   H828    1.082   .     S
C826   N833    1.366   .     A
C829   H831    1.082   .     S
C829   N833    1.367   .     A
C830   N834    1.367   .     A
C830   H832    1.082   .     S
C830   C904    1.417   .     S
C835   H836    1.084   .     S
C835   O837    1.221   .     D
C838   O840    1.221   .     D
C838   H839    1.084   .     S
C841   H140    1.084   1_556 S
O843   C919    1.221   .     S
C844   H923    1.085   .     S
O846   C142    1.221   1_556 S
C847   H848    1.084   .     S
C847   O849    1.221   .     D
C850   H851    1.082   .     S
C850   O852    1.221   .     D
N853   O854    1.301   .     A
N853   O855    1.301   .     A
N856   O857    1.301   .     A
N856   O858    1.301   .     A
O859   C863    1.277   .     A
O859   Zn871   1.987   .     S
O860   C864    1.277   .     A
O860   Zn872   1.987   .     S
O861   Zn872   1.982   .     S
O861   C863    1.280   .     A
O862   Zn871   1.982   .     S
O862   C864    1.280   .     A
C863   C902    1.409   .     S
C864   C901    1.409   .     S
O865   C869    1.291   .     A
O865   Zn871   1.948   .     S
O866   C870    1.293   .     A
O866   Zn872   1.948   .     S
O867   Zn872   1.881   .     S
O867   C869    1.300   .     A
O868   C870    1.300   .     A
O868   Zn871   1.881   .     S
C869   C873    1.473   .     S
C870   C874    1.474   .     S
Zn871  N911    2.010   .     S
Zn872  N912    2.010   .     S
C873   C877    1.415   .     A
C873   C879    1.389   .     A
C874   C878    1.418   .     A
C874   C880    1.386   .     A
C875   C919    1.493   .     S
C875   C883    1.424   .     A
C875   C877    1.419   .     A
C876   C884    1.425   .     A
C876   C922    1.488   .     S
C876   C878    1.421   .     A
C877   C916    1.484   .     S
C878   C913    1.486   .     S
C879   H894    1.074   .     S
C879   C881    1.394   .     A
C880   H893    1.080   .     S
C880   C882    1.392   .     A
C881   C885    1.426   .     A
C881   C883    1.423   .     A
C882   C884    1.417   .     A
C882   C886    1.419   .     A
C883   C187    1.402   1_556 S
C885   C888    1.415   .     A
C885   C184    1.411   1_556 S
C886   C887    1.411   .     A
C887   C889    1.384   .     A
C887   H895    1.080   .     S
C888   H896    1.077   .     S
C888   C890    1.389   .     A
C889   H891    1.079   .     S
C890   H892    1.080   .     S
C890   C182    1.403   1_556 S
C897   C925    1.496   .     S
C897   C902    1.407   .     A
C897   C1133   1.390   .     S
C898   C928    1.495   .     S
C898   C901    1.407   .     A
C898   C1368   1.390   1_545 S
C899   C901    1.403   .     A
C899   N931    1.436   .     S
C899   C1365   1.390   1_545 S
C900   C902    1.403   .     A
C900   N934    1.436   .     S
C900   C1132   1.390   .     S
C903   H905    1.081   .     S
C903   N912    1.366   .     A
C903   C751    1.416   1_655 S
C904   H906    1.082   .     S
C904   N911    1.366   .     A
C907   H909    1.082   .     S
C907   N911    1.367   .     A
C908   N912    1.367   .     A
C908   H910    1.082   .     S
C908   C748    1.417   1_655 S
C913   H914    1.084   .     S
C913   O915    1.221   .     D
C916   O918    1.221   .     D
C916   H917    1.084   .     S
C919   H218    1.084   1_556 S
O921   C763    1.221   1_655 S
C922   H767    1.085   1_655 S
O924   C220    1.221   1_556 S
C925   H926    1.084   .     S
C925   O927    1.221   .     D
C928   H929    1.082   .     S
C928   O930    1.221   .     D
N931   O932    1.301   .     A
N931   O933    1.301   .     A
N934   O935    1.301   .     A
N934   O936    1.301   .     A
O937   C941    1.277   .     A
O937   Zn949   1.987   .     S
O938   C942    1.277   .     A
O938   Zn950   1.987   .     S
O939   Zn950   1.982   .     S
O939   C941    1.280   .     A
O940   Zn949   1.982   .     S
O940   C942    1.280   .     A
C941   C980    1.409   .     S
C942   C979    1.409   .     S
O943   C947    1.291   .     A
O943   Zn949   1.948   .     S
O944   C948    1.293   .     A
O944   Zn950   1.948   .     S
O945   Zn950   1.881   .     S
O945   C947    1.300   .     A
O946   C948    1.300   .     A
O946   Zn949   1.881   .     S
C947   C951    1.473   .     S
C948   C952    1.474   .     S
Zn949  N989    2.010   .     S
Zn950  N990    2.010   .     S
C951   C955    1.415   .     A
C951   C957    1.389   .     A
C952   C956    1.418   .     A
C952   C958    1.386   .     A
C953   C997    1.493   .     S
C953   C961    1.424   .     A
C953   C955    1.419   .     A
C954   C962    1.425   .     A
C954   C1000   1.488   .     S
C954   C956    1.421   .     A
C955   C994    1.484   .     S
C956   C991    1.486   .     S
C957   H972    1.074   .     S
C957   C959    1.394   .     A
C958   H971    1.080   .     S
C958   C960    1.392   .     A
C959   C963    1.426   .     A
C959   C961    1.423   .     A
C960   C962    1.417   .     A
C960   C964    1.419   .     A
C961   C265    1.402   1_556 S
C963   C966    1.415   .     A
C963   C262    1.411   1_556 S
C964   C965    1.411   .     A
C965   C967    1.384   .     A
C965   H973    1.080   .     S
C966   H974    1.077   .     S
C966   C968    1.389   .     A
C967   H969    1.079   .     S
C968   H970    1.080   .     S
C968   C260    1.403   1_556 S
C975   C1003   1.496   .     S
C975   C980    1.407   .     A
C975   C1211   1.390   .     S
C976   C1006   1.495   .     S
C976   C979    1.407   .     A
C977   C979    1.403   .     A
C977   N1009   1.436   .     S
C978   C980    1.403   .     A
C978   N1012   1.436   .     S
C978   C1210   1.390   .     S
C981   H983    1.081   .     S
C981   N990    1.366   .     A
C981   C1063   1.416   .     S
C982   H984    1.082   .     S
C982   N989    1.366   .     A
C982   C1142   1.417   1_455 S
C985   H987    1.082   .     S
C985   N989    1.367   .     A
C985   C1137   1.416   1_455 S
C986   N990    1.367   .     A
C986   H988    1.082   .     S
C986   C1060   1.417   .     S
C991   H992    1.084   .     S
C991   O993    1.221   .     D
C994   O996    1.221   .     D
C994   H995    1.084   .     S
C997   H296    1.084   1_556 S
C997   O1155   1.221   1_455 S
O999   C1075   1.221   .     S
C1000  H1079   1.085   .     S
H1001  C1156   1.085   1_455 S
O1002  C298    1.221   1_556 S
C1003  H1004   1.084   .     S
C1003  O1005   1.221   .     D
C1006  H1007   1.082   .     S
C1006  O1008   1.221   .     D
N1009  O1010   1.301   .     A
N1009  O1011   1.301   .     A
N1012  O1013   1.301   .     A
N1012  O1014   1.301   .     A
O1015  C1019   1.277   .     A
O1015  Zn1027  1.987   .     S
O1016  C1020   1.277   .     A
O1016  Zn1028  1.987   .     S
O1017  Zn1028  1.982   .     S
O1017  C1019   1.280   .     A
O1018  Zn1027  1.982   .     S
O1018  C1020   1.280   .     A
C1019  C1058   1.409   .     S
C1020  C1057   1.409   .     S
O1021  C1025   1.291   .     A
O1021  Zn1027  1.948   .     S
O1022  C1026   1.293   .     A
O1022  Zn1028  1.948   .     S
O1023  Zn1028  1.881   .     S
O1023  C1025   1.300   .     A
O1024  C1026   1.300   .     A
O1024  Zn1027  1.881   .     S
C1025  C1029   1.473   .     S
C1026  C1030   1.474   .     S
Zn1027 N1067   2.010   .     S
Zn1028 N1068   2.010   .     S
C1029  C1033   1.415   .     A
C1029  C1035   1.389   .     A
C1030  C1034   1.418   .     A
C1030  C1036   1.386   .     A
C1031  C1075   1.493   .     S
C1031  C1039   1.424   .     A
C1031  C1033   1.419   .     A
C1032  C1040   1.425   .     A
C1032  C1078   1.488   .     S
C1032  C1034   1.421   .     A
C1033  C1072   1.484   .     S
C1034  C1069   1.486   .     S
C1035  H1050   1.074   .     S
C1035  C1037   1.394   .     A
C1036  H1049   1.080   .     S
C1036  C1038   1.392   .     A
C1037  C1041   1.426   .     A
C1037  C1039   1.423   .     A
C1038  C1040   1.417   .     A
C1038  C1042   1.419   .     A
C1039  C343    1.402   1_556 S
C1041  C1044   1.415   .     A
C1041  C340    1.411   1_556 S
C1042  C1043   1.411   .     A
C1043  C1045   1.384   .     A
C1043  H1051   1.080   .     S
C1044  H1052   1.077   .     S
C1044  C1046   1.389   .     A
C1045  H1047   1.079   .     S
C1046  H1048   1.080   .     S
C1046  C338    1.403   1_556 S
C1053  C1081   1.496   .     S
C1053  C1058   1.407   .     A
C1053  C1289   1.390   .     S
C1054  C1084   1.495   .     S
C1054  C1057   1.407   .     A
C1055  C1057   1.403   .     A
C1055  N1087   1.436   .     S
C1056  C1058   1.403   .     A
C1056  N1090   1.436   .     S
C1056  C1288   1.390   .     S
C1059  H1061   1.081   .     S
C1059  N1068   1.366   .     A
C1059  C1141   1.416   .     S
C1060  H1062   1.082   .     S
C1060  N1067   1.366   .     A
C1063  H1065   1.082   .     S
C1063  N1067   1.367   .     A
C1064  N1068   1.367   .     A
C1064  H1066   1.082   .     S
C1064  C1138   1.417   .     S
C1069  H1070   1.084   .     S
C1069  O1071   1.221   .     D
C1072  O1074   1.221   .     D
C1072  H1073   1.084   .     S
C1075  H374    1.084   1_556 S
O1077  C1153   1.221   .     S
C1078  H1157   1.085   .     S
O1080  C376    1.221   1_556 S
C1081  H1082   1.084   .     S
C1081  O1083   1.221   .     D
C1084  H1085   1.082   .     S
C1084  O1086   1.221   .     D
N1087  O1088   1.301   .     A
N1087  O1089   1.301   .     A
N1090  O1091   1.301   .     A
N1090  O1092   1.301   .     A
O1093  C1097   1.277   .     A
O1093  Zn1105  1.987   .     S
O1094  C1098   1.277   .     A
O1094  Zn1106  1.987   .     S
O1095  Zn1106  1.982   .     S
O1095  C1097   1.280   .     A
O1096  Zn1105  1.982   .     S
O1096  C1098   1.280   .     A
C1097  C1136   1.409   .     S
C1098  C1135   1.409   .     S
O1099  C1103   1.291   .     A
O1099  Zn1105  1.948   .     S
O1100  C1104   1.293   .     A
O1100  Zn1106  1.948   .     S
O1101  Zn1106  1.881   .     S
O1101  C1103   1.300   .     A
O1102  C1104   1.300   .     A
O1102  Zn1105  1.881   .     S
C1103  C1107   1.473   .     S
C1104  C1108   1.474   .     S
Zn1105 N1145   2.010   .     S
Zn1106 N1146   2.010   .     S
C1107  C1111   1.415   .     A
C1107  C1113   1.389   .     A
C1108  C1112   1.418   .     A
C1108  C1114   1.386   .     A
C1109  C1153   1.493   .     S
C1109  C1117   1.424   .     A
C1109  C1111   1.419   .     A
C1110  C1118   1.425   .     A
C1110  C1156   1.488   .     S
C1110  C1112   1.421   .     A
C1111  C1150   1.484   .     S
C1112  C1147   1.486   .     S
C1113  H1128   1.074   .     S
C1113  C1115   1.394   .     A
C1114  H1127   1.080   .     S
C1114  C1116   1.392   .     A
C1115  C1119   1.426   .     A
C1115  C1117   1.423   .     A
C1116  C1118   1.417   .     A
C1116  C1120   1.419   .     A
C1117  C421    1.402   1_556 S
C1119  C1122   1.415   .     A
C1119  C418    1.411   1_556 S
C1120  C1121   1.411   .     A
C1121  C1123   1.384   .     A
C1121  H1129   1.080   .     S
C1122  H1130   1.077   .     S
C1122  C1124   1.389   .     A
C1123  H1125   1.079   .     S
C1124  H1126   1.080   .     S
C1124  C416    1.403   1_556 S
C1131  C1159   1.496   .     S
C1131  C1136   1.407   .     A
C1131  C1367   1.390   .     S
C1132  C1162   1.495   .     S
C1132  C1135   1.407   .     A
C1133  C1135   1.403   .     A
C1133  N1165   1.436   .     S
C1134  C1136   1.403   .     A
C1134  N1168   1.436   .     S
C1134  C1366   1.390   .     S
C1137  H1139   1.081   .     S
C1137  N1146   1.366   .     A
C1137  C985    1.416   1_655 S
C1138  H1140   1.082   .     S
C1138  N1145   1.366   .     A
C1141  H1143   1.082   .     S
C1141  N1145   1.367   .     A
C1142  N1146   1.367   .     A
C1142  H1144   1.082   .     S
C1142  C982    1.417   1_655 S
C1147  H1148   1.084   .     S
C1147  O1149   1.221   .     D
C1150  O1152   1.221   .     D
C1150  H1151   1.084   .     S
C1153  H452    1.084   1_556 S
O1155  C997    1.221   1_655 S
C1156  H1001   1.085   1_655 S
O1158  C454    1.221   1_556 S
C1159  H1160   1.084   .     S
C1159  O1161   1.221   .     D
C1162  H1163   1.082   .     S
C1162  O1164   1.221   .     D
N1165  O1166   1.301   .     A
N1165  O1167   1.301   .     A
N1168  O1169   1.301   .     A
N1168  O1170   1.301   .     A
O1171  C1175   1.277   .     A
O1171  Zn1183  1.987   .     S
O1172  C1176   1.277   .     A
O1172  Zn1184  1.987   .     S
O1173  Zn1184  1.982   .     S
O1173  C1175   1.280   .     A
O1174  Zn1183  1.982   .     S
O1174  C1176   1.280   .     A
C1175  C1214   1.409   .     S
C1176  C1213   1.409   .     S
O1177  C1181   1.291   .     A
O1177  Zn1183  1.948   .     S
O1178  C1182   1.293   .     A
O1178  Zn1184  1.948   .     S
O1179  Zn1184  1.881   .     S
O1179  C1181   1.300   .     A
O1180  C1182   1.300   .     A
O1180  Zn1183  1.881   .     S
C1181  C1185   1.473   .     S
C1182  C1186   1.474   .     S
Zn1183 N1223   2.010   .     S
Zn1184 N1224   2.010   .     S
C1185  C1189   1.415   .     A
C1185  C1191   1.389   .     A
C1186  C1190   1.418   .     A
C1186  C1192   1.386   .     A
C1187  C1231   1.493   .     S
C1187  C1195   1.424   .     A
C1187  C1189   1.419   .     A
C1188  C1196   1.425   .     A
C1188  C1234   1.488   .     S
C1188  C1190   1.421   .     A
C1189  C1228   1.484   .     S
C1190  C1225   1.486   .     S
C1191  H1206   1.074   .     S
C1191  C1193   1.394   .     A
C1192  H1205   1.080   .     S
C1192  C1194   1.392   .     A
C1193  C1197   1.426   .     A
C1193  C1195   1.423   .     A
C1194  C1196   1.417   .     A
C1194  C1198   1.419   .     A
C1195  C499    1.402   1_556 S
C1197  C1200   1.415   .     A
C1197  C496    1.411   1_556 S
C1198  C1199   1.411   .     A
C1199  C1201   1.384   .     A
C1199  H1207   1.080   .     S
C1200  H1208   1.077   .     S
C1200  C1202   1.389   .     A
C1201  H1203   1.079   .     S
C1202  H1204   1.080   .     S
C1202  C494    1.403   1_556 S
C1209  C1237   1.496   .     S
C1209  C1214   1.407   .     A
C1209  C743    1.390   1_565 S
C1210  C1240   1.495   .     S
C1210  C1213   1.407   .     A
C1211  C1213   1.403   .     A
C1211  N1243   1.436   .     S
C1212  C1214   1.403   .     A
C1212  N1246   1.436   .     S
C1212  C742    1.390   1_565 S
C1215  H1217   1.081   .     S
C1215  N1224   1.366   .     A
C1215  C1297   1.416   .     S
C1216  H1218   1.082   .     S
C1216  N1223   1.366   .     A
C1216  C1376   1.417   1_455 S
C1219  H1221   1.082   .     S
C1219  N1223   1.367   .     A
C1219  C1371   1.416   1_455 S
C1220  N1224   1.367   .     A
C1220  H1222   1.082   .     S
C1220  C1294   1.417   .     S
C1225  H1226   1.084   .     S
C1225  O1227   1.221   .     D
C1228  O1230   1.221   .     D
C1228  H1229   1.084   .     S
C1231  H530    1.084   1_556 S
C1231  O1389   1.221   1_455 S
O1233  C1309   1.221   .     S
C1234  H1313   1.085   .     S
H1235  C1390   1.085   1_455 S
O1236  C532    1.221   1_556 S
C1237  H1238   1.084   .     S
C1237  O1239   1.221   .     D
C1240  H1241   1.082   .     S
C1240  O1242   1.221   .     D
N1243  O1244   1.301   .     A
N1243  O1245   1.301   .     A
N1246  O1247   1.301   .     A
N1246  O1248   1.301   .     A
O1249  C1253   1.277   .     A
O1249  Zn1261  1.987   .     S
O1250  C1254   1.277   .     A
O1250  Zn1262  1.987   .     S
O1251  Zn1262  1.982   .     S
O1251  C1253   1.280   .     A
O1252  Zn1261  1.982   .     S
O1252  C1254   1.280   .     A
C1253  C1292   1.409   .     S
C1254  C1291   1.409   .     S
O1255  C1259   1.291   .     A
O1255  Zn1261  1.948   .     S
O1256  C1260   1.293   .     A
O1256  Zn1262  1.948   .     S
O1257  Zn1262  1.881   .     S
O1257  C1259   1.300   .     A
O1258  C1260   1.300   .     A
O1258  Zn1261  1.881   .     S
C1259  C1263   1.473   .     S
C1260  C1264   1.474   .     S
Zn1261 N1301   2.010   .     S
Zn1262 N1302   2.010   .     S
C1263  C1267   1.415   .     A
C1263  C1269   1.389   .     A
C1264  C1268   1.418   .     A
C1264  C1270   1.386   .     A
C1265  C1309   1.493   .     S
C1265  C1273   1.424   .     A
C1265  C1267   1.419   .     A
C1266  C1274   1.425   .     A
C1266  C1312   1.488   .     S
C1266  C1268   1.421   .     A
C1267  C1306   1.484   .     S
C1268  C1303   1.486   .     S
C1269  H1284   1.074   .     S
C1269  C1271   1.394   .     A
C1270  H1283   1.080   .     S
C1270  C1272   1.392   .     A
C1271  C1275   1.426   .     A
C1271  C1273   1.423   .     A
C1272  C1274   1.417   .     A
C1272  C1276   1.419   .     A
C1273  C577    1.402   1_556 S
C1275  C1278   1.415   .     A
C1275  C574    1.411   1_556 S
C1276  C1277   1.411   .     A
C1277  C1279   1.384   .     A
C1277  H1285   1.080   .     S
C1278  H1286   1.077   .     S
C1278  C1280   1.389   .     A
C1279  H1281   1.079   .     S
C1280  H1282   1.080   .     S
C1280  C572    1.403   1_556 S
C1287  C1315   1.496   .     S
C1287  C1292   1.407   .     A
C1287  C821    1.390   1_565 S
C1288  C1318   1.495   .     S
C1288  C1291   1.407   .     A
C1289  C1291   1.403   .     A
C1289  N1321   1.436   .     S
C1290  C1292   1.403   .     A
C1290  N1324   1.436   .     S
C1290  C820    1.390   1_565 S
C1293  H1295   1.081   .     S
C1293  N1302   1.366   .     A
C1293  C1375   1.416   .     S
C1294  H1296   1.082   .     S
C1294  N1301   1.366   .     A
C1297  H1299   1.082   .     S
C1297  N1301   1.367   .     A
C1298  N1302   1.367   .     A
C1298  H1300   1.082   .     S
C1298  C1372   1.417   .     S
C1303  H1304   1.084   .     S
C1303  O1305   1.221   .     D
C1306  O1308   1.221   .     D
C1306  H1307   1.084   .     S
C1309  H608    1.084   1_556 S
O1311  C1387   1.221   .     S
C1312  H1391   1.085   .     S
O1314  C610    1.221   1_556 S
C1315  H1316   1.084   .     S
C1315  O1317   1.221   .     D
C1318  H1319   1.082   .     S
C1318  O1320   1.221   .     D
N1321  O1322   1.301   .     A
N1321  O1323   1.301   .     A
N1324  O1325   1.301   .     A
N1324  O1326   1.301   .     A
O1327  C1331   1.277   .     A
O1327  Zn1339  1.987   .     S
O1328  C1332   1.277   .     A
O1328  Zn1340  1.987   .     S
O1329  Zn1340  1.982   .     S
O1329  C1331   1.280   .     A
O1330  Zn1339  1.982   .     S
O1330  C1332   1.280   .     A
C1331  C1370   1.409   .     S
C1332  C1369   1.409   .     S
O1333  C1337   1.291   .     A
O1333  Zn1339  1.948   .     S
O1334  C1338   1.293   .     A
O1334  Zn1340  1.948   .     S
O1335  Zn1340  1.881   .     S
O1335  C1337   1.300   .     A
O1336  C1338   1.300   .     A
O1336  Zn1339  1.881   .     S
C1337  C1341   1.473   .     S
C1338  C1342   1.474   .     S
Zn1339 N1379   2.010   .     S
Zn1340 N1380   2.010   .     S
C1341  C1345   1.415   .     A
C1341  C1347   1.389   .     A
C1342  C1346   1.418   .     A
C1342  C1348   1.386   .     A
C1343  C1387   1.493   .     S
C1343  C1351   1.424   .     A
C1343  C1345   1.419   .     A
C1344  C1352   1.425   .     A
C1344  C1390   1.488   .     S
C1344  C1346   1.421   .     A
C1345  C1384   1.484   .     S
C1346  C1381   1.486   .     S
C1347  H1362   1.074   .     S
C1347  C1349   1.394   .     A
C1348  H1361   1.080   .     S
C1348  C1350   1.392   .     A
C1349  C1353   1.426   .     A
C1349  C1351   1.423   .     A
C1350  C1352   1.417   .     A
C1350  C1354   1.419   .     A
C1351  C655    1.402   1_556 S
C1353  C1356   1.415   .     A
C1353  C652    1.411   1_556 S
C1354  C1355   1.411   .     A
C1355  C1357   1.384   .     A
C1355  H1363   1.080   .     S
C1356  H1364   1.077   .     S
C1356  C1358   1.389   .     A
C1357  H1359   1.079   .     S
C1358  H1360   1.080   .     S
C1358  C650    1.403   1_556 S
C1365  C1393   1.496   .     S
C1365  C1370   1.407   .     A
C1365  C899    1.390   1_565 S
C1366  C1396   1.495   .     S
C1366  C1369   1.407   .     A
C1367  C1369   1.403   .     A
C1367  N1399   1.436   .     S
C1368  C1370   1.403   .     A
C1368  N1402   1.436   .     S
C1368  C898    1.390   1_565 S
C1371  H1373   1.081   .     S
C1371  N1380   1.366   .     A
C1371  C1219   1.416   1_655 S
C1372  H1374   1.082   .     S
C1372  N1379   1.366   .     A
C1375  H1377   1.082   .     S
C1375  N1379   1.367   .     A
C1376  N1380   1.367   .     A
C1376  H1378   1.082   .     S
C1376  C1216   1.417   1_655 S
C1381  H1382   1.084   .     S
C1381  O1383   1.221   .     D
C1384  O1386   1.221   .     D
C1384  H1385   1.084   .     S
C1387  H686    1.084   1_556 S
O1389  C1231   1.221   1_655 S
C1390  H1235   1.085   1_655 S
O1392  C688    1.221   1_556 S
C1393  H1394   1.084   .     S
C1393  O1395   1.221   .     D
C1396  H1397   1.082   .     S
C1396  O1398   1.221   .     D
N1399  O1400   1.301   .     A
N1399  O1401   1.301   .     A
N1402  O1403   1.301   .     A
N1402  O1404   1.301   .     A
