data_str_m3_o1_o16_pcu_sym.228
_audit_creation_date              2020-01-03
_audit_creation_method            'Materials Studio'
_symmetry_space_group_name_H-M    'P1'
_symmetry_Int_Tables_number       1
_symmetry_cell_setting            triclinic
loop_
_symmetry_equiv_pos_as_xyz
  x,y,z
_cell_length_a                    29.6302
_cell_length_b                    31.9217
_cell_length_c                    26.2564
_cell_angle_alpha                 90.7159
_cell_angle_beta                  69.9628
_cell_angle_gamma                 90.5267
loop_
_atom_site_label
_atom_site_type_symbol
_atom_site_fract_x
_atom_site_fract_y
_atom_site_fract_z
_atom_site_U_iso_or_equiv
_atom_site_adp_type
_atom_site_occupancy
C1     C     0.16617   0.24658   0.25224   0.00000  Uiso   1.00
C2     C     0.15688   0.18276   0.48316   0.00000  Uiso   1.00
C3     C     0.15730   0.15949   0.43699   0.00000  Uiso   1.00
C4     C     0.18996   0.17124   0.00840   0.00000  Uiso   1.00
C5     C     0.22990   0.14556   0.48097   0.00000  Uiso   1.00
C6     C     0.23167   0.12516   0.43328   0.00000  Uiso   1.00
C7     C     0.19356   0.12919   0.41444   0.00000  Uiso   1.00
C8     C     0.17949   0.17829   0.06339   0.00000  Uiso   1.00
C9     C     0.25490   0.14734   0.05939   0.00000  Uiso   1.00
C10    C     0.12338   0.16861   0.41194   0.00000  Uiso   1.00
C11    C     0.20628   0.31160   0.22104   0.00000  Uiso   1.00
C12    C     0.13984   0.16548   0.35242   0.00000  Uiso   1.00
C13    C     0.20652   0.02110   0.21936   0.00000  Uiso   1.00
C14    C     0.16590   0.04267   0.25114   0.00000  Uiso   1.00
C15    C     0.12541   0.02241   0.28588   0.00000  Uiso   1.00
C16    C     0.12514   0.31254   0.28938   0.00000  Uiso   1.00
C17    C     0.16571   0.29083   0.25514   0.00000  Uiso   1.00
C18    C     0.32026   0.14309   0.21319   0.00000  Uiso   1.00
C19    C     0.03478   0.14311   0.21322   0.00000  Uiso   1.00
C20    C     0.01355   0.18993   0.28695   0.00000  Uiso   1.00
C21    C     0.29888   0.19034   0.28738   0.00000  Uiso   1.00
C22    C     0.16653   0.08674   0.24984   0.00000  Uiso   1.00
C23    C     0.19344   0.16686   0.14792   0.00000  Uiso   1.00
C24    C     0.26409   0.13651   0.00521   0.00000  Uiso   1.00
C25    C     0.21080   0.16565   0.08920   0.00000  Uiso   1.00
C26    C     0.08260   0.19282   0.44031   0.00000  Uiso   1.00
C27    C     0.08446   0.21816   0.48337   0.00000  Uiso   1.00
C28    C     0.12403   0.21692   0.00099   0.00000  Uiso   1.00
H29    H     0.27972   0.13765   0.07910   0.00000  Uiso   1.00
H30    H     0.23782   0.03737   0.19267   0.00000  Uiso   1.00
H31    H     0.09510   0.04050   0.31144   0.00000  Uiso   1.00
H32    H     0.31095   0.12424   0.18368   0.00000  Uiso   1.00
H33    H     0.06156   0.12421   0.18369   0.00000  Uiso   1.00
H34    H     0.02402   0.20872   0.31569   0.00000  Uiso   1.00
H35    H     0.26022   0.10331   0.41331   0.00000  Uiso   1.00
H36    H     0.29576   0.11830   0.48382   0.00000  Uiso   1.00
H37    H     0.14400   0.18857   0.08771   0.00000  Uiso   1.00
H38    H     0.05640   0.24096   0.00098   0.00000  Uiso   1.00
H39    H     0.19327   0.10907   0.38103   0.00000  Uiso   1.00
H40    H     0.23728   0.29461   0.19496   0.00000  Uiso   1.00
N41    N     0.04760   0.16668   0.25002   0.00000  Uiso   1.00
N42    N     0.28573   0.16665   0.25001   0.00000  Uiso   1.00
O43    O     0.12846   0.22775   0.25001   0.00000  Uiso   1.00
O44    O     0.20490   0.22774   0.25001   0.00000  Uiso   1.00
O45    O     0.10947   0.16666   0.32681   0.00000  Uiso   1.00
O46    O     0.18591   0.16665   0.32681   0.00000  Uiso   1.00
O47    O     0.12843   0.10559   0.25000   0.00000  Uiso   1.00
O48    O     0.20488   0.10558   0.25000   0.00000  Uiso   1.00
O49    O     0.14742   0.16668   0.17319   0.00000  Uiso   1.00
O50    O     0.22387   0.16667   0.17319   0.00000  Uiso   1.00
Zn51   Zn    0.11562   0.16667   0.25000   0.00000  Uiso   1.00
Zn52   Zn    0.21771   0.16666   0.25000   0.00000  Uiso   1.00
C53    C     0.08399   0.29111   0.33034   0.00000  Uiso   1.00
H54    H     0.08680   0.25878   0.34096   0.00000  Uiso   1.00
O55    O     0.04649   0.30959   0.35343   0.00000  Uiso   1.00
C56    C     0.26431   0.21737   0.32853   0.00000  Uiso   1.00
H57    H     0.23223   0.22868   0.32320   0.00000  Uiso   1.00
O58    O     0.27182   0.22808   0.36976   0.00000  Uiso   1.00
C59    C     0.03927   0.19381   0.42410   0.00000  Uiso   1.00
H60    H     0.03263   0.16904   0.39890   0.00000  Uiso   1.00
O61    O     0.00958   0.22165   0.44007   0.00000  Uiso   1.00
C62    C     0.13360   0.25597   0.03007   0.00000  Uiso   1.00
C63    C     0.18214   0.27624   0.49810   0.00000  Uiso   1.00
C64    C     0.18997   0.31702   0.02499   0.00000  Uiso   1.00
H65    H     0.16147   0.00662   0.02681   0.00000  Uiso   1.00
H66    H     0.18961   0.31097   0.06671   0.00000  Uiso   1.00
H67    H     0.22534   0.33078   0.00105   0.00000  Uiso   1.00
H68    H     0.21203   0.25465   0.49549   0.00000  Uiso   1.00
H69    H     0.18339   0.28302   0.45619   0.00000  Uiso   1.00
H70    H     0.10530   0.27971   0.03403   0.00000  Uiso   1.00
H71    H     0.13129   0.25017   0.07223   0.00000  Uiso   1.00
C72    C     0.49950   0.24658   0.25224   0.00000  Uiso   1.00
C73    C     0.49021   0.18276   0.48316   0.00000  Uiso   1.00
C74    C     0.49063   0.15949   0.43699   0.00000  Uiso   1.00
C75    C     0.52329   0.17124   0.00840   0.00000  Uiso   1.00
C76    C     0.56324   0.14556   0.48097   0.00000  Uiso   1.00
C77    C     0.56500   0.12516   0.43328   0.00000  Uiso   1.00
C78    C     0.52689   0.12919   0.41444   0.00000  Uiso   1.00
C79    C     0.51282   0.17829   0.06339   0.00000  Uiso   1.00
C80    C     0.58823   0.14734   0.05939   0.00000  Uiso   1.00
C81    C     0.45672   0.16861   0.41194   0.00000  Uiso   1.00
C82    C     0.53961   0.31160   0.22104   0.00000  Uiso   1.00
C83    C     0.47317   0.16548   0.35242   0.00000  Uiso   1.00
C84    C     0.53985   0.02110   0.21936   0.00000  Uiso   1.00
C85    C     0.49923   0.04267   0.25114   0.00000  Uiso   1.00
C86    C     0.45874   0.02241   0.28588   0.00000  Uiso   1.00
C87    C     0.45847   0.31254   0.28938   0.00000  Uiso   1.00
C88    C     0.49904   0.29083   0.25514   0.00000  Uiso   1.00
C89    C     0.65360   0.14309   0.21319   0.00000  Uiso   1.00
C90    C     0.36812   0.14311   0.21322   0.00000  Uiso   1.00
C91    C     0.34688   0.18993   0.28695   0.00000  Uiso   1.00
C92    C     0.63221   0.19034   0.28738   0.00000  Uiso   1.00
C93    C     0.49987   0.08674   0.24984   0.00000  Uiso   1.00
C94    C     0.52677   0.16686   0.14792   0.00000  Uiso   1.00
C95    C     0.59743   0.13651   0.00521   0.00000  Uiso   1.00
C96    C     0.54414   0.16565   0.08920   0.00000  Uiso   1.00
C97    C     0.41593   0.19282   0.44031   0.00000  Uiso   1.00
C98    C     0.41780   0.21816   0.48337   0.00000  Uiso   1.00
C99    C     0.45736   0.21692   0.00099   0.00000  Uiso   1.00
H100   H     0.61305   0.13765   0.07910   0.00000  Uiso   1.00
H101   H     0.57115   0.03737   0.19267   0.00000  Uiso   1.00
H102   H     0.42844   0.04050   0.31144   0.00000  Uiso   1.00
H103   H     0.64428   0.12424   0.18368   0.00000  Uiso   1.00
H104   H     0.39489   0.12421   0.18369   0.00000  Uiso   1.00
H105   H     0.35735   0.20872   0.31569   0.00000  Uiso   1.00
H106   H     0.59355   0.10331   0.41331   0.00000  Uiso   1.00
H107   H     0.62910   0.11830   0.48382   0.00000  Uiso   1.00
H108   H     0.47734   0.18857   0.08771   0.00000  Uiso   1.00
H109   H     0.38973   0.24096   0.00098   0.00000  Uiso   1.00
H110   H     0.52660   0.10907   0.38103   0.00000  Uiso   1.00
H111   H     0.57062   0.29461   0.19496   0.00000  Uiso   1.00
N112   N     0.38093   0.16668   0.25002   0.00000  Uiso   1.00
N113   N     0.61906   0.16665   0.25001   0.00000  Uiso   1.00
O114   O     0.46179   0.22775   0.25001   0.00000  Uiso   1.00
O115   O     0.53823   0.22774   0.25001   0.00000  Uiso   1.00
O116   O     0.44280   0.16666   0.32681   0.00000  Uiso   1.00
O117   O     0.51924   0.16665   0.32681   0.00000  Uiso   1.00
O118   O     0.46177   0.10559   0.25000   0.00000  Uiso   1.00
O119   O     0.53821   0.10558   0.25000   0.00000  Uiso   1.00
O120   O     0.48076   0.16668   0.17319   0.00000  Uiso   1.00
O121   O     0.55720   0.16667   0.17319   0.00000  Uiso   1.00
Zn122  Zn    0.44896   0.16667   0.25000   0.00000  Uiso   1.00
Zn123  Zn    0.55104   0.16666   0.25000   0.00000  Uiso   1.00
C124   C     0.41732   0.29111   0.33034   0.00000  Uiso   1.00
H125   H     0.42014   0.25878   0.34096   0.00000  Uiso   1.00
O126   O     0.37982   0.30959   0.35343   0.00000  Uiso   1.00
C127   C     0.59764   0.21737   0.32853   0.00000  Uiso   1.00
H128   H     0.56556   0.22868   0.32320   0.00000  Uiso   1.00
O129   O     0.60515   0.22808   0.36976   0.00000  Uiso   1.00
C130   C     0.37260   0.19381   0.42410   0.00000  Uiso   1.00
H131   H     0.36597   0.16904   0.39890   0.00000  Uiso   1.00
O132   O     0.34292   0.22165   0.44007   0.00000  Uiso   1.00
C133   C     0.46694   0.25597   0.03007   0.00000  Uiso   1.00
C134   C     0.51547   0.27624   0.49810   0.00000  Uiso   1.00
C135   C     0.52331   0.31702   0.02499   0.00000  Uiso   1.00
H136   H     0.49481   0.00662   0.02681   0.00000  Uiso   1.00
H137   H     0.52294   0.31097   0.06671   0.00000  Uiso   1.00
H138   H     0.55867   0.33078   0.00105   0.00000  Uiso   1.00
H139   H     0.54536   0.25465   0.49549   0.00000  Uiso   1.00
H140   H     0.51672   0.28302   0.45619   0.00000  Uiso   1.00
H141   H     0.43864   0.27971   0.03403   0.00000  Uiso   1.00
H142   H     0.46462   0.25017   0.07223   0.00000  Uiso   1.00
C143   C     0.83283   0.24658   0.25224   0.00000  Uiso   1.00
C144   C     0.82354   0.18276   0.48316   0.00000  Uiso   1.00
C145   C     0.82397   0.15949   0.43699   0.00000  Uiso   1.00
C146   C     0.85663   0.17124   0.00840   0.00000  Uiso   1.00
C147   C     0.89657   0.14556   0.48097   0.00000  Uiso   1.00
C148   C     0.89833   0.12516   0.43328   0.00000  Uiso   1.00
C149   C     0.86022   0.12919   0.41444   0.00000  Uiso   1.00
C150   C     0.84615   0.17829   0.06339   0.00000  Uiso   1.00
C151   C     0.92156   0.14734   0.05939   0.00000  Uiso   1.00
C152   C     0.79005   0.16861   0.41194   0.00000  Uiso   1.00
C153   C     0.87294   0.31160   0.22104   0.00000  Uiso   1.00
C154   C     0.80651   0.16548   0.35242   0.00000  Uiso   1.00
C155   C     0.87319   0.02110   0.21936   0.00000  Uiso   1.00
C156   C     0.83256   0.04267   0.25114   0.00000  Uiso   1.00
C157   C     0.79208   0.02241   0.28588   0.00000  Uiso   1.00
C158   C     0.79181   0.31254   0.28938   0.00000  Uiso   1.00
C159   C     0.83238   0.29083   0.25514   0.00000  Uiso   1.00
C160   C     0.98693   0.14309   0.21319   0.00000  Uiso   1.00
C161   C     0.70145   0.14311   0.21322   0.00000  Uiso   1.00
C162   C     0.68022   0.18993   0.28695   0.00000  Uiso   1.00
C163   C     0.96555   0.19034   0.28738   0.00000  Uiso   1.00
C164   C     0.83320   0.08674   0.24984   0.00000  Uiso   1.00
C165   C     0.86010   0.16686   0.14792   0.00000  Uiso   1.00
C166   C     0.93076   0.13651   0.00521   0.00000  Uiso   1.00
C167   C     0.87747   0.16565   0.08920   0.00000  Uiso   1.00
C168   C     0.74926   0.19282   0.44031   0.00000  Uiso   1.00
C169   C     0.75113   0.21816   0.48337   0.00000  Uiso   1.00
C170   C     0.79070   0.21692   0.00099   0.00000  Uiso   1.00
H171   H     0.94639   0.13765   0.07910   0.00000  Uiso   1.00
H172   H     0.90448   0.03737   0.19267   0.00000  Uiso   1.00
H173   H     0.76177   0.04050   0.31144   0.00000  Uiso   1.00
H174   H     0.97761   0.12424   0.18368   0.00000  Uiso   1.00
H175   H     0.72823   0.12421   0.18369   0.00000  Uiso   1.00
H176   H     0.69068   0.20872   0.31569   0.00000  Uiso   1.00
H177   H     0.92688   0.10331   0.41331   0.00000  Uiso   1.00
H178   H     0.96243   0.11830   0.48382   0.00000  Uiso   1.00
H179   H     0.81067   0.18857   0.08771   0.00000  Uiso   1.00
H180   H     0.72307   0.24096   0.00098   0.00000  Uiso   1.00
H181   H     0.85993   0.10907   0.38103   0.00000  Uiso   1.00
H182   H     0.90395   0.29461   0.19496   0.00000  Uiso   1.00
N183   N     0.71426   0.16668   0.25002   0.00000  Uiso   1.00
N184   N     0.95239   0.16665   0.25001   0.00000  Uiso   1.00
O185   O     0.79512   0.22775   0.25001   0.00000  Uiso   1.00
O186   O     0.87157   0.22774   0.25001   0.00000  Uiso   1.00
O187   O     0.77613   0.16666   0.32681   0.00000  Uiso   1.00
O188   O     0.85258   0.16665   0.32681   0.00000  Uiso   1.00
O189   O     0.79510   0.10559   0.25000   0.00000  Uiso   1.00
O190   O     0.87154   0.10558   0.25000   0.00000  Uiso   1.00
O191   O     0.81409   0.16668   0.17319   0.00000  Uiso   1.00
O192   O     0.89053   0.16667   0.17319   0.00000  Uiso   1.00
Zn193  Zn    0.78229   0.16667   0.25000   0.00000  Uiso   1.00
Zn194  Zn    0.88438   0.16666   0.25000   0.00000  Uiso   1.00
C195   C     0.75065   0.29111   0.33034   0.00000  Uiso   1.00
H196   H     0.75347   0.25878   0.34096   0.00000  Uiso   1.00
O197   O     0.71315   0.30959   0.35343   0.00000  Uiso   1.00
C198   C     0.93098   0.21737   0.32853   0.00000  Uiso   1.00
H199   H     0.89890   0.22868   0.32320   0.00000  Uiso   1.00
O200   O     0.93848   0.22808   0.36976   0.00000  Uiso   1.00
C201   C     0.70594   0.19381   0.42410   0.00000  Uiso   1.00
H202   H     0.69930   0.16904   0.39890   0.00000  Uiso   1.00
O203   O     0.67625   0.22165   0.44007   0.00000  Uiso   1.00
C204   C     0.80027   0.25597   0.03007   0.00000  Uiso   1.00
C205   C     0.84881   0.27624   0.49810   0.00000  Uiso   1.00
C206   C     0.85664   0.31702   0.02499   0.00000  Uiso   1.00
H207   H     0.82814   0.00662   0.02681   0.00000  Uiso   1.00
H208   H     0.85628   0.31097   0.06671   0.00000  Uiso   1.00
H209   H     0.89201   0.33078   0.00105   0.00000  Uiso   1.00
H210   H     0.87869   0.25465   0.49549   0.00000  Uiso   1.00
H211   H     0.85005   0.28302   0.45619   0.00000  Uiso   1.00
H212   H     0.77197   0.27971   0.03403   0.00000  Uiso   1.00
H213   H     0.79796   0.25017   0.07223   0.00000  Uiso   1.00
C214   C     0.16617   0.57991   0.25224   0.00000  Uiso   1.00
C215   C     0.15688   0.51610   0.48316   0.00000  Uiso   1.00
C216   C     0.15730   0.49282   0.43699   0.00000  Uiso   1.00
C217   C     0.18996   0.50457   0.00840   0.00000  Uiso   1.00
C218   C     0.22990   0.47889   0.48097   0.00000  Uiso   1.00
C219   C     0.23167   0.45850   0.43328   0.00000  Uiso   1.00
C220   C     0.19356   0.46252   0.41444   0.00000  Uiso   1.00
C221   C     0.17949   0.51162   0.06339   0.00000  Uiso   1.00
C222   C     0.25490   0.48068   0.05939   0.00000  Uiso   1.00
C223   C     0.12338   0.50194   0.41194   0.00000  Uiso   1.00
C224   C     0.20628   0.64494   0.22104   0.00000  Uiso   1.00
C225   C     0.13984   0.49881   0.35242   0.00000  Uiso   1.00
C226   C     0.20652   0.35444   0.21936   0.00000  Uiso   1.00
C227   C     0.16590   0.37601   0.25114   0.00000  Uiso   1.00
C228   C     0.12541   0.35574   0.28588   0.00000  Uiso   1.00
C229   C     0.12514   0.64587   0.28938   0.00000  Uiso   1.00
C230   C     0.16571   0.62416   0.25514   0.00000  Uiso   1.00
C231   C     0.32026   0.47642   0.21319   0.00000  Uiso   1.00
C232   C     0.03478   0.47644   0.21322   0.00000  Uiso   1.00
C233   C     0.01355   0.52326   0.28695   0.00000  Uiso   1.00
C234   C     0.29888   0.52367   0.28738   0.00000  Uiso   1.00
C235   C     0.16653   0.42007   0.24984   0.00000  Uiso   1.00
C236   C     0.19344   0.50020   0.14792   0.00000  Uiso   1.00
C237   C     0.26409   0.46984   0.00521   0.00000  Uiso   1.00
C238   C     0.21080   0.49898   0.08920   0.00000  Uiso   1.00
C239   C     0.08260   0.52616   0.44031   0.00000  Uiso   1.00
C240   C     0.08446   0.55149   0.48337   0.00000  Uiso   1.00
C241   C     0.12403   0.55025   0.00099   0.00000  Uiso   1.00
H242   H     0.27972   0.47098   0.07910   0.00000  Uiso   1.00
H243   H     0.23782   0.37071   0.19267   0.00000  Uiso   1.00
H244   H     0.09510   0.37383   0.31144   0.00000  Uiso   1.00
H245   H     0.31095   0.45758   0.18368   0.00000  Uiso   1.00
H246   H     0.06156   0.45754   0.18369   0.00000  Uiso   1.00
H247   H     0.02402   0.54205   0.31569   0.00000  Uiso   1.00
H248   H     0.26022   0.43665   0.41331   0.00000  Uiso   1.00
H249   H     0.29576   0.45163   0.48382   0.00000  Uiso   1.00
H250   H     0.14400   0.52191   0.08771   0.00000  Uiso   1.00
H251   H     0.05640   0.57430   0.00098   0.00000  Uiso   1.00
H252   H     0.19327   0.44240   0.38103   0.00000  Uiso   1.00
H253   H     0.23728   0.62794   0.19496   0.00000  Uiso   1.00
N254   N     0.04760   0.50001   0.25002   0.00000  Uiso   1.00
N255   N     0.28573   0.49998   0.25001   0.00000  Uiso   1.00
O256   O     0.12846   0.56108   0.25001   0.00000  Uiso   1.00
O257   O     0.20490   0.56107   0.25001   0.00000  Uiso   1.00
O258   O     0.10947   0.50000   0.32681   0.00000  Uiso   1.00
O259   O     0.18591   0.49999   0.32681   0.00000  Uiso   1.00
O260   O     0.12843   0.43893   0.25000   0.00000  Uiso   1.00
O261   O     0.20488   0.43892   0.25000   0.00000  Uiso   1.00
O262   O     0.14742   0.50001   0.17319   0.00000  Uiso   1.00
O263   O     0.22387   0.50000   0.17319   0.00000  Uiso   1.00
Zn264  Zn    0.11562   0.50001   0.25000   0.00000  Uiso   1.00
Zn265  Zn    0.21771   0.49999   0.25000   0.00000  Uiso   1.00
C266   C     0.08399   0.62444   0.33034   0.00000  Uiso   1.00
H267   H     0.08680   0.59212   0.34096   0.00000  Uiso   1.00
O268   O     0.04649   0.64293   0.35343   0.00000  Uiso   1.00
C269   C     0.26431   0.55070   0.32853   0.00000  Uiso   1.00
H270   H     0.23223   0.56202   0.32320   0.00000  Uiso   1.00
O271   O     0.27182   0.56141   0.36976   0.00000  Uiso   1.00
C272   C     0.03927   0.52714   0.42410   0.00000  Uiso   1.00
H273   H     0.03263   0.50237   0.39890   0.00000  Uiso   1.00
O274   O     0.00958   0.55499   0.44007   0.00000  Uiso   1.00
C275   C     0.13360   0.58930   0.03007   0.00000  Uiso   1.00
C276   C     0.18214   0.60958   0.49810   0.00000  Uiso   1.00
C277   C     0.18997   0.65036   0.02499   0.00000  Uiso   1.00
H278   H     0.16147   0.33995   0.02681   0.00000  Uiso   1.00
H279   H     0.18961   0.64430   0.06671   0.00000  Uiso   1.00
H280   H     0.22534   0.66412   0.00105   0.00000  Uiso   1.00
H281   H     0.21203   0.58798   0.49549   0.00000  Uiso   1.00
H282   H     0.18339   0.61636   0.45619   0.00000  Uiso   1.00
H283   H     0.10530   0.61304   0.03403   0.00000  Uiso   1.00
H284   H     0.13129   0.58350   0.07223   0.00000  Uiso   1.00
C285   C     0.49950   0.57991   0.25224   0.00000  Uiso   1.00
C286   C     0.49021   0.51610   0.48316   0.00000  Uiso   1.00
C287   C     0.49063   0.49282   0.43699   0.00000  Uiso   1.00
C288   C     0.52329   0.50457   0.00840   0.00000  Uiso   1.00
C289   C     0.56324   0.47889   0.48097   0.00000  Uiso   1.00
C290   C     0.56500   0.45850   0.43328   0.00000  Uiso   1.00
C291   C     0.52689   0.46252   0.41444   0.00000  Uiso   1.00
C292   C     0.51282   0.51162   0.06339   0.00000  Uiso   1.00
C293   C     0.58823   0.48068   0.05939   0.00000  Uiso   1.00
C294   C     0.45672   0.50194   0.41194   0.00000  Uiso   1.00
C295   C     0.53961   0.64494   0.22104   0.00000  Uiso   1.00
C296   C     0.47317   0.49881   0.35242   0.00000  Uiso   1.00
C297   C     0.53985   0.35444   0.21936   0.00000  Uiso   1.00
C298   C     0.49923   0.37601   0.25114   0.00000  Uiso   1.00
C299   C     0.45874   0.35574   0.28588   0.00000  Uiso   1.00
C300   C     0.45847   0.64587   0.28938   0.00000  Uiso   1.00
C301   C     0.49904   0.62416   0.25514   0.00000  Uiso   1.00
C302   C     0.65360   0.47642   0.21319   0.00000  Uiso   1.00
C303   C     0.36812   0.47644   0.21322   0.00000  Uiso   1.00
C304   C     0.34688   0.52326   0.28695   0.00000  Uiso   1.00
C305   C     0.63221   0.52367   0.28738   0.00000  Uiso   1.00
C306   C     0.49987   0.42007   0.24984   0.00000  Uiso   1.00
C307   C     0.52677   0.50020   0.14792   0.00000  Uiso   1.00
C308   C     0.59743   0.46984   0.00521   0.00000  Uiso   1.00
C309   C     0.54414   0.49898   0.08920   0.00000  Uiso   1.00
C310   C     0.41593   0.52616   0.44031   0.00000  Uiso   1.00
C311   C     0.41780   0.55149   0.48337   0.00000  Uiso   1.00
C312   C     0.45736   0.55025   0.00099   0.00000  Uiso   1.00
H313   H     0.61305   0.47098   0.07910   0.00000  Uiso   1.00
H314   H     0.57115   0.37071   0.19267   0.00000  Uiso   1.00
H315   H     0.42844   0.37383   0.31144   0.00000  Uiso   1.00
H316   H     0.64428   0.45758   0.18368   0.00000  Uiso   1.00
H317   H     0.39489   0.45754   0.18369   0.00000  Uiso   1.00
H318   H     0.35735   0.54205   0.31569   0.00000  Uiso   1.00
H319   H     0.59355   0.43665   0.41331   0.00000  Uiso   1.00
H320   H     0.62910   0.45163   0.48382   0.00000  Uiso   1.00
H321   H     0.47734   0.52191   0.08771   0.00000  Uiso   1.00
H322   H     0.38973   0.57430   0.00098   0.00000  Uiso   1.00
H323   H     0.52660   0.44240   0.38103   0.00000  Uiso   1.00
H324   H     0.57062   0.62794   0.19496   0.00000  Uiso   1.00
N325   N     0.38093   0.50001   0.25002   0.00000  Uiso   1.00
N326   N     0.61906   0.49998   0.25001   0.00000  Uiso   1.00
O327   O     0.46179   0.56108   0.25001   0.00000  Uiso   1.00
O328   O     0.53823   0.56107   0.25001   0.00000  Uiso   1.00
O329   O     0.44280   0.50000   0.32681   0.00000  Uiso   1.00
O330   O     0.51924   0.49999   0.32681   0.00000  Uiso   1.00
O331   O     0.46177   0.43893   0.25000   0.00000  Uiso   1.00
O332   O     0.53821   0.43892   0.25000   0.00000  Uiso   1.00
O333   O     0.48076   0.50001   0.17319   0.00000  Uiso   1.00
O334   O     0.55720   0.50000   0.17319   0.00000  Uiso   1.00
Zn335  Zn    0.44896   0.50001   0.25000   0.00000  Uiso   1.00
Zn336  Zn    0.55104   0.49999   0.25000   0.00000  Uiso   1.00
C337   C     0.41732   0.62444   0.33034   0.00000  Uiso   1.00
H338   H     0.42014   0.59212   0.34096   0.00000  Uiso   1.00
O339   O     0.37982   0.64293   0.35343   0.00000  Uiso   1.00
C340   C     0.59764   0.55070   0.32853   0.00000  Uiso   1.00
H341   H     0.56556   0.56202   0.32320   0.00000  Uiso   1.00
O342   O     0.60515   0.56141   0.36976   0.00000  Uiso   1.00
C343   C     0.37260   0.52714   0.42410   0.00000  Uiso   1.00
H344   H     0.36597   0.50237   0.39890   0.00000  Uiso   1.00
O345   O     0.34292   0.55499   0.44007   0.00000  Uiso   1.00
C346   C     0.46694   0.58930   0.03007   0.00000  Uiso   1.00
C347   C     0.51547   0.60958   0.49810   0.00000  Uiso   1.00
C348   C     0.52331   0.65036   0.02499   0.00000  Uiso   1.00
H349   H     0.49481   0.33995   0.02681   0.00000  Uiso   1.00
H350   H     0.52294   0.64430   0.06671   0.00000  Uiso   1.00
H351   H     0.55867   0.66412   0.00105   0.00000  Uiso   1.00
H352   H     0.54536   0.58798   0.49549   0.00000  Uiso   1.00
H353   H     0.51672   0.61636   0.45619   0.00000  Uiso   1.00
H354   H     0.43864   0.61304   0.03403   0.00000  Uiso   1.00
H355   H     0.46462   0.58350   0.07223   0.00000  Uiso   1.00
C356   C     0.83283   0.57991   0.25224   0.00000  Uiso   1.00
C357   C     0.82354   0.51610   0.48316   0.00000  Uiso   1.00
C358   C     0.82397   0.49282   0.43699   0.00000  Uiso   1.00
C359   C     0.85663   0.50457   0.00840   0.00000  Uiso   1.00
C360   C     0.89657   0.47889   0.48097   0.00000  Uiso   1.00
C361   C     0.89833   0.45850   0.43328   0.00000  Uiso   1.00
C362   C     0.86022   0.46252   0.41444   0.00000  Uiso   1.00
C363   C     0.84615   0.51162   0.06339   0.00000  Uiso   1.00
C364   C     0.92156   0.48068   0.05939   0.00000  Uiso   1.00
C365   C     0.79005   0.50194   0.41194   0.00000  Uiso   1.00
C366   C     0.87294   0.64494   0.22104   0.00000  Uiso   1.00
C367   C     0.80651   0.49881   0.35242   0.00000  Uiso   1.00
C368   C     0.87319   0.35444   0.21936   0.00000  Uiso   1.00
C369   C     0.83256   0.37601   0.25114   0.00000  Uiso   1.00
C370   C     0.79208   0.35574   0.28588   0.00000  Uiso   1.00
C371   C     0.79181   0.64587   0.28938   0.00000  Uiso   1.00
C372   C     0.83238   0.62416   0.25514   0.00000  Uiso   1.00
C373   C     0.98693   0.47642   0.21319   0.00000  Uiso   1.00
C374   C     0.70145   0.47644   0.21322   0.00000  Uiso   1.00
C375   C     0.68022   0.52326   0.28695   0.00000  Uiso   1.00
C376   C     0.96555   0.52367   0.28738   0.00000  Uiso   1.00
C377   C     0.83320   0.42007   0.24984   0.00000  Uiso   1.00
C378   C     0.86010   0.50020   0.14792   0.00000  Uiso   1.00
C379   C     0.93076   0.46984   0.00521   0.00000  Uiso   1.00
C380   C     0.87747   0.49898   0.08920   0.00000  Uiso   1.00
C381   C     0.74926   0.52616   0.44031   0.00000  Uiso   1.00
C382   C     0.75113   0.55149   0.48337   0.00000  Uiso   1.00
C383   C     0.79070   0.55025   0.00099   0.00000  Uiso   1.00
H384   H     0.94639   0.47098   0.07910   0.00000  Uiso   1.00
H385   H     0.90448   0.37071   0.19267   0.00000  Uiso   1.00
H386   H     0.76177   0.37383   0.31144   0.00000  Uiso   1.00
H387   H     0.97761   0.45758   0.18368   0.00000  Uiso   1.00
H388   H     0.72823   0.45754   0.18369   0.00000  Uiso   1.00
H389   H     0.69068   0.54205   0.31569   0.00000  Uiso   1.00
H390   H     0.92688   0.43665   0.41331   0.00000  Uiso   1.00
H391   H     0.96243   0.45163   0.48382   0.00000  Uiso   1.00
H392   H     0.81067   0.52191   0.08771   0.00000  Uiso   1.00
H393   H     0.72307   0.57430   0.00098   0.00000  Uiso   1.00
H394   H     0.85993   0.44240   0.38103   0.00000  Uiso   1.00
H395   H     0.90395   0.62794   0.19496   0.00000  Uiso   1.00
N396   N     0.71426   0.50001   0.25002   0.00000  Uiso   1.00
N397   N     0.95239   0.49998   0.25001   0.00000  Uiso   1.00
O398   O     0.79512   0.56108   0.25001   0.00000  Uiso   1.00
O399   O     0.87157   0.56107   0.25001   0.00000  Uiso   1.00
O400   O     0.77613   0.50000   0.32681   0.00000  Uiso   1.00
O401   O     0.85258   0.49999   0.32681   0.00000  Uiso   1.00
O402   O     0.79510   0.43893   0.25000   0.00000  Uiso   1.00
O403   O     0.87154   0.43892   0.25000   0.00000  Uiso   1.00
O404   O     0.81409   0.50001   0.17319   0.00000  Uiso   1.00
O405   O     0.89053   0.50000   0.17319   0.00000  Uiso   1.00
Zn406  Zn    0.78229   0.50001   0.25000   0.00000  Uiso   1.00
Zn407  Zn    0.88438   0.49999   0.25000   0.00000  Uiso   1.00
C408   C     0.75065   0.62444   0.33034   0.00000  Uiso   1.00
H409   H     0.75347   0.59212   0.34096   0.00000  Uiso   1.00
O410   O     0.71315   0.64293   0.35343   0.00000  Uiso   1.00
C411   C     0.93098   0.55070   0.32853   0.00000  Uiso   1.00
H412   H     0.89890   0.56202   0.32320   0.00000  Uiso   1.00
O413   O     0.93848   0.56141   0.36976   0.00000  Uiso   1.00
C414   C     0.70594   0.52714   0.42410   0.00000  Uiso   1.00
H415   H     0.69930   0.50237   0.39890   0.00000  Uiso   1.00
O416   O     0.67625   0.55499   0.44007   0.00000  Uiso   1.00
C417   C     0.80027   0.58930   0.03007   0.00000  Uiso   1.00
C418   C     0.84881   0.60958   0.49810   0.00000  Uiso   1.00
C419   C     0.85664   0.65036   0.02499   0.00000  Uiso   1.00
H420   H     0.82814   0.33995   0.02681   0.00000  Uiso   1.00
H421   H     0.85628   0.64430   0.06671   0.00000  Uiso   1.00
H422   H     0.89201   0.66412   0.00105   0.00000  Uiso   1.00
H423   H     0.87869   0.58798   0.49549   0.00000  Uiso   1.00
H424   H     0.85005   0.61636   0.45619   0.00000  Uiso   1.00
H425   H     0.77197   0.61304   0.03403   0.00000  Uiso   1.00
H426   H     0.79796   0.58350   0.07223   0.00000  Uiso   1.00
C427   C     0.16617   0.91325   0.25224   0.00000  Uiso   1.00
C428   C     0.15688   0.84943   0.48316   0.00000  Uiso   1.00
C429   C     0.15730   0.82616   0.43699   0.00000  Uiso   1.00
C430   C     0.18996   0.83791   0.00840   0.00000  Uiso   1.00
C431   C     0.22990   0.81222   0.48097   0.00000  Uiso   1.00
C432   C     0.23167   0.79183   0.43328   0.00000  Uiso   1.00
C433   C     0.19356   0.79585   0.41444   0.00000  Uiso   1.00
C434   C     0.17949   0.84496   0.06339   0.00000  Uiso   1.00
C435   C     0.25490   0.81401   0.05939   0.00000  Uiso   1.00
C436   C     0.12338   0.83527   0.41194   0.00000  Uiso   1.00
C437   C     0.20628   0.97827   0.22104   0.00000  Uiso   1.00
C438   C     0.13984   0.83214   0.35242   0.00000  Uiso   1.00
C439   C     0.20652   0.68777   0.21936   0.00000  Uiso   1.00
C440   C     0.16590   0.70934   0.25114   0.00000  Uiso   1.00
C441   C     0.12541   0.68907   0.28588   0.00000  Uiso   1.00
C442   C     0.12514   0.97920   0.28938   0.00000  Uiso   1.00
C443   C     0.16571   0.95750   0.25514   0.00000  Uiso   1.00
C444   C     0.32026   0.80976   0.21319   0.00000  Uiso   1.00
C445   C     0.03478   0.80977   0.21322   0.00000  Uiso   1.00
C446   C     0.01355   0.85660   0.28695   0.00000  Uiso   1.00
C447   C     0.29888   0.85700   0.28738   0.00000  Uiso   1.00
C448   C     0.16653   0.75341   0.24984   0.00000  Uiso   1.00
C449   C     0.19344   0.83353   0.14792   0.00000  Uiso   1.00
C450   C     0.26409   0.80318   0.00521   0.00000  Uiso   1.00
C451   C     0.21080   0.83232   0.08920   0.00000  Uiso   1.00
C452   C     0.08260   0.85949   0.44031   0.00000  Uiso   1.00
C453   C     0.08446   0.88482   0.48337   0.00000  Uiso   1.00
C454   C     0.12403   0.88359   0.00099   0.00000  Uiso   1.00
H455   H     0.27972   0.80432   0.07910   0.00000  Uiso   1.00
H456   H     0.23782   0.70404   0.19267   0.00000  Uiso   1.00
H457   H     0.09510   0.70716   0.31144   0.00000  Uiso   1.00
H458   H     0.31095   0.79091   0.18368   0.00000  Uiso   1.00
H459   H     0.06156   0.79087   0.18369   0.00000  Uiso   1.00
H460   H     0.02402   0.87539   0.31569   0.00000  Uiso   1.00
H461   H     0.26022   0.76998   0.41331   0.00000  Uiso   1.00
H462   H     0.29576   0.78497   0.48382   0.00000  Uiso   1.00
H463   H     0.14400   0.85524   0.08771   0.00000  Uiso   1.00
H464   H     0.05640   0.90763   0.00098   0.00000  Uiso   1.00
H465   H     0.19327   0.77574   0.38103   0.00000  Uiso   1.00
H466   H     0.23728   0.96128   0.19496   0.00000  Uiso   1.00
N467   N     0.04760   0.83334   0.25002   0.00000  Uiso   1.00
N468   N     0.28573   0.83331   0.25001   0.00000  Uiso   1.00
O469   O     0.12846   0.89442   0.25001   0.00000  Uiso   1.00
O470   O     0.20490   0.89441   0.25001   0.00000  Uiso   1.00
O471   O     0.10947   0.83333   0.32681   0.00000  Uiso   1.00
O472   O     0.18591   0.83332   0.32681   0.00000  Uiso   1.00
O473   O     0.12843   0.77226   0.25000   0.00000  Uiso   1.00
O474   O     0.20488   0.77225   0.25000   0.00000  Uiso   1.00
O475   O     0.14742   0.83335   0.17319   0.00000  Uiso   1.00
O476   O     0.22387   0.83334   0.17319   0.00000  Uiso   1.00
Zn477  Zn    0.11562   0.83334   0.25000   0.00000  Uiso   1.00
Zn478  Zn    0.21771   0.83333   0.25000   0.00000  Uiso   1.00
C479   C     0.08399   0.95778   0.33034   0.00000  Uiso   1.00
H480   H     0.08680   0.92545   0.34096   0.00000  Uiso   1.00
O481   O     0.04649   0.97626   0.35343   0.00000  Uiso   1.00
C482   C     0.26431   0.88403   0.32853   0.00000  Uiso   1.00
H483   H     0.23223   0.89535   0.32320   0.00000  Uiso   1.00
O484   O     0.27182   0.89475   0.36976   0.00000  Uiso   1.00
C485   C     0.03927   0.86048   0.42410   0.00000  Uiso   1.00
H486   H     0.03263   0.83571   0.39890   0.00000  Uiso   1.00
O487   O     0.00958   0.88832   0.44007   0.00000  Uiso   1.00
C488   C     0.13360   0.92264   0.03007   0.00000  Uiso   1.00
C489   C     0.18214   0.94291   0.49810   0.00000  Uiso   1.00
C490   C     0.18997   0.98369   0.02499   0.00000  Uiso   1.00
H491   H     0.16147   0.67328   0.02681   0.00000  Uiso   1.00
H492   H     0.18961   0.97764   0.06671   0.00000  Uiso   1.00
H493   H     0.22534   0.99745   0.00105   0.00000  Uiso   1.00
H494   H     0.21203   0.92132   0.49549   0.00000  Uiso   1.00
H495   H     0.18339   0.94969   0.45619   0.00000  Uiso   1.00
H496   H     0.10530   0.94637   0.03403   0.00000  Uiso   1.00
H497   H     0.13129   0.91684   0.07223   0.00000  Uiso   1.00
C498   C     0.49950   0.91325   0.25224   0.00000  Uiso   1.00
C499   C     0.49021   0.84943   0.48316   0.00000  Uiso   1.00
C500   C     0.49063   0.82616   0.43699   0.00000  Uiso   1.00
C501   C     0.52329   0.83791   0.00840   0.00000  Uiso   1.00
C502   C     0.56324   0.81222   0.48097   0.00000  Uiso   1.00
C503   C     0.56500   0.79183   0.43328   0.00000  Uiso   1.00
C504   C     0.52689   0.79585   0.41444   0.00000  Uiso   1.00
C505   C     0.51282   0.84496   0.06339   0.00000  Uiso   1.00
C506   C     0.58823   0.81401   0.05939   0.00000  Uiso   1.00
C507   C     0.45672   0.83527   0.41194   0.00000  Uiso   1.00
C508   C     0.53961   0.97827   0.22104   0.00000  Uiso   1.00
C509   C     0.47317   0.83214   0.35242   0.00000  Uiso   1.00
C510   C     0.53985   0.68777   0.21936   0.00000  Uiso   1.00
C511   C     0.49923   0.70934   0.25114   0.00000  Uiso   1.00
C512   C     0.45874   0.68907   0.28588   0.00000  Uiso   1.00
C513   C     0.45847   0.97920   0.28938   0.00000  Uiso   1.00
C514   C     0.49904   0.95750   0.25514   0.00000  Uiso   1.00
C515   C     0.65360   0.80976   0.21319   0.00000  Uiso   1.00
C516   C     0.36812   0.80977   0.21322   0.00000  Uiso   1.00
C517   C     0.34688   0.85660   0.28695   0.00000  Uiso   1.00
C518   C     0.63221   0.85700   0.28738   0.00000  Uiso   1.00
C519   C     0.49987   0.75341   0.24984   0.00000  Uiso   1.00
C520   C     0.52677   0.83353   0.14792   0.00000  Uiso   1.00
C521   C     0.59743   0.80318   0.00521   0.00000  Uiso   1.00
C522   C     0.54414   0.83232   0.08920   0.00000  Uiso   1.00
C523   C     0.41593   0.85949   0.44031   0.00000  Uiso   1.00
C524   C     0.41780   0.88482   0.48337   0.00000  Uiso   1.00
C525   C     0.45736   0.88359   0.00099   0.00000  Uiso   1.00
H526   H     0.61305   0.80432   0.07910   0.00000  Uiso   1.00
H527   H     0.57115   0.70404   0.19267   0.00000  Uiso   1.00
H528   H     0.42844   0.70716   0.31144   0.00000  Uiso   1.00
H529   H     0.64428   0.79091   0.18368   0.00000  Uiso   1.00
H530   H     0.39489   0.79087   0.18369   0.00000  Uiso   1.00
H531   H     0.35735   0.87539   0.31569   0.00000  Uiso   1.00
H532   H     0.59355   0.76998   0.41331   0.00000  Uiso   1.00
H533   H     0.62910   0.78497   0.48382   0.00000  Uiso   1.00
H534   H     0.47734   0.85524   0.08771   0.00000  Uiso   1.00
H535   H     0.38973   0.90763   0.00098   0.00000  Uiso   1.00
H536   H     0.52660   0.77574   0.38103   0.00000  Uiso   1.00
H537   H     0.57062   0.96128   0.19496   0.00000  Uiso   1.00
N538   N     0.38093   0.83334   0.25002   0.00000  Uiso   1.00
N539   N     0.61906   0.83331   0.25001   0.00000  Uiso   1.00
O540   O     0.46179   0.89442   0.25001   0.00000  Uiso   1.00
O541   O     0.53823   0.89441   0.25001   0.00000  Uiso   1.00
O542   O     0.44280   0.83333   0.32681   0.00000  Uiso   1.00
O543   O     0.51924   0.83332   0.32681   0.00000  Uiso   1.00
O544   O     0.46177   0.77226   0.25000   0.00000  Uiso   1.00
O545   O     0.53821   0.77225   0.25000   0.00000  Uiso   1.00
O546   O     0.48076   0.83335   0.17319   0.00000  Uiso   1.00
O547   O     0.55720   0.83334   0.17319   0.00000  Uiso   1.00
Zn548  Zn    0.44896   0.83334   0.25000   0.00000  Uiso   1.00
Zn549  Zn    0.55104   0.83333   0.25000   0.00000  Uiso   1.00
C550   C     0.41732   0.95778   0.33034   0.00000  Uiso   1.00
H551   H     0.42014   0.92545   0.34096   0.00000  Uiso   1.00
O552   O     0.37982   0.97626   0.35343   0.00000  Uiso   1.00
C553   C     0.59764   0.88403   0.32853   0.00000  Uiso   1.00
H554   H     0.56556   0.89535   0.32320   0.00000  Uiso   1.00
O555   O     0.60515   0.89475   0.36976   0.00000  Uiso   1.00
C556   C     0.37260   0.86048   0.42410   0.00000  Uiso   1.00
H557   H     0.36597   0.83571   0.39890   0.00000  Uiso   1.00
O558   O     0.34292   0.88832   0.44007   0.00000  Uiso   1.00
C559   C     0.46694   0.92264   0.03007   0.00000  Uiso   1.00
C560   C     0.51547   0.94291   0.49810   0.00000  Uiso   1.00
C561   C     0.52331   0.98369   0.02499   0.00000  Uiso   1.00
H562   H     0.49481   0.67328   0.02681   0.00000  Uiso   1.00
H563   H     0.52294   0.97764   0.06671   0.00000  Uiso   1.00
H564   H     0.55867   0.99745   0.00105   0.00000  Uiso   1.00
H565   H     0.54536   0.92132   0.49549   0.00000  Uiso   1.00
H566   H     0.51672   0.94969   0.45619   0.00000  Uiso   1.00
H567   H     0.43864   0.94637   0.03403   0.00000  Uiso   1.00
H568   H     0.46462   0.91684   0.07223   0.00000  Uiso   1.00
C569   C     0.83283   0.91325   0.25224   0.00000  Uiso   1.00
C570   C     0.82354   0.84943   0.48316   0.00000  Uiso   1.00
C571   C     0.82397   0.82616   0.43699   0.00000  Uiso   1.00
C572   C     0.85663   0.83791   0.00840   0.00000  Uiso   1.00
C573   C     0.89657   0.81222   0.48097   0.00000  Uiso   1.00
C574   C     0.89833   0.79183   0.43328   0.00000  Uiso   1.00
C575   C     0.86022   0.79585   0.41444   0.00000  Uiso   1.00
C576   C     0.84615   0.84496   0.06339   0.00000  Uiso   1.00
C577   C     0.92156   0.81401   0.05939   0.00000  Uiso   1.00
C578   C     0.79005   0.83527   0.41194   0.00000  Uiso   1.00
C579   C     0.87294   0.97827   0.22104   0.00000  Uiso   1.00
C580   C     0.80651   0.83214   0.35242   0.00000  Uiso   1.00
C581   C     0.87319   0.68777   0.21936   0.00000  Uiso   1.00
C582   C     0.83256   0.70934   0.25114   0.00000  Uiso   1.00
C583   C     0.79208   0.68907   0.28588   0.00000  Uiso   1.00
C584   C     0.79181   0.97920   0.28938   0.00000  Uiso   1.00
C585   C     0.83238   0.95750   0.25514   0.00000  Uiso   1.00
C586   C     0.98693   0.80976   0.21319   0.00000  Uiso   1.00
C587   C     0.70145   0.80977   0.21322   0.00000  Uiso   1.00
C588   C     0.68022   0.85660   0.28695   0.00000  Uiso   1.00
C589   C     0.96555   0.85700   0.28738   0.00000  Uiso   1.00
C590   C     0.83320   0.75341   0.24984   0.00000  Uiso   1.00
C591   C     0.86010   0.83353   0.14792   0.00000  Uiso   1.00
C592   C     0.93076   0.80318   0.00521   0.00000  Uiso   1.00
C593   C     0.87747   0.83232   0.08920   0.00000  Uiso   1.00
C594   C     0.74926   0.85949   0.44031   0.00000  Uiso   1.00
C595   C     0.75113   0.88482   0.48337   0.00000  Uiso   1.00
C596   C     0.79070   0.88359   0.00099   0.00000  Uiso   1.00
H597   H     0.94639   0.80432   0.07910   0.00000  Uiso   1.00
H598   H     0.90448   0.70404   0.19267   0.00000  Uiso   1.00
H599   H     0.76177   0.70716   0.31144   0.00000  Uiso   1.00
H600   H     0.97761   0.79091   0.18368   0.00000  Uiso   1.00
H601   H     0.72823   0.79087   0.18369   0.00000  Uiso   1.00
H602   H     0.69068   0.87539   0.31569   0.00000  Uiso   1.00
H603   H     0.92688   0.76998   0.41331   0.00000  Uiso   1.00
H604   H     0.96243   0.78497   0.48382   0.00000  Uiso   1.00
H605   H     0.81067   0.85524   0.08771   0.00000  Uiso   1.00
H606   H     0.72307   0.90763   0.00098   0.00000  Uiso   1.00
H607   H     0.85993   0.77574   0.38103   0.00000  Uiso   1.00
H608   H     0.90395   0.96128   0.19496   0.00000  Uiso   1.00
N609   N     0.71426   0.83334   0.25002   0.00000  Uiso   1.00
N610   N     0.95239   0.83331   0.25001   0.00000  Uiso   1.00
O611   O     0.79512   0.89442   0.25001   0.00000  Uiso   1.00
O612   O     0.87157   0.89441   0.25001   0.00000  Uiso   1.00
O613   O     0.77613   0.83333   0.32681   0.00000  Uiso   1.00
O614   O     0.85258   0.83332   0.32681   0.00000  Uiso   1.00
O615   O     0.79510   0.77226   0.25000   0.00000  Uiso   1.00
O616   O     0.87154   0.77225   0.25000   0.00000  Uiso   1.00
O617   O     0.81409   0.83335   0.17319   0.00000  Uiso   1.00
O618   O     0.89053   0.83334   0.17319   0.00000  Uiso   1.00
Zn619  Zn    0.78229   0.83334   0.25000   0.00000  Uiso   1.00
Zn620  Zn    0.88438   0.83333   0.25000   0.00000  Uiso   1.00
C621   C     0.75065   0.95778   0.33034   0.00000  Uiso   1.00
H622   H     0.75347   0.92545   0.34096   0.00000  Uiso   1.00
O623   O     0.71315   0.97626   0.35343   0.00000  Uiso   1.00
C624   C     0.93098   0.88403   0.32853   0.00000  Uiso   1.00
H625   H     0.89890   0.89535   0.32320   0.00000  Uiso   1.00
O626   O     0.93848   0.89475   0.36976   0.00000  Uiso   1.00
C627   C     0.70594   0.86048   0.42410   0.00000  Uiso   1.00
H628   H     0.69930   0.83571   0.39890   0.00000  Uiso   1.00
O629   O     0.67625   0.88832   0.44007   0.00000  Uiso   1.00
C630   C     0.80027   0.92264   0.03007   0.00000  Uiso   1.00
C631   C     0.84881   0.94291   0.49810   0.00000  Uiso   1.00
C632   C     0.85664   0.98369   0.02499   0.00000  Uiso   1.00
H633   H     0.82814   0.67328   0.02681   0.00000  Uiso   1.00
H634   H     0.85628   0.97764   0.06671   0.00000  Uiso   1.00
H635   H     0.89201   0.99745   0.00105   0.00000  Uiso   1.00
H636   H     0.87869   0.92132   0.49549   0.00000  Uiso   1.00
H637   H     0.85005   0.94969   0.45619   0.00000  Uiso   1.00
H638   H     0.77197   0.94637   0.03403   0.00000  Uiso   1.00
H639   H     0.79796   0.91684   0.07223   0.00000  Uiso   1.00
C640   C     0.16617   0.24658   0.75224   0.00000  Uiso   1.00
C641   C     0.15688   0.18276   0.98316   0.00000  Uiso   1.00
C642   C     0.15730   0.15949   0.93699   0.00000  Uiso   1.00
C643   C     0.18996   0.17124   0.50840   0.00000  Uiso   1.00
C644   C     0.22990   0.14556   0.98097   0.00000  Uiso   1.00
C645   C     0.23167   0.12516   0.93328   0.00000  Uiso   1.00
C646   C     0.19356   0.12919   0.91444   0.00000  Uiso   1.00
C647   C     0.17949   0.17829   0.56339   0.00000  Uiso   1.00
C648   C     0.25490   0.14734   0.55939   0.00000  Uiso   1.00
C649   C     0.12338   0.16861   0.91194   0.00000  Uiso   1.00
C650   C     0.20628   0.31160   0.72104   0.00000  Uiso   1.00
C651   C     0.13984   0.16548   0.85242   0.00000  Uiso   1.00
C652   C     0.20652   0.02110   0.71936   0.00000  Uiso   1.00
C653   C     0.16590   0.04267   0.75114   0.00000  Uiso   1.00
C654   C     0.12541   0.02241   0.78588   0.00000  Uiso   1.00
C655   C     0.12514   0.31254   0.78938   0.00000  Uiso   1.00
C656   C     0.16571   0.29083   0.75514   0.00000  Uiso   1.00
C657   C     0.32026   0.14309   0.71319   0.00000  Uiso   1.00
C658   C     0.03478   0.14311   0.71322   0.00000  Uiso   1.00
C659   C     0.01355   0.18993   0.78695   0.00000  Uiso   1.00
C660   C     0.29888   0.19034   0.78738   0.00000  Uiso   1.00
C661   C     0.16653   0.08674   0.74984   0.00000  Uiso   1.00
C662   C     0.19344   0.16686   0.64792   0.00000  Uiso   1.00
C663   C     0.26409   0.13651   0.50521   0.00000  Uiso   1.00
C664   C     0.21080   0.16565   0.58920   0.00000  Uiso   1.00
C665   C     0.08260   0.19282   0.94031   0.00000  Uiso   1.00
C666   C     0.08446   0.21816   0.98337   0.00000  Uiso   1.00
C667   C     0.12403   0.21692   0.50099   0.00000  Uiso   1.00
H668   H     0.27972   0.13765   0.57910   0.00000  Uiso   1.00
H669   H     0.23782   0.03737   0.69267   0.00000  Uiso   1.00
H670   H     0.09510   0.04050   0.81144   0.00000  Uiso   1.00
H671   H     0.31095   0.12424   0.68368   0.00000  Uiso   1.00
H672   H     0.06156   0.12421   0.68369   0.00000  Uiso   1.00
H673   H     0.02402   0.20872   0.81569   0.00000  Uiso   1.00
H674   H     0.26022   0.10331   0.91331   0.00000  Uiso   1.00
H675   H     0.29576   0.11830   0.98382   0.00000  Uiso   1.00
H676   H     0.14400   0.18857   0.58771   0.00000  Uiso   1.00
H677   H     0.05640   0.24096   0.50098   0.00000  Uiso   1.00
H678   H     0.19327   0.10907   0.88103   0.00000  Uiso   1.00
H679   H     0.23728   0.29461   0.69496   0.00000  Uiso   1.00
N680   N     0.04760   0.16668   0.75002   0.00000  Uiso   1.00
N681   N     0.28573   0.16665   0.75001   0.00000  Uiso   1.00
O682   O     0.12846   0.22775   0.75001   0.00000  Uiso   1.00
O683   O     0.20490   0.22774   0.75001   0.00000  Uiso   1.00
O684   O     0.10947   0.16666   0.82681   0.00000  Uiso   1.00
O685   O     0.18591   0.16665   0.82681   0.00000  Uiso   1.00
O686   O     0.12843   0.10559   0.75000   0.00000  Uiso   1.00
O687   O     0.20488   0.10558   0.75000   0.00000  Uiso   1.00
O688   O     0.14742   0.16668   0.67319   0.00000  Uiso   1.00
O689   O     0.22387   0.16667   0.67319   0.00000  Uiso   1.00
Zn690  Zn    0.11562   0.16667   0.75000   0.00000  Uiso   1.00
Zn691  Zn    0.21771   0.16666   0.75000   0.00000  Uiso   1.00
C692   C     0.08399   0.29111   0.83034   0.00000  Uiso   1.00
H693   H     0.08680   0.25878   0.84096   0.00000  Uiso   1.00
O694   O     0.04649   0.30959   0.85343   0.00000  Uiso   1.00
C695   C     0.26431   0.21737   0.82853   0.00000  Uiso   1.00
H696   H     0.23223   0.22868   0.82320   0.00000  Uiso   1.00
O697   O     0.27182   0.22808   0.86976   0.00000  Uiso   1.00
C698   C     0.03927   0.19381   0.92410   0.00000  Uiso   1.00
H699   H     0.03263   0.16904   0.89890   0.00000  Uiso   1.00
O700   O     0.00958   0.22165   0.94007   0.00000  Uiso   1.00
C701   C     0.13360   0.25597   0.53007   0.00000  Uiso   1.00
C702   C     0.18214   0.27624   0.99810   0.00000  Uiso   1.00
C703   C     0.18997   0.31702   0.52499   0.00000  Uiso   1.00
H704   H     0.16147   0.00662   0.52681   0.00000  Uiso   1.00
H705   H     0.18961   0.31097   0.56671   0.00000  Uiso   1.00
H706   H     0.22534   0.33078   0.50105   0.00000  Uiso   1.00
H707   H     0.21203   0.25465   0.99549   0.00000  Uiso   1.00
H708   H     0.18339   0.28302   0.95619   0.00000  Uiso   1.00
H709   H     0.10530   0.27971   0.53403   0.00000  Uiso   1.00
H710   H     0.13129   0.25017   0.57223   0.00000  Uiso   1.00
C711   C     0.49950   0.24658   0.75224   0.00000  Uiso   1.00
C712   C     0.49021   0.18276   0.98316   0.00000  Uiso   1.00
C713   C     0.49063   0.15949   0.93699   0.00000  Uiso   1.00
C714   C     0.52329   0.17124   0.50840   0.00000  Uiso   1.00
C715   C     0.56324   0.14556   0.98097   0.00000  Uiso   1.00
C716   C     0.56500   0.12516   0.93328   0.00000  Uiso   1.00
C717   C     0.52689   0.12919   0.91444   0.00000  Uiso   1.00
C718   C     0.51282   0.17829   0.56339   0.00000  Uiso   1.00
C719   C     0.58823   0.14734   0.55939   0.00000  Uiso   1.00
C720   C     0.45672   0.16861   0.91194   0.00000  Uiso   1.00
C721   C     0.53961   0.31160   0.72104   0.00000  Uiso   1.00
C722   C     0.47317   0.16548   0.85242   0.00000  Uiso   1.00
C723   C     0.53985   0.02110   0.71936   0.00000  Uiso   1.00
C724   C     0.49923   0.04267   0.75114   0.00000  Uiso   1.00
C725   C     0.45874   0.02241   0.78588   0.00000  Uiso   1.00
C726   C     0.45847   0.31254   0.78938   0.00000  Uiso   1.00
C727   C     0.49904   0.29083   0.75514   0.00000  Uiso   1.00
C728   C     0.65360   0.14309   0.71319   0.00000  Uiso   1.00
C729   C     0.36812   0.14311   0.71322   0.00000  Uiso   1.00
C730   C     0.34688   0.18993   0.78695   0.00000  Uiso   1.00
C731   C     0.63221   0.19034   0.78738   0.00000  Uiso   1.00
C732   C     0.49987   0.08674   0.74984   0.00000  Uiso   1.00
C733   C     0.52677   0.16686   0.64792   0.00000  Uiso   1.00
C734   C     0.59743   0.13651   0.50521   0.00000  Uiso   1.00
C735   C     0.54414   0.16565   0.58920   0.00000  Uiso   1.00
C736   C     0.41593   0.19282   0.94031   0.00000  Uiso   1.00
C737   C     0.41780   0.21816   0.98337   0.00000  Uiso   1.00
C738   C     0.45736   0.21692   0.50099   0.00000  Uiso   1.00
H739   H     0.61305   0.13765   0.57910   0.00000  Uiso   1.00
H740   H     0.57115   0.03737   0.69267   0.00000  Uiso   1.00
H741   H     0.42844   0.04050   0.81144   0.00000  Uiso   1.00
H742   H     0.64428   0.12424   0.68368   0.00000  Uiso   1.00
H743   H     0.39489   0.12421   0.68369   0.00000  Uiso   1.00
H744   H     0.35735   0.20872   0.81569   0.00000  Uiso   1.00
H745   H     0.59355   0.10331   0.91331   0.00000  Uiso   1.00
H746   H     0.62910   0.11830   0.98382   0.00000  Uiso   1.00
H747   H     0.47734   0.18857   0.58771   0.00000  Uiso   1.00
H748   H     0.38973   0.24096   0.50098   0.00000  Uiso   1.00
H749   H     0.52660   0.10907   0.88103   0.00000  Uiso   1.00
H750   H     0.57062   0.29461   0.69496   0.00000  Uiso   1.00
N751   N     0.38093   0.16668   0.75002   0.00000  Uiso   1.00
N752   N     0.61906   0.16665   0.75001   0.00000  Uiso   1.00
O753   O     0.46179   0.22775   0.75001   0.00000  Uiso   1.00
O754   O     0.53823   0.22774   0.75001   0.00000  Uiso   1.00
O755   O     0.44280   0.16666   0.82681   0.00000  Uiso   1.00
O756   O     0.51924   0.16665   0.82681   0.00000  Uiso   1.00
O757   O     0.46177   0.10559   0.75000   0.00000  Uiso   1.00
O758   O     0.53821   0.10558   0.75000   0.00000  Uiso   1.00
O759   O     0.48076   0.16668   0.67319   0.00000  Uiso   1.00
O760   O     0.55720   0.16667   0.67319   0.00000  Uiso   1.00
Zn761  Zn    0.44896   0.16667   0.75000   0.00000  Uiso   1.00
Zn762  Zn    0.55104   0.16666   0.75000   0.00000  Uiso   1.00
C763   C     0.41732   0.29111   0.83034   0.00000  Uiso   1.00
H764   H     0.42014   0.25878   0.84096   0.00000  Uiso   1.00
O765   O     0.37982   0.30959   0.85343   0.00000  Uiso   1.00
C766   C     0.59764   0.21737   0.82853   0.00000  Uiso   1.00
H767   H     0.56556   0.22868   0.82320   0.00000  Uiso   1.00
O768   O     0.60515   0.22808   0.86976   0.00000  Uiso   1.00
C769   C     0.37260   0.19381   0.92410   0.00000  Uiso   1.00
H770   H     0.36597   0.16904   0.89890   0.00000  Uiso   1.00
O771   O     0.34292   0.22165   0.94007   0.00000  Uiso   1.00
C772   C     0.46694   0.25597   0.53007   0.00000  Uiso   1.00
C773   C     0.51547   0.27624   0.99810   0.00000  Uiso   1.00
C774   C     0.52331   0.31702   0.52499   0.00000  Uiso   1.00
H775   H     0.49481   0.00662   0.52681   0.00000  Uiso   1.00
H776   H     0.52294   0.31097   0.56671   0.00000  Uiso   1.00
H777   H     0.55867   0.33078   0.50105   0.00000  Uiso   1.00
H778   H     0.54536   0.25465   0.99549   0.00000  Uiso   1.00
H779   H     0.51672   0.28302   0.95619   0.00000  Uiso   1.00
H780   H     0.43864   0.27971   0.53403   0.00000  Uiso   1.00
H781   H     0.46462   0.25017   0.57223   0.00000  Uiso   1.00
C782   C     0.83283   0.24658   0.75224   0.00000  Uiso   1.00
C783   C     0.82354   0.18276   0.98316   0.00000  Uiso   1.00
C784   C     0.82397   0.15949   0.93699   0.00000  Uiso   1.00
C785   C     0.85663   0.17124   0.50840   0.00000  Uiso   1.00
C786   C     0.89657   0.14556   0.98097   0.00000  Uiso   1.00
C787   C     0.89833   0.12516   0.93328   0.00000  Uiso   1.00
C788   C     0.86022   0.12919   0.91444   0.00000  Uiso   1.00
C789   C     0.84615   0.17829   0.56339   0.00000  Uiso   1.00
C790   C     0.92156   0.14734   0.55939   0.00000  Uiso   1.00
C791   C     0.79005   0.16861   0.91194   0.00000  Uiso   1.00
C792   C     0.87294   0.31160   0.72104   0.00000  Uiso   1.00
C793   C     0.80651   0.16548   0.85242   0.00000  Uiso   1.00
C794   C     0.87319   0.02110   0.71936   0.00000  Uiso   1.00
C795   C     0.83256   0.04267   0.75114   0.00000  Uiso   1.00
C796   C     0.79208   0.02241   0.78588   0.00000  Uiso   1.00
C797   C     0.79181   0.31254   0.78938   0.00000  Uiso   1.00
C798   C     0.83238   0.29083   0.75514   0.00000  Uiso   1.00
C799   C     0.98693   0.14309   0.71319   0.00000  Uiso   1.00
C800   C     0.70145   0.14311   0.71322   0.00000  Uiso   1.00
C801   C     0.68022   0.18993   0.78695   0.00000  Uiso   1.00
C802   C     0.96555   0.19034   0.78738   0.00000  Uiso   1.00
C803   C     0.83320   0.08674   0.74984   0.00000  Uiso   1.00
C804   C     0.86010   0.16686   0.64792   0.00000  Uiso   1.00
C805   C     0.93076   0.13651   0.50521   0.00000  Uiso   1.00
C806   C     0.87747   0.16565   0.58920   0.00000  Uiso   1.00
C807   C     0.74926   0.19282   0.94031   0.00000  Uiso   1.00
C808   C     0.75113   0.21816   0.98337   0.00000  Uiso   1.00
C809   C     0.79070   0.21692   0.50099   0.00000  Uiso   1.00
H810   H     0.94639   0.13765   0.57910   0.00000  Uiso   1.00
H811   H     0.90448   0.03737   0.69267   0.00000  Uiso   1.00
H812   H     0.76177   0.04050   0.81144   0.00000  Uiso   1.00
H813   H     0.97761   0.12424   0.68368   0.00000  Uiso   1.00
H814   H     0.72823   0.12421   0.68369   0.00000  Uiso   1.00
H815   H     0.69068   0.20872   0.81569   0.00000  Uiso   1.00
H816   H     0.92688   0.10331   0.91331   0.00000  Uiso   1.00
H817   H     0.96243   0.11830   0.98382   0.00000  Uiso   1.00
H818   H     0.81067   0.18857   0.58771   0.00000  Uiso   1.00
H819   H     0.72307   0.24096   0.50098   0.00000  Uiso   1.00
H820   H     0.85993   0.10907   0.88103   0.00000  Uiso   1.00
H821   H     0.90395   0.29461   0.69496   0.00000  Uiso   1.00
N822   N     0.71426   0.16668   0.75002   0.00000  Uiso   1.00
N823   N     0.95239   0.16665   0.75001   0.00000  Uiso   1.00
O824   O     0.79512   0.22775   0.75001   0.00000  Uiso   1.00
O825   O     0.87157   0.22774   0.75001   0.00000  Uiso   1.00
O826   O     0.77613   0.16666   0.82681   0.00000  Uiso   1.00
O827   O     0.85258   0.16665   0.82681   0.00000  Uiso   1.00
O828   O     0.79510   0.10559   0.75000   0.00000  Uiso   1.00
O829   O     0.87154   0.10558   0.75000   0.00000  Uiso   1.00
O830   O     0.81409   0.16668   0.67319   0.00000  Uiso   1.00
O831   O     0.89053   0.16667   0.67319   0.00000  Uiso   1.00
Zn832  Zn    0.78229   0.16667   0.75000   0.00000  Uiso   1.00
Zn833  Zn    0.88438   0.16666   0.75000   0.00000  Uiso   1.00
C834   C     0.75065   0.29111   0.83034   0.00000  Uiso   1.00
H835   H     0.75347   0.25878   0.84096   0.00000  Uiso   1.00
O836   O     0.71315   0.30959   0.85343   0.00000  Uiso   1.00
C837   C     0.93098   0.21737   0.82853   0.00000  Uiso   1.00
H838   H     0.89890   0.22868   0.82320   0.00000  Uiso   1.00
O839   O     0.93848   0.22808   0.86976   0.00000  Uiso   1.00
C840   C     0.70594   0.19381   0.92410   0.00000  Uiso   1.00
H841   H     0.69930   0.16904   0.89890   0.00000  Uiso   1.00
O842   O     0.67625   0.22165   0.94007   0.00000  Uiso   1.00
C843   C     0.80027   0.25597   0.53007   0.00000  Uiso   1.00
C844   C     0.84881   0.27624   0.99810   0.00000  Uiso   1.00
C845   C     0.85664   0.31702   0.52499   0.00000  Uiso   1.00
H846   H     0.82814   0.00662   0.52681   0.00000  Uiso   1.00
H847   H     0.85628   0.31097   0.56671   0.00000  Uiso   1.00
H848   H     0.89201   0.33078   0.50105   0.00000  Uiso   1.00
H849   H     0.87869   0.25465   0.99549   0.00000  Uiso   1.00
H850   H     0.85005   0.28302   0.95619   0.00000  Uiso   1.00
H851   H     0.77197   0.27971   0.53403   0.00000  Uiso   1.00
H852   H     0.79796   0.25017   0.57223   0.00000  Uiso   1.00
C853   C     0.16617   0.57991   0.75224   0.00000  Uiso   1.00
C854   C     0.15688   0.51610   0.98316   0.00000  Uiso   1.00
C855   C     0.15730   0.49282   0.93699   0.00000  Uiso   1.00
C856   C     0.18996   0.50457   0.50840   0.00000  Uiso   1.00
C857   C     0.22990   0.47889   0.98097   0.00000  Uiso   1.00
C858   C     0.23167   0.45850   0.93328   0.00000  Uiso   1.00
C859   C     0.19356   0.46252   0.91444   0.00000  Uiso   1.00
C860   C     0.17949   0.51162   0.56339   0.00000  Uiso   1.00
C861   C     0.25490   0.48068   0.55939   0.00000  Uiso   1.00
C862   C     0.12338   0.50194   0.91194   0.00000  Uiso   1.00
C863   C     0.20628   0.64494   0.72104   0.00000  Uiso   1.00
C864   C     0.13984   0.49881   0.85242   0.00000  Uiso   1.00
C865   C     0.20652   0.35444   0.71936   0.00000  Uiso   1.00
C866   C     0.16590   0.37601   0.75114   0.00000  Uiso   1.00
C867   C     0.12541   0.35574   0.78588   0.00000  Uiso   1.00
C868   C     0.12514   0.64587   0.78938   0.00000  Uiso   1.00
C869   C     0.16571   0.62416   0.75514   0.00000  Uiso   1.00
C870   C     0.32026   0.47642   0.71319   0.00000  Uiso   1.00
C871   C     0.03478   0.47644   0.71322   0.00000  Uiso   1.00
C872   C     0.01355   0.52326   0.78695   0.00000  Uiso   1.00
C873   C     0.29888   0.52367   0.78738   0.00000  Uiso   1.00
C874   C     0.16653   0.42007   0.74984   0.00000  Uiso   1.00
C875   C     0.19344   0.50020   0.64792   0.00000  Uiso   1.00
C876   C     0.26409   0.46984   0.50521   0.00000  Uiso   1.00
C877   C     0.21080   0.49898   0.58920   0.00000  Uiso   1.00
C878   C     0.08260   0.52616   0.94031   0.00000  Uiso   1.00
C879   C     0.08446   0.55149   0.98337   0.00000  Uiso   1.00
C880   C     0.12403   0.55025   0.50099   0.00000  Uiso   1.00
H881   H     0.27972   0.47098   0.57910   0.00000  Uiso   1.00
H882   H     0.23782   0.37071   0.69267   0.00000  Uiso   1.00
H883   H     0.09510   0.37383   0.81144   0.00000  Uiso   1.00
H884   H     0.31095   0.45758   0.68368   0.00000  Uiso   1.00
H885   H     0.06156   0.45754   0.68369   0.00000  Uiso   1.00
H886   H     0.02402   0.54205   0.81569   0.00000  Uiso   1.00
H887   H     0.26022   0.43665   0.91331   0.00000  Uiso   1.00
H888   H     0.29576   0.45163   0.98382   0.00000  Uiso   1.00
H889   H     0.14400   0.52191   0.58771   0.00000  Uiso   1.00
H890   H     0.05640   0.57430   0.50098   0.00000  Uiso   1.00
H891   H     0.19327   0.44240   0.88103   0.00000  Uiso   1.00
H892   H     0.23728   0.62794   0.69496   0.00000  Uiso   1.00
N893   N     0.04760   0.50001   0.75002   0.00000  Uiso   1.00
N894   N     0.28573   0.49998   0.75001   0.00000  Uiso   1.00
O895   O     0.12846   0.56108   0.75001   0.00000  Uiso   1.00
O896   O     0.20490   0.56107   0.75001   0.00000  Uiso   1.00
O897   O     0.10947   0.50000   0.82681   0.00000  Uiso   1.00
O898   O     0.18591   0.49999   0.82681   0.00000  Uiso   1.00
O899   O     0.12843   0.43893   0.75000   0.00000  Uiso   1.00
O900   O     0.20488   0.43892   0.75000   0.00000  Uiso   1.00
O901   O     0.14742   0.50001   0.67319   0.00000  Uiso   1.00
O902   O     0.22387   0.50000   0.67319   0.00000  Uiso   1.00
Zn903  Zn    0.11562   0.50001   0.75000   0.00000  Uiso   1.00
Zn904  Zn    0.21771   0.49999   0.75000   0.00000  Uiso   1.00
C905   C     0.08399   0.62444   0.83034   0.00000  Uiso   1.00
H906   H     0.08680   0.59212   0.84096   0.00000  Uiso   1.00
O907   O     0.04649   0.64293   0.85343   0.00000  Uiso   1.00
C908   C     0.26431   0.55070   0.82853   0.00000  Uiso   1.00
H909   H     0.23223   0.56202   0.82320   0.00000  Uiso   1.00
O910   O     0.27182   0.56141   0.86976   0.00000  Uiso   1.00
C911   C     0.03927   0.52714   0.92410   0.00000  Uiso   1.00
H912   H     0.03263   0.50237   0.89890   0.00000  Uiso   1.00
O913   O     0.00958   0.55499   0.94007   0.00000  Uiso   1.00
C914   C     0.13360   0.58930   0.53007   0.00000  Uiso   1.00
C915   C     0.18214   0.60958   0.99810   0.00000  Uiso   1.00
C916   C     0.18997   0.65036   0.52499   0.00000  Uiso   1.00
H917   H     0.16147   0.33995   0.52681   0.00000  Uiso   1.00
H918   H     0.18961   0.64430   0.56671   0.00000  Uiso   1.00
H919   H     0.22534   0.66412   0.50105   0.00000  Uiso   1.00
H920   H     0.21203   0.58798   0.99549   0.00000  Uiso   1.00
H921   H     0.18339   0.61636   0.95619   0.00000  Uiso   1.00
H922   H     0.10530   0.61304   0.53403   0.00000  Uiso   1.00
H923   H     0.13129   0.58350   0.57223   0.00000  Uiso   1.00
C924   C     0.49950   0.57991   0.75224   0.00000  Uiso   1.00
C925   C     0.49021   0.51610   0.98316   0.00000  Uiso   1.00
C926   C     0.49063   0.49282   0.93699   0.00000  Uiso   1.00
C927   C     0.52329   0.50457   0.50840   0.00000  Uiso   1.00
C928   C     0.56324   0.47889   0.98097   0.00000  Uiso   1.00
C929   C     0.56500   0.45850   0.93328   0.00000  Uiso   1.00
C930   C     0.52689   0.46252   0.91444   0.00000  Uiso   1.00
C931   C     0.51282   0.51162   0.56339   0.00000  Uiso   1.00
C932   C     0.58823   0.48068   0.55939   0.00000  Uiso   1.00
C933   C     0.45672   0.50194   0.91194   0.00000  Uiso   1.00
C934   C     0.53961   0.64494   0.72104   0.00000  Uiso   1.00
C935   C     0.47317   0.49881   0.85242   0.00000  Uiso   1.00
C936   C     0.53985   0.35444   0.71936   0.00000  Uiso   1.00
C937   C     0.49923   0.37601   0.75114   0.00000  Uiso   1.00
C938   C     0.45874   0.35574   0.78588   0.00000  Uiso   1.00
C939   C     0.45847   0.64587   0.78938   0.00000  Uiso   1.00
C940   C     0.49904   0.62416   0.75514   0.00000  Uiso   1.00
C941   C     0.65360   0.47642   0.71319   0.00000  Uiso   1.00
C942   C     0.36812   0.47644   0.71322   0.00000  Uiso   1.00
C943   C     0.34688   0.52326   0.78695   0.00000  Uiso   1.00
C944   C     0.63221   0.52367   0.78738   0.00000  Uiso   1.00
C945   C     0.49987   0.42007   0.74984   0.00000  Uiso   1.00
C946   C     0.52677   0.50020   0.64792   0.00000  Uiso   1.00
C947   C     0.59743   0.46984   0.50521   0.00000  Uiso   1.00
C948   C     0.54414   0.49898   0.58920   0.00000  Uiso   1.00
C949   C     0.41593   0.52616   0.94031   0.00000  Uiso   1.00
C950   C     0.41780   0.55149   0.98337   0.00000  Uiso   1.00
C951   C     0.45736   0.55025   0.50099   0.00000  Uiso   1.00
H952   H     0.61305   0.47098   0.57910   0.00000  Uiso   1.00
H953   H     0.57115   0.37071   0.69267   0.00000  Uiso   1.00
H954   H     0.42844   0.37383   0.81144   0.00000  Uiso   1.00
H955   H     0.64428   0.45758   0.68368   0.00000  Uiso   1.00
H956   H     0.39489   0.45754   0.68369   0.00000  Uiso   1.00
H957   H     0.35735   0.54205   0.81569   0.00000  Uiso   1.00
H958   H     0.59355   0.43665   0.91331   0.00000  Uiso   1.00
H959   H     0.62910   0.45163   0.98382   0.00000  Uiso   1.00
H960   H     0.47734   0.52191   0.58771   0.00000  Uiso   1.00
H961   H     0.38973   0.57430   0.50098   0.00000  Uiso   1.00
H962   H     0.52660   0.44240   0.88103   0.00000  Uiso   1.00
H963   H     0.57062   0.62794   0.69496   0.00000  Uiso   1.00
N964   N     0.38093   0.50001   0.75002   0.00000  Uiso   1.00
N965   N     0.61906   0.49998   0.75001   0.00000  Uiso   1.00
O966   O     0.46179   0.56108   0.75001   0.00000  Uiso   1.00
O967   O     0.53823   0.56107   0.75001   0.00000  Uiso   1.00
O968   O     0.44280   0.50000   0.82681   0.00000  Uiso   1.00
O969   O     0.51924   0.49999   0.82681   0.00000  Uiso   1.00
O970   O     0.46177   0.43893   0.75000   0.00000  Uiso   1.00
O971   O     0.53821   0.43892   0.75000   0.00000  Uiso   1.00
O972   O     0.48076   0.50001   0.67319   0.00000  Uiso   1.00
O973   O     0.55720   0.50000   0.67319   0.00000  Uiso   1.00
Zn974  Zn    0.44896   0.50001   0.75000   0.00000  Uiso   1.00
Zn975  Zn    0.55104   0.49999   0.75000   0.00000  Uiso   1.00
C976   C     0.41732   0.62444   0.83034   0.00000  Uiso   1.00
H977   H     0.42014   0.59212   0.84096   0.00000  Uiso   1.00
O978   O     0.37982   0.64293   0.85343   0.00000  Uiso   1.00
C979   C     0.59764   0.55070   0.82853   0.00000  Uiso   1.00
H980   H     0.56556   0.56202   0.82320   0.00000  Uiso   1.00
O981   O     0.60515   0.56141   0.86976   0.00000  Uiso   1.00
C982   C     0.37260   0.52714   0.92410   0.00000  Uiso   1.00
H983   H     0.36597   0.50237   0.89890   0.00000  Uiso   1.00
O984   O     0.34292   0.55499   0.94007   0.00000  Uiso   1.00
C985   C     0.46694   0.58930   0.53007   0.00000  Uiso   1.00
C986   C     0.51547   0.60958   0.99810   0.00000  Uiso   1.00
C987   C     0.52331   0.65036   0.52499   0.00000  Uiso   1.00
H988   H     0.49481   0.33995   0.52681   0.00000  Uiso   1.00
H989   H     0.52294   0.64430   0.56671   0.00000  Uiso   1.00
H990   H     0.55867   0.66412   0.50105   0.00000  Uiso   1.00
H991   H     0.54536   0.58798   0.99549   0.00000  Uiso   1.00
H992   H     0.51672   0.61636   0.95619   0.00000  Uiso   1.00
H993   H     0.43864   0.61304   0.53403   0.00000  Uiso   1.00
H994   H     0.46462   0.58350   0.57223   0.00000  Uiso   1.00
C995   C     0.83283   0.57991   0.75224   0.00000  Uiso   1.00
C996   C     0.82354   0.51610   0.98316   0.00000  Uiso   1.00
C997   C     0.82397   0.49282   0.93699   0.00000  Uiso   1.00
C998   C     0.85663   0.50457   0.50840   0.00000  Uiso   1.00
C999   C     0.89657   0.47889   0.98097   0.00000  Uiso   1.00
C1000  C     0.89833   0.45850   0.93328   0.00000  Uiso   1.00
C1001  C     0.86022   0.46252   0.91444   0.00000  Uiso   1.00
C1002  C     0.84615   0.51162   0.56339   0.00000  Uiso   1.00
C1003  C     0.92156   0.48068   0.55939   0.00000  Uiso   1.00
C1004  C     0.79005   0.50194   0.91194   0.00000  Uiso   1.00
C1005  C     0.87294   0.64494   0.72104   0.00000  Uiso   1.00
C1006  C     0.80651   0.49881   0.85242   0.00000  Uiso   1.00
C1007  C     0.87319   0.35444   0.71936   0.00000  Uiso   1.00
C1008  C     0.83256   0.37601   0.75114   0.00000  Uiso   1.00
C1009  C     0.79208   0.35574   0.78588   0.00000  Uiso   1.00
C1010  C     0.79181   0.64587   0.78938   0.00000  Uiso   1.00
C1011  C     0.83238   0.62416   0.75514   0.00000  Uiso   1.00
C1012  C     0.98693   0.47642   0.71319   0.00000  Uiso   1.00
C1013  C     0.70145   0.47644   0.71322   0.00000  Uiso   1.00
C1014  C     0.68022   0.52326   0.78695   0.00000  Uiso   1.00
C1015  C     0.96555   0.52367   0.78738   0.00000  Uiso   1.00
C1016  C     0.83320   0.42007   0.74984   0.00000  Uiso   1.00
C1017  C     0.86010   0.50020   0.64792   0.00000  Uiso   1.00
C1018  C     0.93076   0.46984   0.50521   0.00000  Uiso   1.00
C1019  C     0.87747   0.49898   0.58920   0.00000  Uiso   1.00
C1020  C     0.74926   0.52616   0.94031   0.00000  Uiso   1.00
C1021  C     0.75113   0.55149   0.98337   0.00000  Uiso   1.00
C1022  C     0.79070   0.55025   0.50099   0.00000  Uiso   1.00
H1023  H     0.94639   0.47098   0.57910   0.00000  Uiso   1.00
H1024  H     0.90448   0.37071   0.69267   0.00000  Uiso   1.00
H1025  H     0.76177   0.37383   0.81144   0.00000  Uiso   1.00
H1026  H     0.97761   0.45758   0.68368   0.00000  Uiso   1.00
H1027  H     0.72823   0.45754   0.68369   0.00000  Uiso   1.00
H1028  H     0.69068   0.54205   0.81569   0.00000  Uiso   1.00
H1029  H     0.92688   0.43665   0.91331   0.00000  Uiso   1.00
H1030  H     0.96243   0.45163   0.98382   0.00000  Uiso   1.00
H1031  H     0.81067   0.52191   0.58771   0.00000  Uiso   1.00
H1032  H     0.72307   0.57430   0.50098   0.00000  Uiso   1.00
H1033  H     0.85993   0.44240   0.88103   0.00000  Uiso   1.00
H1034  H     0.90395   0.62794   0.69496   0.00000  Uiso   1.00
N1035  N     0.71426   0.50001   0.75002   0.00000  Uiso   1.00
N1036  N     0.95239   0.49998   0.75001   0.00000  Uiso   1.00
O1037  O     0.79512   0.56108   0.75001   0.00000  Uiso   1.00
O1038  O     0.87157   0.56107   0.75001   0.00000  Uiso   1.00
O1039  O     0.77613   0.50000   0.82681   0.00000  Uiso   1.00
O1040  O     0.85258   0.49999   0.82681   0.00000  Uiso   1.00
O1041  O     0.79510   0.43893   0.75000   0.00000  Uiso   1.00
O1042  O     0.87154   0.43892   0.75000   0.00000  Uiso   1.00
O1043  O     0.81409   0.50001   0.67319   0.00000  Uiso   1.00
O1044  O     0.89053   0.50000   0.67319   0.00000  Uiso   1.00
Zn1045 Zn    0.78229   0.50001   0.75000   0.00000  Uiso   1.00
Zn1046 Zn    0.88438   0.49999   0.75000   0.00000  Uiso   1.00
C1047  C     0.75065   0.62444   0.83034   0.00000  Uiso   1.00
H1048  H     0.75347   0.59212   0.84096   0.00000  Uiso   1.00
O1049  O     0.71315   0.64293   0.85343   0.00000  Uiso   1.00
C1050  C     0.93098   0.55070   0.82853   0.00000  Uiso   1.00
H1051  H     0.89890   0.56202   0.82320   0.00000  Uiso   1.00
O1052  O     0.93848   0.56141   0.86976   0.00000  Uiso   1.00
C1053  C     0.70594   0.52714   0.92410   0.00000  Uiso   1.00
H1054  H     0.69930   0.50237   0.89890   0.00000  Uiso   1.00
O1055  O     0.67625   0.55499   0.94007   0.00000  Uiso   1.00
C1056  C     0.80027   0.58930   0.53007   0.00000  Uiso   1.00
C1057  C     0.84881   0.60958   0.99810   0.00000  Uiso   1.00
C1058  C     0.85664   0.65036   0.52499   0.00000  Uiso   1.00
H1059  H     0.82814   0.33995   0.52681   0.00000  Uiso   1.00
H1060  H     0.85628   0.64430   0.56671   0.00000  Uiso   1.00
H1061  H     0.89201   0.66412   0.50105   0.00000  Uiso   1.00
H1062  H     0.87869   0.58798   0.99549   0.00000  Uiso   1.00
H1063  H     0.85005   0.61636   0.95619   0.00000  Uiso   1.00
H1064  H     0.77197   0.61304   0.53403   0.00000  Uiso   1.00
H1065  H     0.79796   0.58350   0.57223   0.00000  Uiso   1.00
C1066  C     0.16617   0.91325   0.75224   0.00000  Uiso   1.00
C1067  C     0.15688   0.84943   0.98316   0.00000  Uiso   1.00
C1068  C     0.15730   0.82616   0.93699   0.00000  Uiso   1.00
C1069  C     0.18996   0.83791   0.50840   0.00000  Uiso   1.00
C1070  C     0.22990   0.81222   0.98097   0.00000  Uiso   1.00
C1071  C     0.23167   0.79183   0.93328   0.00000  Uiso   1.00
C1072  C     0.19356   0.79585   0.91444   0.00000  Uiso   1.00
C1073  C     0.17949   0.84496   0.56339   0.00000  Uiso   1.00
C1074  C     0.25490   0.81401   0.55939   0.00000  Uiso   1.00
C1075  C     0.12338   0.83527   0.91194   0.00000  Uiso   1.00
C1076  C     0.20628   0.97827   0.72104   0.00000  Uiso   1.00
C1077  C     0.13984   0.83214   0.85242   0.00000  Uiso   1.00
C1078  C     0.20652   0.68777   0.71936   0.00000  Uiso   1.00
C1079  C     0.16590   0.70934   0.75114   0.00000  Uiso   1.00
C1080  C     0.12541   0.68907   0.78588   0.00000  Uiso   1.00
C1081  C     0.12514   0.97920   0.78938   0.00000  Uiso   1.00
C1082  C     0.16571   0.95750   0.75514   0.00000  Uiso   1.00
C1083  C     0.32026   0.80976   0.71319   0.00000  Uiso   1.00
C1084  C     0.03478   0.80977   0.71322   0.00000  Uiso   1.00
C1085  C     0.01355   0.85660   0.78695   0.00000  Uiso   1.00
C1086  C     0.29888   0.85700   0.78738   0.00000  Uiso   1.00
C1087  C     0.16653   0.75341   0.74984   0.00000  Uiso   1.00
C1088  C     0.19344   0.83353   0.64792   0.00000  Uiso   1.00
C1089  C     0.26409   0.80318   0.50521   0.00000  Uiso   1.00
C1090  C     0.21080   0.83232   0.58920   0.00000  Uiso   1.00
C1091  C     0.08260   0.85949   0.94031   0.00000  Uiso   1.00
C1092  C     0.08446   0.88482   0.98337   0.00000  Uiso   1.00
C1093  C     0.12403   0.88359   0.50099   0.00000  Uiso   1.00
H1094  H     0.27972   0.80432   0.57910   0.00000  Uiso   1.00
H1095  H     0.23782   0.70404   0.69267   0.00000  Uiso   1.00
H1096  H     0.09510   0.70716   0.81144   0.00000  Uiso   1.00
H1097  H     0.31095   0.79091   0.68368   0.00000  Uiso   1.00
H1098  H     0.06156   0.79087   0.68369   0.00000  Uiso   1.00
H1099  H     0.02402   0.87539   0.81569   0.00000  Uiso   1.00
H1100  H     0.26022   0.76998   0.91331   0.00000  Uiso   1.00
H1101  H     0.29576   0.78497   0.98382   0.00000  Uiso   1.00
H1102  H     0.14400   0.85524   0.58771   0.00000  Uiso   1.00
H1103  H     0.05640   0.90763   0.50098   0.00000  Uiso   1.00
H1104  H     0.19327   0.77574   0.88103   0.00000  Uiso   1.00
H1105  H     0.23728   0.96128   0.69496   0.00000  Uiso   1.00
N1106  N     0.04760   0.83334   0.75002   0.00000  Uiso   1.00
N1107  N     0.28573   0.83331   0.75001   0.00000  Uiso   1.00
O1108  O     0.12846   0.89442   0.75001   0.00000  Uiso   1.00
O1109  O     0.20490   0.89441   0.75001   0.00000  Uiso   1.00
O1110  O     0.10947   0.83333   0.82681   0.00000  Uiso   1.00
O1111  O     0.18591   0.83332   0.82681   0.00000  Uiso   1.00
O1112  O     0.12843   0.77226   0.75000   0.00000  Uiso   1.00
O1113  O     0.20488   0.77225   0.75000   0.00000  Uiso   1.00
O1114  O     0.14742   0.83335   0.67319   0.00000  Uiso   1.00
O1115  O     0.22387   0.83334   0.67319   0.00000  Uiso   1.00
Zn1116 Zn    0.11562   0.83334   0.75000   0.00000  Uiso   1.00
Zn1117 Zn    0.21771   0.83333   0.75000   0.00000  Uiso   1.00
C1118  C     0.08399   0.95778   0.83034   0.00000  Uiso   1.00
H1119  H     0.08680   0.92545   0.84096   0.00000  Uiso   1.00
O1120  O     0.04649   0.97626   0.85343   0.00000  Uiso   1.00
C1121  C     0.26431   0.88403   0.82853   0.00000  Uiso   1.00
H1122  H     0.23223   0.89535   0.82320   0.00000  Uiso   1.00
O1123  O     0.27182   0.89475   0.86976   0.00000  Uiso   1.00
C1124  C     0.03927   0.86048   0.92410   0.00000  Uiso   1.00
H1125  H     0.03263   0.83571   0.89890   0.00000  Uiso   1.00
O1126  O     0.00958   0.88832   0.94007   0.00000  Uiso   1.00
C1127  C     0.13360   0.92264   0.53007   0.00000  Uiso   1.00
C1128  C     0.18214   0.94291   0.99810   0.00000  Uiso   1.00
C1129  C     0.18997   0.98369   0.52499   0.00000  Uiso   1.00
H1130  H     0.16147   0.67328   0.52681   0.00000  Uiso   1.00
H1131  H     0.18961   0.97764   0.56671   0.00000  Uiso   1.00
H1132  H     0.22534   0.99745   0.50105   0.00000  Uiso   1.00
H1133  H     0.21203   0.92132   0.99549   0.00000  Uiso   1.00
H1134  H     0.18339   0.94969   0.95619   0.00000  Uiso   1.00
H1135  H     0.10530   0.94637   0.53403   0.00000  Uiso   1.00
H1136  H     0.13129   0.91684   0.57223   0.00000  Uiso   1.00
C1137  C     0.49950   0.91325   0.75224   0.00000  Uiso   1.00
C1138  C     0.49021   0.84943   0.98316   0.00000  Uiso   1.00
C1139  C     0.49063   0.82616   0.93699   0.00000  Uiso   1.00
C1140  C     0.52329   0.83791   0.50840   0.00000  Uiso   1.00
C1141  C     0.56324   0.81222   0.98097   0.00000  Uiso   1.00
C1142  C     0.56500   0.79183   0.93328   0.00000  Uiso   1.00
C1143  C     0.52689   0.79585   0.91444   0.00000  Uiso   1.00
C1144  C     0.51282   0.84496   0.56339   0.00000  Uiso   1.00
C1145  C     0.58823   0.81401   0.55939   0.00000  Uiso   1.00
C1146  C     0.45672   0.83527   0.91194   0.00000  Uiso   1.00
C1147  C     0.53961   0.97827   0.72104   0.00000  Uiso   1.00
C1148  C     0.47317   0.83214   0.85242   0.00000  Uiso   1.00
C1149  C     0.53985   0.68777   0.71936   0.00000  Uiso   1.00
C1150  C     0.49923   0.70934   0.75114   0.00000  Uiso   1.00
C1151  C     0.45874   0.68907   0.78588   0.00000  Uiso   1.00
C1152  C     0.45847   0.97920   0.78938   0.00000  Uiso   1.00
C1153  C     0.49904   0.95750   0.75514   0.00000  Uiso   1.00
C1154  C     0.65360   0.80976   0.71319   0.00000  Uiso   1.00
C1155  C     0.36812   0.80977   0.71322   0.00000  Uiso   1.00
C1156  C     0.34688   0.85660   0.78695   0.00000  Uiso   1.00
C1157  C     0.63221   0.85700   0.78738   0.00000  Uiso   1.00
C1158  C     0.49987   0.75341   0.74984   0.00000  Uiso   1.00
C1159  C     0.52677   0.83353   0.64792   0.00000  Uiso   1.00
C1160  C     0.59743   0.80318   0.50521   0.00000  Uiso   1.00
C1161  C     0.54414   0.83232   0.58920   0.00000  Uiso   1.00
C1162  C     0.41593   0.85949   0.94031   0.00000  Uiso   1.00
C1163  C     0.41780   0.88482   0.98337   0.00000  Uiso   1.00
C1164  C     0.45736   0.88359   0.50099   0.00000  Uiso   1.00
H1165  H     0.61305   0.80432   0.57910   0.00000  Uiso   1.00
H1166  H     0.57115   0.70404   0.69267   0.00000  Uiso   1.00
H1167  H     0.42844   0.70716   0.81144   0.00000  Uiso   1.00
H1168  H     0.64428   0.79091   0.68368   0.00000  Uiso   1.00
H1169  H     0.39489   0.79087   0.68369   0.00000  Uiso   1.00
H1170  H     0.35735   0.87539   0.81569   0.00000  Uiso   1.00
H1171  H     0.59355   0.76998   0.91331   0.00000  Uiso   1.00
H1172  H     0.62910   0.78497   0.98382   0.00000  Uiso   1.00
H1173  H     0.47734   0.85524   0.58771   0.00000  Uiso   1.00
H1174  H     0.38973   0.90763   0.50098   0.00000  Uiso   1.00
H1175  H     0.52660   0.77574   0.88103   0.00000  Uiso   1.00
H1176  H     0.57062   0.96128   0.69496   0.00000  Uiso   1.00
N1177  N     0.38093   0.83334   0.75002   0.00000  Uiso   1.00
N1178  N     0.61906   0.83331   0.75001   0.00000  Uiso   1.00
O1179  O     0.46179   0.89442   0.75001   0.00000  Uiso   1.00
O1180  O     0.53823   0.89441   0.75001   0.00000  Uiso   1.00
O1181  O     0.44280   0.83333   0.82681   0.00000  Uiso   1.00
O1182  O     0.51924   0.83332   0.82681   0.00000  Uiso   1.00
O1183  O     0.46177   0.77226   0.75000   0.00000  Uiso   1.00
O1184  O     0.53821   0.77225   0.75000   0.00000  Uiso   1.00
O1185  O     0.48076   0.83335   0.67319   0.00000  Uiso   1.00
O1186  O     0.55720   0.83334   0.67319   0.00000  Uiso   1.00
Zn1187 Zn    0.44896   0.83334   0.75000   0.00000  Uiso   1.00
Zn1188 Zn    0.55104   0.83333   0.75000   0.00000  Uiso   1.00
C1189  C     0.41732   0.95778   0.83034   0.00000  Uiso   1.00
H1190  H     0.42014   0.92545   0.84096   0.00000  Uiso   1.00
O1191  O     0.37982   0.97626   0.85343   0.00000  Uiso   1.00
C1192  C     0.59764   0.88403   0.82853   0.00000  Uiso   1.00
H1193  H     0.56556   0.89535   0.82320   0.00000  Uiso   1.00
O1194  O     0.60515   0.89475   0.86976   0.00000  Uiso   1.00
C1195  C     0.37260   0.86048   0.92410   0.00000  Uiso   1.00
H1196  H     0.36597   0.83571   0.89890   0.00000  Uiso   1.00
O1197  O     0.34292   0.88832   0.94007   0.00000  Uiso   1.00
C1198  C     0.46694   0.92264   0.53007   0.00000  Uiso   1.00
C1199  C     0.51547   0.94291   0.99810   0.00000  Uiso   1.00
C1200  C     0.52331   0.98369   0.52499   0.00000  Uiso   1.00
H1201  H     0.49481   0.67328   0.52681   0.00000  Uiso   1.00
H1202  H     0.52294   0.97764   0.56671   0.00000  Uiso   1.00
H1203  H     0.55867   0.99745   0.50105   0.00000  Uiso   1.00
H1204  H     0.54536   0.92132   0.99549   0.00000  Uiso   1.00
H1205  H     0.51672   0.94969   0.95619   0.00000  Uiso   1.00
H1206  H     0.43864   0.94637   0.53403   0.00000  Uiso   1.00
H1207  H     0.46462   0.91684   0.57223   0.00000  Uiso   1.00
C1208  C     0.83283   0.91325   0.75224   0.00000  Uiso   1.00
C1209  C     0.82354   0.84943   0.98316   0.00000  Uiso   1.00
C1210  C     0.82397   0.82616   0.93699   0.00000  Uiso   1.00
C1211  C     0.85663   0.83791   0.50840   0.00000  Uiso   1.00
C1212  C     0.89657   0.81222   0.98097   0.00000  Uiso   1.00
C1213  C     0.89833   0.79183   0.93328   0.00000  Uiso   1.00
C1214  C     0.86022   0.79585   0.91444   0.00000  Uiso   1.00
C1215  C     0.84615   0.84496   0.56339   0.00000  Uiso   1.00
C1216  C     0.92156   0.81401   0.55939   0.00000  Uiso   1.00
C1217  C     0.79005   0.83527   0.91194   0.00000  Uiso   1.00
C1218  C     0.87294   0.97827   0.72104   0.00000  Uiso   1.00
C1219  C     0.80651   0.83214   0.85242   0.00000  Uiso   1.00
C1220  C     0.87319   0.68777   0.71936   0.00000  Uiso   1.00
C1221  C     0.83256   0.70934   0.75114   0.00000  Uiso   1.00
C1222  C     0.79208   0.68907   0.78588   0.00000  Uiso   1.00
C1223  C     0.79181   0.97920   0.78938   0.00000  Uiso   1.00
C1224  C     0.83238   0.95750   0.75514   0.00000  Uiso   1.00
C1225  C     0.98693   0.80976   0.71319   0.00000  Uiso   1.00
C1226  C     0.70145   0.80977   0.71322   0.00000  Uiso   1.00
C1227  C     0.68022   0.85660   0.78695   0.00000  Uiso   1.00
C1228  C     0.96555   0.85700   0.78738   0.00000  Uiso   1.00
C1229  C     0.83320   0.75341   0.74984   0.00000  Uiso   1.00
C1230  C     0.86010   0.83353   0.64792   0.00000  Uiso   1.00
C1231  C     0.93076   0.80318   0.50521   0.00000  Uiso   1.00
C1232  C     0.87747   0.83232   0.58920   0.00000  Uiso   1.00
C1233  C     0.74926   0.85949   0.94031   0.00000  Uiso   1.00
C1234  C     0.75113   0.88482   0.98337   0.00000  Uiso   1.00
C1235  C     0.79070   0.88359   0.50099   0.00000  Uiso   1.00
H1236  H     0.94639   0.80432   0.57910   0.00000  Uiso   1.00
H1237  H     0.90448   0.70404   0.69267   0.00000  Uiso   1.00
H1238  H     0.76177   0.70716   0.81144   0.00000  Uiso   1.00
H1239  H     0.97761   0.79091   0.68368   0.00000  Uiso   1.00
H1240  H     0.72823   0.79087   0.68369   0.00000  Uiso   1.00
H1241  H     0.69068   0.87539   0.81569   0.00000  Uiso   1.00
H1242  H     0.92688   0.76998   0.91331   0.00000  Uiso   1.00
H1243  H     0.96243   0.78497   0.98382   0.00000  Uiso   1.00
H1244  H     0.81067   0.85524   0.58771   0.00000  Uiso   1.00
H1245  H     0.72307   0.90763   0.50098   0.00000  Uiso   1.00
H1246  H     0.85993   0.77574   0.88103   0.00000  Uiso   1.00
H1247  H     0.90395   0.96128   0.69496   0.00000  Uiso   1.00
N1248  N     0.71426   0.83334   0.75002   0.00000  Uiso   1.00
N1249  N     0.95239   0.83331   0.75001   0.00000  Uiso   1.00
O1250  O     0.79512   0.89442   0.75001   0.00000  Uiso   1.00
O1251  O     0.87157   0.89441   0.75001   0.00000  Uiso   1.00
O1252  O     0.77613   0.83333   0.82681   0.00000  Uiso   1.00
O1253  O     0.85258   0.83332   0.82681   0.00000  Uiso   1.00
O1254  O     0.79510   0.77226   0.75000   0.00000  Uiso   1.00
O1255  O     0.87154   0.77225   0.75000   0.00000  Uiso   1.00
O1256  O     0.81409   0.83335   0.67319   0.00000  Uiso   1.00
O1257  O     0.89053   0.83334   0.67319   0.00000  Uiso   1.00
Zn1258 Zn    0.78229   0.83334   0.75000   0.00000  Uiso   1.00
Zn1259 Zn    0.88438   0.83333   0.75000   0.00000  Uiso   1.00
C1260  C     0.75065   0.95778   0.83034   0.00000  Uiso   1.00
H1261  H     0.75347   0.92545   0.84096   0.00000  Uiso   1.00
O1262  O     0.71315   0.97626   0.85343   0.00000  Uiso   1.00
C1263  C     0.93098   0.88403   0.82853   0.00000  Uiso   1.00
H1264  H     0.89890   0.89535   0.82320   0.00000  Uiso   1.00
O1265  O     0.93848   0.89475   0.86976   0.00000  Uiso   1.00
C1266  C     0.70594   0.86048   0.92410   0.00000  Uiso   1.00
H1267  H     0.69930   0.83571   0.89890   0.00000  Uiso   1.00
O1268  O     0.67625   0.88832   0.94007   0.00000  Uiso   1.00
C1269  C     0.80027   0.92264   0.53007   0.00000  Uiso   1.00
C1270  C     0.84881   0.94291   0.99810   0.00000  Uiso   1.00
C1271  C     0.85664   0.98369   0.52499   0.00000  Uiso   1.00
H1272  H     0.82814   0.67328   0.52681   0.00000  Uiso   1.00
H1273  H     0.85628   0.97764   0.56671   0.00000  Uiso   1.00
H1274  H     0.89201   0.99745   0.50105   0.00000  Uiso   1.00
H1275  H     0.87869   0.92132   0.99549   0.00000  Uiso   1.00
H1276  H     0.85005   0.94969   0.95619   0.00000  Uiso   1.00
H1277  H     0.77197   0.94637   0.53403   0.00000  Uiso   1.00
H1278  H     0.79796   0.91684   0.57223   0.00000  Uiso   1.00
loop_
_geom_bond_atom_site_label_1
_geom_bond_atom_site_label_2
_geom_bond_distance
_geom_bond_site_symmetry_2
_ccdc_geom_bond_type
C1     O44     1.284   .     A
C1     C17     1.414   .     S
C1     O43     1.283   .     A
C2     C3      1.410   .     A
C2     C643    1.412   .     S
C2     C667    1.432   .     S
C3     C10     1.411   .     A
C3     C7      1.417   .     A
C4     C8      1.385   .     A
C4     C641    1.412   1_554 S
C4     C644    1.418   1_554 S
C5     C6      1.389   .     A
C5     C643    1.418   .     S
C5     C663    1.403   .     S
C6     C7      1.387   .     A
C6     H35     1.084   .     S
C7     H39     1.083   .     S
C8     C25     1.388   .     A
C8     H37     1.078   .     S
C9     C24     1.393   .     A
C9     H29     1.083   .     S
C9     C25     1.401   .     A
C10    C26     1.414   .     A
C10    C12     1.472   .     S
C11    H40     1.084   .     S
C11    C17     1.396   .     A
C11    C226    1.368   .     S
C12    O46     1.299   .     A
C12    O45     1.296   .     A
C13    C14     1.390   .     A
C13    H30     1.084   .     S
C13    C437    1.368   1_545 S
C14    C15     1.393   .     A
C14    C22     1.407   .     S
C15    H31     1.085   .     S
C15    C442    1.383   1_545 S
C16    C17     1.412   .     A
C16    C53     1.489   .     S
C16    C228    1.383   .     S
C18    N42     1.366   .     A
C18    H32     1.082   .     S
C18    C90     1.418   .     S
C19    H33     1.082   .     S
C19    N41     1.368   .     A
C19    C160    1.418   1_455 S
C20    H34     1.082   .     S
C20    N41     1.354   .     A
C20    C163    1.419   1_455 S
C21    C56     1.482   .     S
C21    N42     1.387   .     A
C21    C91     1.419   .     S
C22    O48     1.282   .     A
C22    O47     1.283   .     A
C23    O49     1.296   .     A
C23    C25     1.449   .     S
C23    O50     1.290   .     A
C24    C644    1.403   1_554 S
C24    H675    1.084   1_554 S
C26    C59     1.485   .     S
C26    C27     1.398   .     A
C27    C667    1.401   .     S
C27    H677    1.084   .     S
C28    C62     1.528   .     S
C28    C641    1.432   1_554 S
C28    C666    1.401   1_554 S
H36    C663    1.084   .     S
H38    C666    1.084   1_554 S
N41    Zn51    2.016   .     S
N42    Zn52    2.015   .     S
O43    Zn51    1.983   .     S
O44    Zn52    1.990   .     S
O45    Zn51    1.962   .     S
O46    Zn52    1.911   .     S
O47    Zn51    1.990   .     S
O48    Zn52    1.983   .     S
O49    Zn51    1.911   .     S
O50    Zn52    1.962   .     S
C53    O55     1.221   .     D
C53    H54     1.084   .     S
C56    O58     1.222   .     D
C56    H57     1.074   .     S
C59    H60     1.084   .     S
C59    O61     1.221   .     D
C62    H71     1.103   .     S
C62    H70     1.113   .     S
C62    C702    1.537   1_554 S
C63    H69     1.112   .     S
C63    H68     1.110   .     S
C63    C701    1.537   .     S
C63    C703    1.527   .     S
C64    H67     1.111   .     S
C64    H66     1.111   .     S
C64    C702    1.527   1_554 S
C64    H278    1.111   .     S
H65    C490    1.111   1_545 S
C72    O115    1.284   .     A
C72    C88     1.414   .     S
C72    O114    1.283   .     A
C73    C74     1.410   .     A
C73    C714    1.412   .     S
C73    C738    1.432   .     S
C74    C81     1.411   .     A
C74    C78     1.417   .     A
C75    C79     1.385   .     A
C75    C712    1.412   1_554 S
C75    C715    1.418   1_554 S
C76    C77     1.389   .     A
C76    C714    1.418   .     S
C76    C734    1.403   .     S
C77    C78     1.387   .     A
C77    H106    1.084   .     S
C78    H110    1.083   .     S
C79    C96     1.388   .     A
C79    H108    1.078   .     S
C80    C95     1.393   .     A
C80    H100    1.083   .     S
C80    C96     1.401   .     A
C81    C97     1.414   .     A
C81    C83     1.472   .     S
C82    H111    1.084   .     S
C82    C88     1.396   .     A
C82    C297    1.368   .     S
C83    O117    1.299   .     A
C83    O116    1.296   .     A
C84    C85     1.390   .     A
C84    H101    1.084   .     S
C84    C508    1.368   1_545 S
C85    C86     1.393   .     A
C85    C93     1.407   .     S
C86    H102    1.085   .     S
C86    C513    1.383   1_545 S
C87    C88     1.412   .     A
C87    C124    1.489   .     S
C87    C299    1.383   .     S
C89    N113    1.366   .     A
C89    H103    1.082   .     S
C89    C161    1.418   .     S
C90    H104    1.082   .     S
C90    N112    1.368   .     A
C91    H105    1.082   .     S
C91    N112    1.354   .     A
C92    C127    1.482   .     S
C92    N113    1.387   .     A
C92    C162    1.419   .     S
C93    O119    1.282   .     A
C93    O118    1.283   .     A
C94    O120    1.296   .     A
C94    C96     1.449   .     S
C94    O121    1.290   .     A
C95    C715    1.403   1_554 S
C95    H746    1.084   1_554 S
C97    C130    1.485   .     S
C97    C98     1.398   .     A
C98    C738    1.401   .     S
C98    H748    1.084   .     S
C99    C133    1.528   .     S
C99    C712    1.432   1_554 S
C99    C737    1.401   1_554 S
H107   C734    1.084   .     S
H109   C737    1.084   1_554 S
N112   Zn122   2.016   .     S
N113   Zn123   2.015   .     S
O114   Zn122   1.983   .     S
O115   Zn123   1.990   .     S
O116   Zn122   1.962   .     S
O117   Zn123   1.911   .     S
O118   Zn122   1.990   .     S
O119   Zn123   1.983   .     S
O120   Zn122   1.911   .     S
O121   Zn123   1.962   .     S
C124   O126    1.221   .     D
C124   H125    1.084   .     S
C127   O129    1.222   .     D
C127   H128    1.074   .     S
C130   H131    1.084   .     S
C130   O132    1.221   .     D
C133   H142    1.103   .     S
C133   H141    1.113   .     S
C133   C773    1.537   1_554 S
C134   H140    1.112   .     S
C134   H139    1.110   .     S
C134   C772    1.537   .     S
C134   C774    1.527   .     S
C135   H138    1.111   .     S
C135   H137    1.111   .     S
C135   C773    1.527   1_554 S
C135   H349    1.111   .     S
H136   C561    1.111   1_545 S
C143   O186    1.284   .     A
C143   C159    1.414   .     S
C143   O185    1.283   .     A
C144   C145    1.410   .     A
C144   C785    1.412   .     S
C144   C809    1.432   .     S
C145   C152    1.411   .     A
C145   C149    1.417   .     A
C146   C150    1.385   .     A
C146   C783    1.412   1_554 S
C146   C786    1.418   1_554 S
C147   C148    1.389   .     A
C147   C785    1.418   .     S
C147   C805    1.403   .     S
C148   C149    1.387   .     A
C148   H177    1.084   .     S
C149   H181    1.083   .     S
C150   C167    1.388   .     A
C150   H179    1.078   .     S
C151   C166    1.393   .     A
C151   H171    1.083   .     S
C151   C167    1.401   .     A
C152   C168    1.414   .     A
C152   C154    1.472   .     S
C153   H182    1.084   .     S
C153   C159    1.396   .     A
C153   C368    1.368   .     S
C154   O188    1.299   .     A
C154   O187    1.296   .     A
C155   C156    1.390   .     A
C155   H172    1.084   .     S
C155   C579    1.368   1_545 S
C156   C157    1.393   .     A
C156   C164    1.407   .     S
C157   H173    1.085   .     S
C157   C584    1.383   1_545 S
C158   C159    1.412   .     A
C158   C195    1.489   .     S
C158   C370    1.383   .     S
C160   N184    1.366   .     A
C160   H174    1.082   .     S
C160   C19     1.418   1_655 S
C161   H175    1.082   .     S
C161   N183    1.368   .     A
C162   H176    1.082   .     S
C162   N183    1.354   .     A
C163   C198    1.482   .     S
C163   N184    1.387   .     A
C163   C20     1.419   1_655 S
C164   O190    1.282   .     A
C164   O189    1.283   .     A
C165   O191    1.296   .     A
C165   C167    1.449   .     S
C165   O192    1.290   .     A
C166   C786    1.403   1_554 S
C166   H817    1.084   1_554 S
C168   C201    1.485   .     S
C168   C169    1.398   .     A
C169   C809    1.401   .     S
C169   H819    1.084   .     S
C170   C204    1.528   .     S
C170   C783    1.432   1_554 S
C170   C808    1.401   1_554 S
H178   C805    1.084   .     S
H180   C808    1.084   1_554 S
N183   Zn193   2.016   .     S
N184   Zn194   2.015   .     S
O185   Zn193   1.983   .     S
O186   Zn194   1.990   .     S
O187   Zn193   1.962   .     S
O188   Zn194   1.911   .     S
O189   Zn193   1.990   .     S
O190   Zn194   1.983   .     S
O191   Zn193   1.911   .     S
O192   Zn194   1.962   .     S
C195   O197    1.221   .     D
C195   H196    1.084   .     S
C198   O200    1.222   .     D
C198   H199    1.074   .     S
C201   H202    1.084   .     S
C201   O203    1.221   .     D
C204   H213    1.103   .     S
C204   H212    1.113   .     S
C204   C844    1.537   1_554 S
C205   H211    1.112   .     S
C205   H210    1.110   .     S
C205   C843    1.537   .     S
C205   C845    1.527   .     S
C206   H209    1.111   .     S
C206   H208    1.111   .     S
C206   C844    1.527   1_554 S
C206   H420    1.111   .     S
H207   C632    1.111   1_545 S
C214   O257    1.284   .     A
C214   C230    1.414   .     S
C214   O256    1.283   .     A
C215   C216    1.410   .     A
C215   C856    1.412   .     S
C215   C880    1.432   .     S
C216   C223    1.411   .     A
C216   C220    1.417   .     A
C217   C221    1.385   .     A
C217   C854    1.412   1_554 S
C217   C857    1.418   1_554 S
C218   C219    1.389   .     A
C218   C856    1.418   .     S
C218   C876    1.403   .     S
C219   C220    1.387   .     A
C219   H248    1.084   .     S
C220   H252    1.083   .     S
C221   C238    1.388   .     A
C221   H250    1.078   .     S
C222   C237    1.393   .     A
C222   H242    1.083   .     S
C222   C238    1.401   .     A
C223   C239    1.414   .     A
C223   C225    1.472   .     S
C224   H253    1.084   .     S
C224   C230    1.396   .     A
C224   C439    1.368   .     S
C225   O259    1.299   .     A
C225   O258    1.296   .     A
C226   C227    1.390   .     A
C226   H243    1.084   .     S
C227   C228    1.393   .     A
C227   C235    1.407   .     S
C228   H244    1.085   .     S
C229   C230    1.412   .     A
C229   C266    1.489   .     S
C229   C441    1.383   .     S
C231   N255    1.366   .     A
C231   H245    1.082   .     S
C231   C303    1.418   .     S
C232   H246    1.082   .     S
C232   N254    1.368   .     A
C232   C373    1.418   1_455 S
C233   H247    1.082   .     S
C233   N254    1.354   .     A
C233   C376    1.419   1_455 S
C234   C269    1.482   .     S
C234   N255    1.387   .     A
C234   C304    1.419   .     S
C235   O261    1.282   .     A
C235   O260    1.283   .     A
C236   O262    1.296   .     A
C236   C238    1.449   .     S
C236   O263    1.290   .     A
C237   C857    1.403   1_554 S
C237   H888    1.084   1_554 S
C239   C272    1.485   .     S
C239   C240    1.398   .     A
C240   C880    1.401   .     S
C240   H890    1.084   .     S
C241   C275    1.528   .     S
C241   C854    1.432   1_554 S
C241   C879    1.401   1_554 S
H249   C876    1.084   .     S
H251   C879    1.084   1_554 S
N254   Zn264   2.016   .     S
N255   Zn265   2.015   .     S
O256   Zn264   1.983   .     S
O257   Zn265   1.990   .     S
O258   Zn264   1.962   .     S
O259   Zn265   1.911   .     S
O260   Zn264   1.990   .     S
O261   Zn265   1.983   .     S
O262   Zn264   1.911   .     S
O263   Zn265   1.962   .     S
C266   O268    1.221   .     D
C266   H267    1.084   .     S
C269   O271    1.222   .     D
C269   H270    1.074   .     S
C272   H273    1.084   .     S
C272   O274    1.221   .     D
C275   H284    1.103   .     S
C275   H283    1.113   .     S
C275   C915    1.537   1_554 S
C276   H282    1.112   .     S
C276   H281    1.110   .     S
C276   C914    1.537   .     S
C276   C916    1.527   .     S
C277   H280    1.111   .     S
C277   H279    1.111   .     S
C277   C915    1.527   1_554 S
C277   H491    1.111   .     S
C285   O328    1.284   .     A
C285   C301    1.414   .     S
C285   O327    1.283   .     A
C286   C287    1.410   .     A
C286   C927    1.412   .     S
C286   C951    1.432   .     S
C287   C294    1.411   .     A
C287   C291    1.417   .     A
C288   C292    1.385   .     A
C288   C925    1.412   1_554 S
C288   C928    1.418   1_554 S
C289   C290    1.389   .     A
C289   C927    1.418   .     S
C289   C947    1.403   .     S
C290   C291    1.387   .     A
C290   H319    1.084   .     S
C291   H323    1.083   .     S
C292   C309    1.388   .     A
C292   H321    1.078   .     S
C293   C308    1.393   .     A
C293   H313    1.083   .     S
C293   C309    1.401   .     A
C294   C310    1.414   .     A
C294   C296    1.472   .     S
C295   H324    1.084   .     S
C295   C301    1.396   .     A
C295   C510    1.368   .     S
C296   O330    1.299   .     A
C296   O329    1.296   .     A
C297   C298    1.390   .     A
C297   H314    1.084   .     S
C298   C299    1.393   .     A
C298   C306    1.407   .     S
C299   H315    1.085   .     S
C300   C301    1.412   .     A
C300   C337    1.489   .     S
C300   C512    1.383   .     S
C302   N326    1.366   .     A
C302   H316    1.082   .     S
C302   C374    1.418   .     S
C303   H317    1.082   .     S
C303   N325    1.368   .     A
C304   H318    1.082   .     S
C304   N325    1.354   .     A
C305   C340    1.482   .     S
C305   N326    1.387   .     A
C305   C375    1.419   .     S
C306   O332    1.282   .     A
C306   O331    1.283   .     A
C307   O333    1.296   .     A
C307   C309    1.449   .     S
C307   O334    1.290   .     A
C308   C928    1.403   1_554 S
C308   H959    1.084   1_554 S
C310   C343    1.485   .     S
C310   C311    1.398   .     A
C311   C951    1.401   .     S
C311   H961    1.084   .     S
C312   C346    1.528   .     S
C312   C925    1.432   1_554 S
C312   C950    1.401   1_554 S
H320   C947    1.084   .     S
H322   C950    1.084   1_554 S
N325   Zn335   2.016   .     S
N326   Zn336   2.015   .     S
O327   Zn335   1.983   .     S
O328   Zn336   1.990   .     S
O329   Zn335   1.962   .     S
O330   Zn336   1.911   .     S
O331   Zn335   1.990   .     S
O332   Zn336   1.983   .     S
O333   Zn335   1.911   .     S
O334   Zn336   1.962   .     S
C337   O339    1.221   .     D
C337   H338    1.084   .     S
C340   O342    1.222   .     D
C340   H341    1.074   .     S
C343   H344    1.084   .     S
C343   O345    1.221   .     D
C346   H355    1.103   .     S
C346   H354    1.113   .     S
C346   C986    1.537   1_554 S
C347   H353    1.112   .     S
C347   H352    1.110   .     S
C347   C985    1.537   .     S
C347   C987    1.527   .     S
C348   H351    1.111   .     S
C348   H350    1.111   .     S
C348   C986    1.527   1_554 S
C348   H562    1.111   .     S
C356   O399    1.284   .     A
C356   C372    1.414   .     S
C356   O398    1.283   .     A
C357   C358    1.410   .     A
C357   C998    1.412   .     S
C357   C1022   1.432   .     S
C358   C365    1.411   .     A
C358   C362    1.417   .     A
C359   C363    1.385   .     A
C359   C996    1.412   1_554 S
C359   C999    1.418   1_554 S
C360   C361    1.389   .     A
C360   C998    1.418   .     S
C360   C1018   1.403   .     S
C361   C362    1.387   .     A
C361   H390    1.084   .     S
C362   H394    1.083   .     S
C363   C380    1.388   .     A
C363   H392    1.078   .     S
C364   C379    1.393   .     A
C364   H384    1.083   .     S
C364   C380    1.401   .     A
C365   C381    1.414   .     A
C365   C367    1.472   .     S
C366   H395    1.084   .     S
C366   C372    1.396   .     A
C366   C581    1.368   .     S
C367   O401    1.299   .     A
C367   O400    1.296   .     A
C368   C369    1.390   .     A
C368   H385    1.084   .     S
C369   C370    1.393   .     A
C369   C377    1.407   .     S
C370   H386    1.085   .     S
C371   C372    1.412   .     A
C371   C408    1.489   .     S
C371   C583    1.383   .     S
C373   N397    1.366   .     A
C373   H387    1.082   .     S
C373   C232    1.418   1_655 S
C374   H388    1.082   .     S
C374   N396    1.368   .     A
C375   H389    1.082   .     S
C375   N396    1.354   .     A
C376   C411    1.482   .     S
C376   N397    1.387   .     A
C376   C233    1.419   1_655 S
C377   O403    1.282   .     A
C377   O402    1.283   .     A
C378   O404    1.296   .     A
C378   C380    1.449   .     S
C378   O405    1.290   .     A
C379   C999    1.403   1_554 S
C379   H1030   1.084   1_554 S
C381   C414    1.485   .     S
C381   C382    1.398   .     A
C382   C1022   1.401   .     S
C382   H1032   1.084   .     S
C383   C417    1.528   .     S
C383   C996    1.432   1_554 S
C383   C1021   1.401   1_554 S
H391   C1018   1.084   .     S
H393   C1021   1.084   1_554 S
N396   Zn406   2.016   .     S
N397   Zn407   2.015   .     S
O398   Zn406   1.983   .     S
O399   Zn407   1.990   .     S
O400   Zn406   1.962   .     S
O401   Zn407   1.911   .     S
O402   Zn406   1.990   .     S
O403   Zn407   1.983   .     S
O404   Zn406   1.911   .     S
O405   Zn407   1.962   .     S
C408   O410    1.221   .     D
C408   H409    1.084   .     S
C411   O413    1.222   .     D
C411   H412    1.074   .     S
C414   H415    1.084   .     S
C414   O416    1.221   .     D
C417   H426    1.103   .     S
C417   H425    1.113   .     S
C417   C1057   1.537   1_554 S
C418   H424    1.112   .     S
C418   H423    1.110   .     S
C418   C1056   1.537   .     S
C418   C1058   1.527   .     S
C419   H422    1.111   .     S
C419   H421    1.111   .     S
C419   C1057   1.527   1_554 S
C419   H633    1.111   .     S
C427   O470    1.284   .     A
C427   C443    1.414   .     S
C427   O469    1.283   .     A
C428   C429    1.410   .     A
C428   C1069   1.412   .     S
C428   C1093   1.432   .     S
C429   C436    1.411   .     A
C429   C433    1.417   .     A
C430   C434    1.385   .     A
C430   C1067   1.412   1_554 S
C430   C1070   1.418   1_554 S
C431   C432    1.389   .     A
C431   C1069   1.418   .     S
C431   C1089   1.403   .     S
C432   C433    1.387   .     A
C432   H461    1.084   .     S
C433   H465    1.083   .     S
C434   C451    1.388   .     A
C434   H463    1.078   .     S
C435   C450    1.393   .     A
C435   H455    1.083   .     S
C435   C451    1.401   .     A
C436   C452    1.414   .     A
C436   C438    1.472   .     S
C437   H466    1.084   .     S
C437   C443    1.396   .     A
C437   C13     1.368   1_565 S
C438   O472    1.299   .     A
C438   O471    1.296   .     A
C439   C440    1.390   .     A
C439   H456    1.084   .     S
C440   C441    1.393   .     A
C440   C448    1.407   .     S
C441   H457    1.085   .     S
C442   C443    1.412   .     A
C442   C479    1.489   .     S
C442   C15     1.383   1_565 S
C444   N468    1.366   .     A
C444   H458    1.082   .     S
C444   C516    1.418   .     S
C445   H459    1.082   .     S
C445   N467    1.368   .     A
C445   C586    1.418   1_455 S
C446   H460    1.082   .     S
C446   N467    1.354   .     A
C446   C589    1.419   1_455 S
C447   C482    1.482   .     S
C447   N468    1.387   .     A
C447   C517    1.419   .     S
C448   O474    1.282   .     A
C448   O473    1.283   .     A
C449   O475    1.296   .     A
C449   C451    1.449   .     S
C449   O476    1.290   .     A
C450   C1070   1.403   1_554 S
C450   H1101   1.084   1_554 S
C452   C485    1.485   .     S
C452   C453    1.398   .     A
C453   C1093   1.401   .     S
C453   H1103   1.084   .     S
C454   C488    1.528   .     S
C454   C1067   1.432   1_554 S
C454   C1092   1.401   1_554 S
H462   C1089   1.084   .     S
H464   C1092   1.084   1_554 S
N467   Zn477   2.016   .     S
N468   Zn478   2.015   .     S
O469   Zn477   1.983   .     S
O470   Zn478   1.990   .     S
O471   Zn477   1.962   .     S
O472   Zn478   1.911   .     S
O473   Zn477   1.990   .     S
O474   Zn478   1.983   .     S
O475   Zn477   1.911   .     S
O476   Zn478   1.962   .     S
C479   O481    1.221   .     D
C479   H480    1.084   .     S
C482   O484    1.222   .     D
C482   H483    1.074   .     S
C485   H486    1.084   .     S
C485   O487    1.221   .     D
C488   H497    1.103   .     S
C488   H496    1.113   .     S
C488   C1128   1.537   1_554 S
C489   H495    1.112   .     S
C489   H494    1.110   .     S
C489   C1127   1.537   .     S
C489   C1129   1.527   .     S
C490   H493    1.111   .     S
C490   H492    1.111   .     S
C490   C1128   1.527   1_554 S
C490   H65     1.111   1_565 S
C498   O541    1.284   .     A
C498   C514    1.414   .     S
C498   O540    1.283   .     A
C499   C500    1.410   .     A
C499   C1140   1.412   .     S
C499   C1164   1.432   .     S
C500   C507    1.411   .     A
C500   C504    1.417   .     A
C501   C505    1.385   .     A
C501   C1138   1.412   1_554 S
C501   C1141   1.418   1_554 S
C502   C503    1.389   .     A
C502   C1140   1.418   .     S
C502   C1160   1.403   .     S
C503   C504    1.387   .     A
C503   H532    1.084   .     S
C504   H536    1.083   .     S
C505   C522    1.388   .     A
C505   H534    1.078   .     S
C506   C521    1.393   .     A
C506   H526    1.083   .     S
C506   C522    1.401   .     A
C507   C523    1.414   .     A
C507   C509    1.472   .     S
C508   H537    1.084   .     S
C508   C514    1.396   .     A
C508   C84     1.368   1_565 S
C509   O543    1.299   .     A
C509   O542    1.296   .     A
C510   C511    1.390   .     A
C510   H527    1.084   .     S
C511   C512    1.393   .     A
C511   C519    1.407   .     S
C512   H528    1.085   .     S
C513   C514    1.412   .     A
C513   C550    1.489   .     S
C513   C86     1.383   1_565 S
C515   N539    1.366   .     A
C515   H529    1.082   .     S
C515   C587    1.418   .     S
C516   H530    1.082   .     S
C516   N538    1.368   .     A
C517   H531    1.082   .     S
C517   N538    1.354   .     A
C518   C553    1.482   .     S
C518   N539    1.387   .     A
C518   C588    1.419   .     S
C519   O545    1.282   .     A
C519   O544    1.283   .     A
C520   O546    1.296   .     A
C520   C522    1.449   .     S
C520   O547    1.290   .     A
C521   C1141   1.403   1_554 S
C521   H1172   1.084   1_554 S
C523   C556    1.485   .     S
C523   C524    1.398   .     A
C524   C1164   1.401   .     S
C524   H1174   1.084   .     S
C525   C559    1.528   .     S
C525   C1138   1.432   1_554 S
C525   C1163   1.401   1_554 S
H533   C1160   1.084   .     S
H535   C1163   1.084   1_554 S
N538   Zn548   2.016   .     S
N539   Zn549   2.015   .     S
O540   Zn548   1.983   .     S
O541   Zn549   1.990   .     S
O542   Zn548   1.962   .     S
O543   Zn549   1.911   .     S
O544   Zn548   1.990   .     S
O545   Zn549   1.983   .     S
O546   Zn548   1.911   .     S
O547   Zn549   1.962   .     S
C550   O552    1.221   .     D
C550   H551    1.084   .     S
C553   O555    1.222   .     D
C553   H554    1.074   .     S
C556   H557    1.084   .     S
C556   O558    1.221   .     D
C559   H568    1.103   .     S
C559   H567    1.113   .     S
C559   C1199   1.537   1_554 S
C560   H566    1.112   .     S
C560   H565    1.110   .     S
C560   C1198   1.537   .     S
C560   C1200   1.527   .     S
C561   H564    1.111   .     S
C561   H563    1.111   .     S
C561   C1199   1.527   1_554 S
C561   H136    1.111   1_565 S
C569   O612    1.284   .     A
C569   C585    1.414   .     S
C569   O611    1.283   .     A
C570   C571    1.410   .     A
C570   C1211   1.412   .     S
C570   C1235   1.432   .     S
C571   C578    1.411   .     A
C571   C575    1.417   .     A
C572   C576    1.385   .     A
C572   C1209   1.412   1_554 S
C572   C1212   1.418   1_554 S
C573   C574    1.389   .     A
C573   C1211   1.418   .     S
C573   C1231   1.403   .     S
C574   C575    1.387   .     A
C574   H603    1.084   .     S
C575   H607    1.083   .     S
C576   C593    1.388   .     A
C576   H605    1.078   .     S
C577   C592    1.393   .     A
C577   H597    1.083   .     S
C577   C593    1.401   .     A
C578   C594    1.414   .     A
C578   C580    1.472   .     S
C579   H608    1.084   .     S
C579   C585    1.396   .     A
C579   C155    1.368   1_565 S
C580   O614    1.299   .     A
C580   O613    1.296   .     A
C581   C582    1.390   .     A
C581   H598    1.084   .     S
C582   C583    1.393   .     A
C582   C590    1.407   .     S
C583   H599    1.085   .     S
C584   C585    1.412   .     A
C584   C621    1.489   .     S
C584   C157    1.383   1_565 S
C586   N610    1.366   .     A
C586   H600    1.082   .     S
C586   C445    1.418   1_655 S
C587   H601    1.082   .     S
C587   N609    1.368   .     A
C588   H602    1.082   .     S
C588   N609    1.354   .     A
C589   C624    1.482   .     S
C589   N610    1.387   .     A
C589   C446    1.419   1_655 S
C590   O616    1.282   .     A
C590   O615    1.283   .     A
C591   O617    1.296   .     A
C591   C593    1.449   .     S
C591   O618    1.290   .     A
C592   C1212   1.403   1_554 S
C592   H1243   1.084   1_554 S
C594   C627    1.485   .     S
C594   C595    1.398   .     A
C595   C1235   1.401   .     S
C595   H1245   1.084   .     S
C596   C630    1.528   .     S
C596   C1209   1.432   1_554 S
C596   C1234   1.401   1_554 S
H604   C1231   1.084   .     S
H606   C1234   1.084   1_554 S
N609   Zn619   2.016   .     S
N610   Zn620   2.015   .     S
O611   Zn619   1.983   .     S
O612   Zn620   1.990   .     S
O613   Zn619   1.962   .     S
O614   Zn620   1.911   .     S
O615   Zn619   1.990   .     S
O616   Zn620   1.983   .     S
O617   Zn619   1.911   .     S
O618   Zn620   1.962   .     S
C621   O623    1.221   .     D
C621   H622    1.084   .     S
C624   O626    1.222   .     D
C624   H625    1.074   .     S
C627   H628    1.084   .     S
C627   O629    1.221   .     D
C630   H639    1.103   .     S
C630   H638    1.113   .     S
C630   C1270   1.537   1_554 S
C631   H637    1.112   .     S
C631   H636    1.110   .     S
C631   C1269   1.537   .     S
C631   C1271   1.527   .     S
C632   H635    1.111   .     S
C632   H634    1.111   .     S
C632   C1270   1.527   1_554 S
C632   H207    1.111   1_565 S
C640   O683    1.284   .     A
C640   C656    1.414   .     S
C640   O682    1.283   .     A
C641   C642    1.410   .     A
C641   C4      1.412   1_556 S
C641   C28     1.432   1_556 S
C642   C649    1.411   .     A
C642   C646    1.417   .     A
C643   C647    1.385   .     A
C644   C645    1.389   .     A
C644   C4      1.418   1_556 S
C644   C24     1.403   1_556 S
C645   C646    1.387   .     A
C645   H674    1.084   .     S
C646   H678    1.083   .     S
C647   C664    1.388   .     A
C647   H676    1.078   .     S
C648   C663    1.393   .     A
C648   H668    1.083   .     S
C648   C664    1.401   .     A
C649   C665    1.414   .     A
C649   C651    1.472   .     S
C650   H679    1.084   .     S
C650   C656    1.396   .     A
C650   C865    1.368   .     S
C651   O685    1.299   .     A
C651   O684    1.296   .     A
C652   C653    1.390   .     A
C652   H669    1.084   .     S
C652   C1076   1.368   1_545 S
C653   C654    1.393   .     A
C653   C661    1.407   .     S
C654   H670    1.085   .     S
C654   C1081   1.383   1_545 S
C655   C656    1.412   .     A
C655   C692    1.489   .     S
C655   C867    1.383   .     S
C657   N681    1.366   .     A
C657   H671    1.082   .     S
C657   C729    1.418   .     S
C658   H672    1.082   .     S
C658   N680    1.368   .     A
C658   C799    1.418   1_455 S
C659   H673    1.082   .     S
C659   N680    1.354   .     A
C659   C802    1.419   1_455 S
C660   C695    1.482   .     S
C660   N681    1.387   .     A
C660   C730    1.419   .     S
C661   O687    1.282   .     A
C661   O686    1.283   .     A
C662   O688    1.296   .     A
C662   C664    1.449   .     S
C662   O689    1.290   .     A
C665   C698    1.485   .     S
C665   C666    1.398   .     A
C666   C28     1.401   1_556 S
C666   H38     1.084   1_556 S
C667   C701    1.528   .     S
H675   C24     1.084   1_556 S
N680   Zn690   2.016   .     S
N681   Zn691   2.015   .     S
O682   Zn690   1.983   .     S
O683   Zn691   1.990   .     S
O684   Zn690   1.962   .     S
O685   Zn691   1.911   .     S
O686   Zn690   1.990   .     S
O687   Zn691   1.983   .     S
O688   Zn690   1.911   .     S
O689   Zn691   1.962   .     S
C692   O694    1.221   .     D
C692   H693    1.084   .     S
C695   O697    1.222   .     D
C695   H696    1.074   .     S
C698   H699    1.084   .     S
C698   O700    1.221   .     D
C701   H710    1.103   .     S
C701   H709    1.113   .     S
C702   H708    1.112   .     S
C702   H707    1.110   .     S
C702   C62     1.537   1_556 S
C702   C64     1.527   1_556 S
C703   H706    1.111   .     S
C703   H705    1.111   .     S
C703   H917    1.111   .     S
H704   C1129   1.111   1_545 S
C711   O754    1.284   .     A
C711   C727    1.414   .     S
C711   O753    1.283   .     A
C712   C713    1.410   .     A
C712   C75     1.412   1_556 S
C712   C99     1.432   1_556 S
C713   C720    1.411   .     A
C713   C717    1.417   .     A
C714   C718    1.385   .     A
C715   C716    1.389   .     A
C715   C75     1.418   1_556 S
C715   C95     1.403   1_556 S
C716   C717    1.387   .     A
C716   H745    1.084   .     S
C717   H749    1.083   .     S
C718   C735    1.388   .     A
C718   H747    1.078   .     S
C719   C734    1.393   .     A
C719   H739    1.083   .     S
C719   C735    1.401   .     A
C720   C736    1.414   .     A
C720   C722    1.472   .     S
C721   H750    1.084   .     S
C721   C727    1.396   .     A
C721   C936    1.368   .     S
C722   O756    1.299   .     A
C722   O755    1.296   .     A
C723   C724    1.390   .     A
C723   H740    1.084   .     S
C723   C1147   1.368   1_545 S
C724   C725    1.393   .     A
C724   C732    1.407   .     S
C725   H741    1.085   .     S
C725   C1152   1.383   1_545 S
C726   C727    1.412   .     A
C726   C763    1.489   .     S
C726   C938    1.383   .     S
C728   N752    1.366   .     A
C728   H742    1.082   .     S
C728   C800    1.418   .     S
C729   H743    1.082   .     S
C729   N751    1.368   .     A
C730   H744    1.082   .     S
C730   N751    1.354   .     A
C731   C766    1.482   .     S
C731   N752    1.387   .     A
C731   C801    1.419   .     S
C732   O758    1.282   .     A
C732   O757    1.283   .     A
C733   O759    1.296   .     A
C733   C735    1.449   .     S
C733   O760    1.290   .     A
C736   C769    1.485   .     S
C736   C737    1.398   .     A
C737   C99     1.401   1_556 S
C737   H109    1.084   1_556 S
C738   C772    1.528   .     S
H746   C95     1.084   1_556 S
N751   Zn761   2.016   .     S
N752   Zn762   2.015   .     S
O753   Zn761   1.983   .     S
O754   Zn762   1.990   .     S
O755   Zn761   1.962   .     S
O756   Zn762   1.911   .     S
O757   Zn761   1.990   .     S
O758   Zn762   1.983   .     S
O759   Zn761   1.911   .     S
O760   Zn762   1.962   .     S
C763   O765    1.221   .     D
C763   H764    1.084   .     S
C766   O768    1.222   .     D
C766   H767    1.074   .     S
C769   H770    1.084   .     S
C769   O771    1.221   .     D
C772   H781    1.103   .     S
C772   H780    1.113   .     S
C773   H779    1.112   .     S
C773   H778    1.110   .     S
C773   C133    1.537   1_556 S
C773   C135    1.527   1_556 S
C774   H777    1.111   .     S
C774   H776    1.111   .     S
C774   H988    1.111   .     S
H775   C1200   1.111   1_545 S
C782   O825    1.284   .     A
C782   C798    1.414   .     S
C782   O824    1.283   .     A
C783   C784    1.410   .     A
C783   C146    1.412   1_556 S
C783   C170    1.432   1_556 S
C784   C791    1.411   .     A
C784   C788    1.417   .     A
C785   C789    1.385   .     A
C786   C787    1.389   .     A
C786   C146    1.418   1_556 S
C786   C166    1.403   1_556 S
C787   C788    1.387   .     A
C787   H816    1.084   .     S
C788   H820    1.083   .     S
C789   C806    1.388   .     A
C789   H818    1.078   .     S
C790   C805    1.393   .     A
C790   H810    1.083   .     S
C790   C806    1.401   .     A
C791   C807    1.414   .     A
C791   C793    1.472   .     S
C792   H821    1.084   .     S
C792   C798    1.396   .     A
C792   C1007   1.368   .     S
C793   O827    1.299   .     A
C793   O826    1.296   .     A
C794   C795    1.390   .     A
C794   H811    1.084   .     S
C794   C1218   1.368   1_545 S
C795   C796    1.393   .     A
C795   C803    1.407   .     S
C796   H812    1.085   .     S
C796   C1223   1.383   1_545 S
C797   C798    1.412   .     A
C797   C834    1.489   .     S
C797   C1009   1.383   .     S
C799   N823    1.366   .     A
C799   H813    1.082   .     S
C799   C658    1.418   1_655 S
C800   H814    1.082   .     S
C800   N822    1.368   .     A
C801   H815    1.082   .     S
C801   N822    1.354   .     A
C802   C837    1.482   .     S
C802   N823    1.387   .     A
C802   C659    1.419   1_655 S
C803   O829    1.282   .     A
C803   O828    1.283   .     A
C804   O830    1.296   .     A
C804   C806    1.449   .     S
C804   O831    1.290   .     A
C807   C840    1.485   .     S
C807   C808    1.398   .     A
C808   C170    1.401   1_556 S
C808   H180    1.084   1_556 S
C809   C843    1.528   .     S
H817   C166    1.084   1_556 S
N822   Zn832   2.016   .     S
N823   Zn833   2.015   .     S
O824   Zn832   1.983   .     S
O825   Zn833   1.990   .     S
O826   Zn832   1.962   .     S
O827   Zn833   1.911   .     S
O828   Zn832   1.990   .     S
O829   Zn833   1.983   .     S
O830   Zn832   1.911   .     S
O831   Zn833   1.962   .     S
C834   O836    1.221   .     D
C834   H835    1.084   .     S
C837   O839    1.222   .     D
C837   H838    1.074   .     S
C840   H841    1.084   .     S
C840   O842    1.221   .     D
C843   H852    1.103   .     S
C843   H851    1.113   .     S
C844   H850    1.112   .     S
C844   H849    1.110   .     S
C844   C204    1.537   1_556 S
C844   C206    1.527   1_556 S
C845   H848    1.111   .     S
C845   H847    1.111   .     S
C845   H1059   1.111   .     S
H846   C1271   1.111   1_545 S
C853   O896    1.284   .     A
C853   C869    1.414   .     S
C853   O895    1.283   .     A
C854   C855    1.410   .     A
C854   C217    1.412   1_556 S
C854   C241    1.432   1_556 S
C855   C862    1.411   .     A
C855   C859    1.417   .     A
C856   C860    1.385   .     A
C857   C858    1.389   .     A
C857   C217    1.418   1_556 S
C857   C237    1.403   1_556 S
C858   C859    1.387   .     A
C858   H887    1.084   .     S
C859   H891    1.083   .     S
C860   C877    1.388   .     A
C860   H889    1.078   .     S
C861   C876    1.393   .     A
C861   H881    1.083   .     S
C861   C877    1.401   .     A
C862   C878    1.414   .     A
C862   C864    1.472   .     S
C863   H892    1.084   .     S
C863   C869    1.396   .     A
C863   C1078   1.368   .     S
C864   O898    1.299   .     A
C864   O897    1.296   .     A
C865   C866    1.390   .     A
C865   H882    1.084   .     S
C866   C867    1.393   .     A
C866   C874    1.407   .     S
C867   H883    1.085   .     S
C868   C869    1.412   .     A
C868   C905    1.489   .     S
C868   C1080   1.383   .     S
C870   N894    1.366   .     A
C870   H884    1.082   .     S
C870   C942    1.418   .     S
C871   H885    1.082   .     S
C871   N893    1.368   .     A
C871   C1012   1.418   1_455 S
C872   H886    1.082   .     S
C872   N893    1.354   .     A
C872   C1015   1.419   1_455 S
C873   C908    1.482   .     S
C873   N894    1.387   .     A
C873   C943    1.419   .     S
C874   O900    1.282   .     A
C874   O899    1.283   .     A
C875   O901    1.296   .     A
C875   C877    1.449   .     S
C875   O902    1.290   .     A
C878   C911    1.485   .     S
C878   C879    1.398   .     A
C879   C241    1.401   1_556 S
C879   H251    1.084   1_556 S
C880   C914    1.528   .     S
H888   C237    1.084   1_556 S
N893   Zn903   2.016   .     S
N894   Zn904   2.015   .     S
O895   Zn903   1.983   .     S
O896   Zn904   1.990   .     S
O897   Zn903   1.962   .     S
O898   Zn904   1.911   .     S
O899   Zn903   1.990   .     S
O900   Zn904   1.983   .     S
O901   Zn903   1.911   .     S
O902   Zn904   1.962   .     S
C905   O907    1.221   .     D
C905   H906    1.084   .     S
C908   O910    1.222   .     D
C908   H909    1.074   .     S
C911   H912    1.084   .     S
C911   O913    1.221   .     D
C914   H923    1.103   .     S
C914   H922    1.113   .     S
C915   H921    1.112   .     S
C915   H920    1.110   .     S
C915   C275    1.537   1_556 S
C915   C277    1.527   1_556 S
C916   H919    1.111   .     S
C916   H918    1.111   .     S
C916   H1130   1.111   .     S
C924   O967    1.284   .     A
C924   C940    1.414   .     S
C924   O966    1.283   .     A
C925   C926    1.410   .     A
C925   C288    1.412   1_556 S
C925   C312    1.432   1_556 S
C926   C933    1.411   .     A
C926   C930    1.417   .     A
C927   C931    1.385   .     A
C928   C929    1.389   .     A
C928   C288    1.418   1_556 S
C928   C308    1.403   1_556 S
C929   C930    1.387   .     A
C929   H958    1.084   .     S
C930   H962    1.083   .     S
C931   C948    1.388   .     A
C931   H960    1.078   .     S
C932   C947    1.393   .     A
C932   H952    1.083   .     S
C932   C948    1.401   .     A
C933   C949    1.414   .     A
C933   C935    1.472   .     S
C934   H963    1.084   .     S
C934   C940    1.396   .     A
C934   C1149   1.368   .     S
C935   O969    1.299   .     A
C935   O968    1.296   .     A
C936   C937    1.390   .     A
C936   H953    1.084   .     S
C937   C938    1.393   .     A
C937   C945    1.407   .     S
C938   H954    1.085   .     S
C939   C940    1.412   .     A
C939   C976    1.489   .     S
C939   C1151   1.383   .     S
C941   N965    1.366   .     A
C941   H955    1.082   .     S
C941   C1013   1.418   .     S
C942   H956    1.082   .     S
C942   N964    1.368   .     A
C943   H957    1.082   .     S
C943   N964    1.354   .     A
C944   C979    1.482   .     S
C944   N965    1.387   .     A
C944   C1014   1.419   .     S
C945   O971    1.282   .     A
C945   O970    1.283   .     A
C946   O972    1.296   .     A
C946   C948    1.449   .     S
C946   O973    1.290   .     A
C949   C982    1.485   .     S
C949   C950    1.398   .     A
C950   C312    1.401   1_556 S
C950   H322    1.084   1_556 S
C951   C985    1.528   .     S
H959   C308    1.084   1_556 S
N964   Zn974   2.016   .     S
N965   Zn975   2.015   .     S
O966   Zn974   1.983   .     S
O967   Zn975   1.990   .     S
O968   Zn974   1.962   .     S
O969   Zn975   1.911   .     S
O970   Zn974   1.990   .     S
O971   Zn975   1.983   .     S
O972   Zn974   1.911   .     S
O973   Zn975   1.962   .     S
C976   O978    1.221   .     D
C976   H977    1.084   .     S
C979   O981    1.222   .     D
C979   H980    1.074   .     S
C982   H983    1.084   .     S
C982   O984    1.221   .     D
C985   H994    1.103   .     S
C985   H993    1.113   .     S
C986   H992    1.112   .     S
C986   H991    1.110   .     S
C986   C346    1.537   1_556 S
C986   C348    1.527   1_556 S
C987   H990    1.111   .     S
C987   H989    1.111   .     S
C987   H1201   1.111   .     S
C995   O1038   1.284   .     A
C995   C1011   1.414   .     S
C995   O1037   1.283   .     A
C996   C997    1.410   .     A
C996   C359    1.412   1_556 S
C996   C383    1.432   1_556 S
C997   C1004   1.411   .     A
C997   C1001   1.417   .     A
C998   C1002   1.385   .     A
C999   C1000   1.389   .     A
C999   C359    1.418   1_556 S
C999   C379    1.403   1_556 S
C1000  C1001   1.387   .     A
C1000  H1029   1.084   .     S
C1001  H1033   1.083   .     S
C1002  C1019   1.388   .     A
C1002  H1031   1.078   .     S
C1003  C1018   1.393   .     A
C1003  H1023   1.083   .     S
C1003  C1019   1.401   .     A
C1004  C1020   1.414   .     A
C1004  C1006   1.472   .     S
C1005  H1034   1.084   .     S
C1005  C1011   1.396   .     A
C1005  C1220   1.368   .     S
C1006  O1040   1.299   .     A
C1006  O1039   1.296   .     A
C1007  C1008   1.390   .     A
C1007  H1024   1.084   .     S
C1008  C1009   1.393   .     A
C1008  C1016   1.407   .     S
C1009  H1025   1.085   .     S
C1010  C1011   1.412   .     A
C1010  C1047   1.489   .     S
C1010  C1222   1.383   .     S
C1012  N1036   1.366   .     A
C1012  H1026   1.082   .     S
C1012  C871    1.418   1_655 S
C1013  H1027   1.082   .     S
C1013  N1035   1.368   .     A
C1014  H1028   1.082   .     S
C1014  N1035   1.354   .     A
C1015  C1050   1.482   .     S
C1015  N1036   1.387   .     A
C1015  C872    1.419   1_655 S
C1016  O1042   1.282   .     A
C1016  O1041   1.283   .     A
C1017  O1043   1.296   .     A
C1017  C1019   1.449   .     S
C1017  O1044   1.290   .     A
C1020  C1053   1.485   .     S
C1020  C1021   1.398   .     A
C1021  C383    1.401   1_556 S
C1021  H393    1.084   1_556 S
C1022  C1056   1.528   .     S
H1030  C379    1.084   1_556 S
N1035  Zn1045  2.016   .     S
N1036  Zn1046  2.015   .     S
O1037  Zn1045  1.983   .     S
O1038  Zn1046  1.990   .     S
O1039  Zn1045  1.962   .     S
O1040  Zn1046  1.911   .     S
O1041  Zn1045  1.990   .     S
O1042  Zn1046  1.983   .     S
O1043  Zn1045  1.911   .     S
O1044  Zn1046  1.962   .     S
C1047  O1049   1.221   .     D
C1047  H1048   1.084   .     S
C1050  O1052   1.222   .     D
C1050  H1051   1.074   .     S
C1053  H1054   1.084   .     S
C1053  O1055   1.221   .     D
C1056  H1065   1.103   .     S
C1056  H1064   1.113   .     S
C1057  H1063   1.112   .     S
C1057  H1062   1.110   .     S
C1057  C417    1.537   1_556 S
C1057  C419    1.527   1_556 S
C1058  H1061   1.111   .     S
C1058  H1060   1.111   .     S
C1058  H1272   1.111   .     S
C1066  O1109   1.284   .     A
C1066  C1082   1.414   .     S
C1066  O1108   1.283   .     A
C1067  C1068   1.410   .     A
C1067  C430    1.412   1_556 S
C1067  C454    1.432   1_556 S
C1068  C1075   1.411   .     A
C1068  C1072   1.417   .     A
C1069  C1073   1.385   .     A
C1070  C1071   1.389   .     A
C1070  C430    1.418   1_556 S
C1070  C450    1.403   1_556 S
C1071  C1072   1.387   .     A
C1071  H1100   1.084   .     S
C1072  H1104   1.083   .     S
C1073  C1090   1.388   .     A
C1073  H1102   1.078   .     S
C1074  C1089   1.393   .     A
C1074  H1094   1.083   .     S
C1074  C1090   1.401   .     A
C1075  C1091   1.414   .     A
C1075  C1077   1.472   .     S
C1076  H1105   1.084   .     S
C1076  C1082   1.396   .     A
C1076  C652    1.368   1_565 S
C1077  O1111   1.299   .     A
C1077  O1110   1.296   .     A
C1078  C1079   1.390   .     A
C1078  H1095   1.084   .     S
C1079  C1080   1.393   .     A
C1079  C1087   1.407   .     S
C1080  H1096   1.085   .     S
C1081  C1082   1.412   .     A
C1081  C1118   1.489   .     S
C1081  C654    1.383   1_565 S
C1083  N1107   1.366   .     A
C1083  H1097   1.082   .     S
C1083  C1155   1.418   .     S
C1084  H1098   1.082   .     S
C1084  N1106   1.368   .     A
C1084  C1225   1.418   1_455 S
C1085  H1099   1.082   .     S
C1085  N1106   1.354   .     A
C1085  C1228   1.419   1_455 S
C1086  C1121   1.482   .     S
C1086  N1107   1.387   .     A
C1086  C1156   1.419   .     S
C1087  O1113   1.282   .     A
C1087  O1112   1.283   .     A
C1088  O1114   1.296   .     A
C1088  C1090   1.449   .     S
C1088  O1115   1.290   .     A
C1091  C1124   1.485   .     S
C1091  C1092   1.398   .     A
C1092  C454    1.401   1_556 S
C1092  H464    1.084   1_556 S
C1093  C1127   1.528   .     S
H1101  C450    1.084   1_556 S
N1106  Zn1116  2.016   .     S
N1107  Zn1117  2.015   .     S
O1108  Zn1116  1.983   .     S
O1109  Zn1117  1.990   .     S
O1110  Zn1116  1.962   .     S
O1111  Zn1117  1.911   .     S
O1112  Zn1116  1.990   .     S
O1113  Zn1117  1.983   .     S
O1114  Zn1116  1.911   .     S
O1115  Zn1117  1.962   .     S
C1118  O1120   1.221   .     D
C1118  H1119   1.084   .     S
C1121  O1123   1.222   .     D
C1121  H1122   1.074   .     S
C1124  H1125   1.084   .     S
C1124  O1126   1.221   .     D
C1127  H1136   1.103   .     S
C1127  H1135   1.113   .     S
C1128  H1134   1.112   .     S
C1128  H1133   1.110   .     S
C1128  C488    1.537   1_556 S
C1128  C490    1.527   1_556 S
C1129  H1132   1.111   .     S
C1129  H1131   1.111   .     S
C1129  H704    1.111   1_565 S
C1137  O1180   1.284   .     A
C1137  C1153   1.414   .     S
C1137  O1179   1.283   .     A
C1138  C1139   1.410   .     A
C1138  C501    1.412   1_556 S
C1138  C525    1.432   1_556 S
C1139  C1146   1.411   .     A
C1139  C1143   1.417   .     A
C1140  C1144   1.385   .     A
C1141  C1142   1.389   .     A
C1141  C501    1.418   1_556 S
C1141  C521    1.403   1_556 S
C1142  C1143   1.387   .     A
C1142  H1171   1.084   .     S
C1143  H1175   1.083   .     S
C1144  C1161   1.388   .     A
C1144  H1173   1.078   .     S
C1145  C1160   1.393   .     A
C1145  H1165   1.083   .     S
C1145  C1161   1.401   .     A
C1146  C1162   1.414   .     A
C1146  C1148   1.472   .     S
C1147  H1176   1.084   .     S
C1147  C1153   1.396   .     A
C1147  C723    1.368   1_565 S
C1148  O1182   1.299   .     A
C1148  O1181   1.296   .     A
C1149  C1150   1.390   .     A
C1149  H1166   1.084   .     S
C1150  C1151   1.393   .     A
C1150  C1158   1.407   .     S
C1151  H1167   1.085   .     S
C1152  C1153   1.412   .     A
C1152  C1189   1.489   .     S
C1152  C725    1.383   1_565 S
C1154  N1178   1.366   .     A
C1154  H1168   1.082   .     S
C1154  C1226   1.418   .     S
C1155  H1169   1.082   .     S
C1155  N1177   1.368   .     A
C1156  H1170   1.082   .     S
C1156  N1177   1.354   .     A
C1157  C1192   1.482   .     S
C1157  N1178   1.387   .     A
C1157  C1227   1.419   .     S
C1158  O1184   1.282   .     A
C1158  O1183   1.283   .     A
C1159  O1185   1.296   .     A
C1159  C1161   1.449   .     S
C1159  O1186   1.290   .     A
C1162  C1195   1.485   .     S
C1162  C1163   1.398   .     A
C1163  C525    1.401   1_556 S
C1163  H535    1.084   1_556 S
C1164  C1198   1.528   .     S
H1172  C521    1.084   1_556 S
N1177  Zn1187  2.016   .     S
N1178  Zn1188  2.015   .     S
O1179  Zn1187  1.983   .     S
O1180  Zn1188  1.990   .     S
O1181  Zn1187  1.962   .     S
O1182  Zn1188  1.911   .     S
O1183  Zn1187  1.990   .     S
O1184  Zn1188  1.983   .     S
O1185  Zn1187  1.911   .     S
O1186  Zn1188  1.962   .     S
C1189  O1191   1.221   .     D
C1189  H1190   1.084   .     S
C1192  O1194   1.222   .     D
C1192  H1193   1.074   .     S
C1195  H1196   1.084   .     S
C1195  O1197   1.221   .     D
C1198  H1207   1.103   .     S
C1198  H1206   1.113   .     S
C1199  H1205   1.112   .     S
C1199  H1204   1.110   .     S
C1199  C559    1.537   1_556 S
C1199  C561    1.527   1_556 S
C1200  H1203   1.111   .     S
C1200  H1202   1.111   .     S
C1200  H775    1.111   1_565 S
C1208  O1251   1.284   .     A
C1208  C1224   1.414   .     S
C1208  O1250   1.283   .     A
C1209  C1210   1.410   .     A
C1209  C572    1.412   1_556 S
C1209  C596    1.432   1_556 S
C1210  C1217   1.411   .     A
C1210  C1214   1.417   .     A
C1211  C1215   1.385   .     A
C1212  C1213   1.389   .     A
C1212  C572    1.418   1_556 S
C1212  C592    1.403   1_556 S
C1213  C1214   1.387   .     A
C1213  H1242   1.084   .     S
C1214  H1246   1.083   .     S
C1215  C1232   1.388   .     A
C1215  H1244   1.078   .     S
C1216  C1231   1.393   .     A
C1216  H1236   1.083   .     S
C1216  C1232   1.401   .     A
C1217  C1233   1.414   .     A
C1217  C1219   1.472   .     S
C1218  H1247   1.084   .     S
C1218  C1224   1.396   .     A
C1218  C794    1.368   1_565 S
C1219  O1253   1.299   .     A
C1219  O1252   1.296   .     A
C1220  C1221   1.390   .     A
C1220  H1237   1.084   .     S
C1221  C1222   1.393   .     A
C1221  C1229   1.407   .     S
C1222  H1238   1.085   .     S
C1223  C1224   1.412   .     A
C1223  C1260   1.489   .     S
C1223  C796    1.383   1_565 S
C1225  N1249   1.366   .     A
C1225  H1239   1.082   .     S
C1225  C1084   1.418   1_655 S
C1226  H1240   1.082   .     S
C1226  N1248   1.368   .     A
C1227  H1241   1.082   .     S
C1227  N1248   1.354   .     A
C1228  C1263   1.482   .     S
C1228  N1249   1.387   .     A
C1228  C1085   1.419   1_655 S
C1229  O1255   1.282   .     A
C1229  O1254   1.283   .     A
C1230  O1256   1.296   .     A
C1230  C1232   1.449   .     S
C1230  O1257   1.290   .     A
C1233  C1266   1.485   .     S
C1233  C1234   1.398   .     A
C1234  C596    1.401   1_556 S
C1234  H606    1.084   1_556 S
C1235  C1269   1.528   .     S
H1243  C592    1.084   1_556 S
N1248  Zn1258  2.016   .     S
N1249  Zn1259  2.015   .     S
O1250  Zn1258  1.983   .     S
O1251  Zn1259  1.990   .     S
O1252  Zn1258  1.962   .     S
O1253  Zn1259  1.911   .     S
O1254  Zn1258  1.990   .     S
O1255  Zn1259  1.983   .     S
O1256  Zn1258  1.911   .     S
O1257  Zn1259  1.962   .     S
C1260  O1262   1.221   .     D
C1260  H1261   1.084   .     S
C1263  O1265   1.222   .     D
C1263  H1264   1.074   .     S
C1266  H1267   1.084   .     S
C1266  O1268   1.221   .     D
C1269  H1278   1.103   .     S
C1269  H1277   1.113   .     S
C1270  H1276   1.112   .     S
C1270  H1275   1.110   .     S
C1270  C630    1.537   1_556 S
C1270  C632    1.527   1_556 S
C1271  H1274   1.111   .     S
C1271  H1273   1.111   .     S
C1271  H846    1.111   1_565 S
