data_str_m3_o10_o18_pcu_sym.4
_audit_creation_date              2020-01-03
_audit_creation_method            'Materials Studio'
_symmetry_space_group_name_H-M    'P1'
_symmetry_Int_Tables_number       1
_symmetry_cell_setting            triclinic
loop_
_symmetry_equiv_pos_as_xyz
  x,y,z
_cell_length_a                    23.4096
_cell_length_b                    25.7257
_cell_length_c                    28.3378
_cell_angle_alpha                 93.2105
_cell_angle_beta                  95.0607
_cell_angle_gamma                 93.9620
loop_
_atom_site_label
_atom_site_type_symbol
_atom_site_fract_x
_atom_site_fract_y
_atom_site_fract_z
_atom_site_U_iso_or_equiv
_atom_site_adp_type
_atom_site_occupancy
C1     C     0.01501   0.26488   0.24879   0.00000  Uiso   1.00
C2     C     0.31014   0.15813   0.15987   0.00000  Uiso   1.00
C3     C     0.03902   0.18955   0.39040   0.00000  Uiso   1.00
C4     C     0.29431   0.14378   0.10960   0.00000  Uiso   1.00
C5     C     0.01523   0.21704   0.46889   0.00000  Uiso   1.00
C6     C     0.31810   0.11630   0.03111   0.00000  Uiso   1.00
C7     C     0.33150   0.20459   0.42089   0.00000  Uiso   1.00
C8     C     0.00183   0.12875   0.07912   0.00000  Uiso   1.00
C9     C     0.09708   0.19057   0.40825   0.00000  Uiso   1.00
C10    C     0.23626   0.14277   0.09175   0.00000  Uiso   1.00
C11    C     0.10924   0.18632   0.45677   0.00000  Uiso   1.00
C12    C     0.31833   0.06845   0.25121   0.00000  Uiso   1.00
C13    C     0.22409   0.14701   0.04323   0.00000  Uiso   1.00
C14    C     0.07039   0.20617   0.48741   0.00000  Uiso   1.00
C15    C     0.26295   0.12716   0.01259   0.00000  Uiso   1.00
C16    C     0.15923   0.16407   0.47535   0.00000  Uiso   1.00
C17    C     0.17410   0.16926   0.02465   0.00000  Uiso   1.00
C18    C     0.18879   0.12125   0.12012   0.00000  Uiso   1.00
C19    C     0.14455   0.21209   0.37988   0.00000  Uiso   1.00
C20    C     0.14033   0.19887   0.05362   0.00000  Uiso   1.00
C21    C     0.19301   0.13446   0.44638   0.00000  Uiso   1.00
C22    C     0.08774   0.21500   0.03558   0.00000  Uiso   1.00
C23    C     0.24559   0.11833   0.46443   0.00000  Uiso   1.00
C24    C     0.02286   0.31940   0.24811   0.00000  Uiso   1.00
C25    C     0.31047   0.01394   0.25189   0.00000  Uiso   1.00
C26    C     0.02320   0.17520   0.34013   0.00000  Uiso   1.00
H27    H     0.06067   0.23409   0.05926   0.00000  Uiso   1.00
H28    H     0.26735   0.33025   0.25549   0.00000  Uiso   1.00
H29    H     0.16220   0.12159   0.21854   0.00000  Uiso   1.00
H30    H     0.17113   0.21175   0.28146   0.00000  Uiso   1.00
H31    H     0.17336   0.15234   0.14330   0.00000  Uiso   1.00
H32    H     0.15153   0.10313   0.09642   0.00000  Uiso   1.00
H33    H     0.20455   0.08990   0.14219   0.00000  Uiso   1.00
H34    H     0.18180   0.23021   0.40358   0.00000  Uiso   1.00
H35    H     0.15997   0.18099   0.35670   0.00000  Uiso   1.00
H36    H     0.12879   0.24344   0.35781   0.00000  Uiso   1.00
H37    H     0.27267   0.09925   0.44074   0.00000  Uiso   1.00
H38    H     0.04603   0.12512   0.09254   0.00000  Uiso   1.00
H39    H     0.28731   0.20822   0.40746   0.00000  Uiso   1.00
H40    H     0.31777   0.23143   0.49189   0.00000  Uiso   1.00
H41    H     0.01556   0.10190   0.00811   0.00000  Uiso   1.00
H42    H     0.15385   0.20960   0.09044   0.00000  Uiso   1.00
H43    H     0.17948   0.12373   0.40956   0.00000  Uiso   1.00
H44    H     0.06598   0.00308   0.24451   0.00000  Uiso   1.00
N45    N     0.14695   0.15216   0.23740   0.00000  Uiso   1.00
N46    N     0.18638   0.18117   0.26261   0.00000  Uiso   1.00
O47    O     0.29719   0.24631   0.25310   0.00000  Uiso   1.00
O48    O     0.03614   0.08702   0.24691   0.00000  Uiso   1.00
O49    O     0.05822   0.23702   0.24502   0.00000  Uiso   1.00
O50    O     0.27512   0.09632   0.25499   0.00000  Uiso   1.00
O51    O     0.30328   0.17397   0.32247   0.00000  Uiso   1.00
O52    O     0.03005   0.15937   0.17753   0.00000  Uiso   1.00
O53    O     0.06431   0.16467   0.31439   0.00000  Uiso   1.00
O54    O     0.26902   0.16866   0.18561   0.00000  Uiso   1.00
Zn55   Zn    0.27033   0.17287   0.25540   0.00000  Uiso   1.00
Zn56   Zn    0.06300   0.16046   0.24461   0.00000  Uiso   1.00
C57    C     0.34834   0.26488   0.24879   0.00000  Uiso   1.00
C58    C     0.64347   0.15813   0.15987   0.00000  Uiso   1.00
C59    C     0.37236   0.18955   0.39040   0.00000  Uiso   1.00
C60    C     0.62764   0.14378   0.10960   0.00000  Uiso   1.00
C61    C     0.34857   0.21704   0.46889   0.00000  Uiso   1.00
C62    C     0.65143   0.11630   0.03111   0.00000  Uiso   1.00
C63    C     0.66483   0.20459   0.42089   0.00000  Uiso   1.00
C64    C     0.33517   0.12875   0.07912   0.00000  Uiso   1.00
C65    C     0.43041   0.19057   0.40825   0.00000  Uiso   1.00
C66    C     0.56959   0.14277   0.09175   0.00000  Uiso   1.00
C67    C     0.44257   0.18632   0.45677   0.00000  Uiso   1.00
C68    C     0.65166   0.06845   0.25121   0.00000  Uiso   1.00
C69    C     0.55743   0.14701   0.04323   0.00000  Uiso   1.00
C70    C     0.40372   0.20617   0.48741   0.00000  Uiso   1.00
C71    C     0.59628   0.12716   0.01259   0.00000  Uiso   1.00
C72    C     0.49257   0.16407   0.47535   0.00000  Uiso   1.00
C73    C     0.50743   0.16926   0.02465   0.00000  Uiso   1.00
C74    C     0.52212   0.12125   0.12012   0.00000  Uiso   1.00
C75    C     0.47788   0.21209   0.37988   0.00000  Uiso   1.00
C76    C     0.47366   0.19887   0.05362   0.00000  Uiso   1.00
C77    C     0.52634   0.13446   0.44638   0.00000  Uiso   1.00
C78    C     0.42108   0.21500   0.03558   0.00000  Uiso   1.00
C79    C     0.57892   0.11833   0.46443   0.00000  Uiso   1.00
C80    C     0.35619   0.31940   0.24811   0.00000  Uiso   1.00
C81    C     0.64381   0.01394   0.25189   0.00000  Uiso   1.00
C82    C     0.35653   0.17520   0.34013   0.00000  Uiso   1.00
H83    H     0.39400   0.23409   0.05926   0.00000  Uiso   1.00
H84    H     0.60068   0.33025   0.25549   0.00000  Uiso   1.00
H85    H     0.49554   0.12159   0.21854   0.00000  Uiso   1.00
H86    H     0.50446   0.21175   0.28146   0.00000  Uiso   1.00
H87    H     0.50670   0.15234   0.14330   0.00000  Uiso   1.00
H88    H     0.48486   0.10313   0.09642   0.00000  Uiso   1.00
H89    H     0.53788   0.08990   0.14219   0.00000  Uiso   1.00
H90    H     0.51514   0.23021   0.40358   0.00000  Uiso   1.00
H91    H     0.49330   0.18099   0.35670   0.00000  Uiso   1.00
H92    H     0.46212   0.24344   0.35781   0.00000  Uiso   1.00
H93    H     0.60600   0.09925   0.44074   0.00000  Uiso   1.00
H94    H     0.37936   0.12512   0.09254   0.00000  Uiso   1.00
H95    H     0.62064   0.20822   0.40746   0.00000  Uiso   1.00
H96    H     0.65111   0.23143   0.49189   0.00000  Uiso   1.00
H97    H     0.34889   0.10190   0.00811   0.00000  Uiso   1.00
H98    H     0.48719   0.20960   0.09044   0.00000  Uiso   1.00
H99    H     0.51281   0.12373   0.40956   0.00000  Uiso   1.00
H100   H     0.39932   0.00308   0.24451   0.00000  Uiso   1.00
N101   N     0.48029   0.15216   0.23740   0.00000  Uiso   1.00
N102   N     0.51971   0.18117   0.26261   0.00000  Uiso   1.00
O103   O     0.63052   0.24631   0.25310   0.00000  Uiso   1.00
O104   O     0.36948   0.08702   0.24691   0.00000  Uiso   1.00
O105   O     0.39155   0.23702   0.24502   0.00000  Uiso   1.00
O106   O     0.60845   0.09632   0.25499   0.00000  Uiso   1.00
O107   O     0.63662   0.17397   0.32247   0.00000  Uiso   1.00
O108   O     0.36338   0.15937   0.17753   0.00000  Uiso   1.00
O109   O     0.39764   0.16467   0.31439   0.00000  Uiso   1.00
O110   O     0.60236   0.16866   0.18561   0.00000  Uiso   1.00
Zn111  Zn    0.60366   0.17287   0.25540   0.00000  Uiso   1.00
Zn112  Zn    0.39634   0.16046   0.24461   0.00000  Uiso   1.00
C113   C     0.68167   0.26488   0.24879   0.00000  Uiso   1.00
C114   C     0.97680   0.15813   0.15987   0.00000  Uiso   1.00
C115   C     0.70569   0.18955   0.39040   0.00000  Uiso   1.00
C116   C     0.96098   0.14378   0.10960   0.00000  Uiso   1.00
C117   C     0.68190   0.21704   0.46889   0.00000  Uiso   1.00
C118   C     0.98477   0.11630   0.03111   0.00000  Uiso   1.00
C119   C     0.99817   0.20459   0.42089   0.00000  Uiso   1.00
C120   C     0.66850   0.12875   0.07912   0.00000  Uiso   1.00
C121   C     0.76374   0.19057   0.40825   0.00000  Uiso   1.00
C122   C     0.90292   0.14277   0.09175   0.00000  Uiso   1.00
C123   C     0.77591   0.18632   0.45677   0.00000  Uiso   1.00
C124   C     0.98499   0.06845   0.25121   0.00000  Uiso   1.00
C125   C     0.89076   0.14701   0.04323   0.00000  Uiso   1.00
C126   C     0.73705   0.20617   0.48741   0.00000  Uiso   1.00
C127   C     0.92961   0.12716   0.01259   0.00000  Uiso   1.00
C128   C     0.82590   0.16407   0.47535   0.00000  Uiso   1.00
C129   C     0.84076   0.16926   0.02465   0.00000  Uiso   1.00
C130   C     0.85545   0.12125   0.12012   0.00000  Uiso   1.00
C131   C     0.81121   0.21209   0.37988   0.00000  Uiso   1.00
C132   C     0.80699   0.19887   0.05362   0.00000  Uiso   1.00
C133   C     0.85967   0.13446   0.44638   0.00000  Uiso   1.00
C134   C     0.75441   0.21500   0.03558   0.00000  Uiso   1.00
C135   C     0.91226   0.11833   0.46443   0.00000  Uiso   1.00
C136   C     0.68953   0.31940   0.24811   0.00000  Uiso   1.00
C137   C     0.97714   0.01394   0.25189   0.00000  Uiso   1.00
C138   C     0.68986   0.17520   0.34013   0.00000  Uiso   1.00
H139   H     0.72733   0.23409   0.05926   0.00000  Uiso   1.00
H140   H     0.93402   0.33025   0.25549   0.00000  Uiso   1.00
H141   H     0.82887   0.12159   0.21854   0.00000  Uiso   1.00
H142   H     0.83780   0.21175   0.28146   0.00000  Uiso   1.00
H143   H     0.84003   0.15234   0.14330   0.00000  Uiso   1.00
H144   H     0.81820   0.10313   0.09642   0.00000  Uiso   1.00
H145   H     0.87121   0.08990   0.14219   0.00000  Uiso   1.00
H146   H     0.84847   0.23021   0.40358   0.00000  Uiso   1.00
H147   H     0.82664   0.18099   0.35670   0.00000  Uiso   1.00
H148   H     0.79545   0.24344   0.35781   0.00000  Uiso   1.00
H149   H     0.93933   0.09925   0.44074   0.00000  Uiso   1.00
H150   H     0.71269   0.12512   0.09254   0.00000  Uiso   1.00
H151   H     0.95397   0.20822   0.40746   0.00000  Uiso   1.00
H152   H     0.98444   0.23143   0.49189   0.00000  Uiso   1.00
H153   H     0.68223   0.10190   0.00811   0.00000  Uiso   1.00
H154   H     0.82052   0.20960   0.09044   0.00000  Uiso   1.00
H155   H     0.84615   0.12373   0.40956   0.00000  Uiso   1.00
H156   H     0.73265   0.00308   0.24451   0.00000  Uiso   1.00
N157   N     0.81362   0.15216   0.23740   0.00000  Uiso   1.00
N158   N     0.85305   0.18117   0.26261   0.00000  Uiso   1.00
O159   O     0.96386   0.24631   0.25310   0.00000  Uiso   1.00
O160   O     0.70281   0.08702   0.24691   0.00000  Uiso   1.00
O161   O     0.72488   0.23702   0.24502   0.00000  Uiso   1.00
O162   O     0.94178   0.09632   0.25499   0.00000  Uiso   1.00
O163   O     0.96995   0.17397   0.32247   0.00000  Uiso   1.00
O164   O     0.69672   0.15937   0.17753   0.00000  Uiso   1.00
O165   O     0.73098   0.16467   0.31439   0.00000  Uiso   1.00
O166   O     0.93569   0.16866   0.18561   0.00000  Uiso   1.00
Zn167  Zn    0.93700   0.17287   0.25540   0.00000  Uiso   1.00
Zn168  Zn    0.72967   0.16046   0.24461   0.00000  Uiso   1.00
C169   C     0.01501   0.59821   0.24879   0.00000  Uiso   1.00
C170   C     0.31014   0.49146   0.15987   0.00000  Uiso   1.00
C171   C     0.03902   0.52288   0.39040   0.00000  Uiso   1.00
C172   C     0.29431   0.47712   0.10960   0.00000  Uiso   1.00
C173   C     0.01523   0.55037   0.46889   0.00000  Uiso   1.00
C174   C     0.31810   0.44963   0.03111   0.00000  Uiso   1.00
C175   C     0.33150   0.53792   0.42089   0.00000  Uiso   1.00
C176   C     0.00183   0.46208   0.07912   0.00000  Uiso   1.00
C177   C     0.09708   0.52390   0.40825   0.00000  Uiso   1.00
C178   C     0.23626   0.47610   0.09175   0.00000  Uiso   1.00
C179   C     0.10924   0.51966   0.45677   0.00000  Uiso   1.00
C180   C     0.31833   0.40179   0.25121   0.00000  Uiso   1.00
C181   C     0.22409   0.48034   0.04323   0.00000  Uiso   1.00
C182   C     0.07039   0.53951   0.48741   0.00000  Uiso   1.00
C183   C     0.26295   0.46049   0.01259   0.00000  Uiso   1.00
C184   C     0.15923   0.49740   0.47535   0.00000  Uiso   1.00
C185   C     0.17410   0.50260   0.02465   0.00000  Uiso   1.00
C186   C     0.18879   0.45458   0.12012   0.00000  Uiso   1.00
C187   C     0.14455   0.54542   0.37988   0.00000  Uiso   1.00
C188   C     0.14033   0.53221   0.05362   0.00000  Uiso   1.00
C189   C     0.19301   0.46779   0.44638   0.00000  Uiso   1.00
C190   C     0.08774   0.54833   0.03558   0.00000  Uiso   1.00
C191   C     0.24559   0.45167   0.46443   0.00000  Uiso   1.00
C192   C     0.02286   0.65273   0.24811   0.00000  Uiso   1.00
C193   C     0.31047   0.34727   0.25189   0.00000  Uiso   1.00
C194   C     0.02320   0.50854   0.34013   0.00000  Uiso   1.00
H195   H     0.06067   0.56742   0.05926   0.00000  Uiso   1.00
H196   H     0.26735   0.66358   0.25549   0.00000  Uiso   1.00
H197   H     0.16220   0.45492   0.21854   0.00000  Uiso   1.00
H198   H     0.17113   0.54508   0.28146   0.00000  Uiso   1.00
H199   H     0.17336   0.48568   0.14330   0.00000  Uiso   1.00
H200   H     0.15153   0.43646   0.09642   0.00000  Uiso   1.00
H201   H     0.20455   0.42323   0.14219   0.00000  Uiso   1.00
H202   H     0.18180   0.56354   0.40358   0.00000  Uiso   1.00
H203   H     0.15997   0.51432   0.35670   0.00000  Uiso   1.00
H204   H     0.12879   0.57677   0.35781   0.00000  Uiso   1.00
H205   H     0.27267   0.43258   0.44074   0.00000  Uiso   1.00
H206   H     0.04603   0.45845   0.09254   0.00000  Uiso   1.00
H207   H     0.28731   0.54155   0.40746   0.00000  Uiso   1.00
H208   H     0.31777   0.56476   0.49189   0.00000  Uiso   1.00
H209   H     0.01556   0.43524   0.00811   0.00000  Uiso   1.00
H210   H     0.15385   0.54294   0.09044   0.00000  Uiso   1.00
H211   H     0.17948   0.45706   0.40956   0.00000  Uiso   1.00
H212   H     0.06598   0.33642   0.24451   0.00000  Uiso   1.00
N213   N     0.14695   0.48550   0.23740   0.00000  Uiso   1.00
N214   N     0.18638   0.51450   0.26261   0.00000  Uiso   1.00
O215   O     0.29719   0.57964   0.25310   0.00000  Uiso   1.00
O216   O     0.03614   0.42036   0.24691   0.00000  Uiso   1.00
O217   O     0.05822   0.57035   0.24502   0.00000  Uiso   1.00
O218   O     0.27512   0.42965   0.25499   0.00000  Uiso   1.00
O219   O     0.30328   0.50730   0.32247   0.00000  Uiso   1.00
O220   O     0.03005   0.49270   0.17753   0.00000  Uiso   1.00
O221   O     0.06431   0.49801   0.31439   0.00000  Uiso   1.00
O222   O     0.26902   0.50199   0.18561   0.00000  Uiso   1.00
Zn223  Zn    0.27033   0.50621   0.25540   0.00000  Uiso   1.00
Zn224  Zn    0.06300   0.49379   0.24461   0.00000  Uiso   1.00
C225   C     0.34834   0.59821   0.24879   0.00000  Uiso   1.00
C226   C     0.64347   0.49146   0.15987   0.00000  Uiso   1.00
C227   C     0.37236   0.52288   0.39040   0.00000  Uiso   1.00
C228   C     0.62764   0.47712   0.10960   0.00000  Uiso   1.00
C229   C     0.34857   0.55037   0.46889   0.00000  Uiso   1.00
C230   C     0.65143   0.44963   0.03111   0.00000  Uiso   1.00
C231   C     0.66483   0.53792   0.42089   0.00000  Uiso   1.00
C232   C     0.33517   0.46208   0.07912   0.00000  Uiso   1.00
C233   C     0.43041   0.52390   0.40825   0.00000  Uiso   1.00
C234   C     0.56959   0.47610   0.09175   0.00000  Uiso   1.00
C235   C     0.44257   0.51966   0.45677   0.00000  Uiso   1.00
C236   C     0.65166   0.40179   0.25121   0.00000  Uiso   1.00
C237   C     0.55743   0.48034   0.04323   0.00000  Uiso   1.00
C238   C     0.40372   0.53951   0.48741   0.00000  Uiso   1.00
C239   C     0.59628   0.46049   0.01259   0.00000  Uiso   1.00
C240   C     0.49257   0.49740   0.47535   0.00000  Uiso   1.00
C241   C     0.50743   0.50260   0.02465   0.00000  Uiso   1.00
C242   C     0.52212   0.45458   0.12012   0.00000  Uiso   1.00
C243   C     0.47788   0.54542   0.37988   0.00000  Uiso   1.00
C244   C     0.47366   0.53221   0.05362   0.00000  Uiso   1.00
C245   C     0.52634   0.46779   0.44638   0.00000  Uiso   1.00
C246   C     0.42108   0.54833   0.03558   0.00000  Uiso   1.00
C247   C     0.57892   0.45167   0.46443   0.00000  Uiso   1.00
C248   C     0.35619   0.65273   0.24811   0.00000  Uiso   1.00
C249   C     0.64381   0.34727   0.25189   0.00000  Uiso   1.00
C250   C     0.35653   0.50854   0.34013   0.00000  Uiso   1.00
H251   H     0.39400   0.56742   0.05926   0.00000  Uiso   1.00
H252   H     0.60068   0.66358   0.25549   0.00000  Uiso   1.00
H253   H     0.49554   0.45492   0.21854   0.00000  Uiso   1.00
H254   H     0.50446   0.54508   0.28146   0.00000  Uiso   1.00
H255   H     0.50670   0.48568   0.14330   0.00000  Uiso   1.00
H256   H     0.48486   0.43646   0.09642   0.00000  Uiso   1.00
H257   H     0.53788   0.42323   0.14219   0.00000  Uiso   1.00
H258   H     0.51514   0.56354   0.40358   0.00000  Uiso   1.00
H259   H     0.49330   0.51432   0.35670   0.00000  Uiso   1.00
H260   H     0.46212   0.57677   0.35781   0.00000  Uiso   1.00
H261   H     0.60600   0.43258   0.44074   0.00000  Uiso   1.00
H262   H     0.37936   0.45845   0.09254   0.00000  Uiso   1.00
H263   H     0.62064   0.54155   0.40746   0.00000  Uiso   1.00
H264   H     0.65111   0.56476   0.49189   0.00000  Uiso   1.00
H265   H     0.34889   0.43524   0.00811   0.00000  Uiso   1.00
H266   H     0.48719   0.54294   0.09044   0.00000  Uiso   1.00
H267   H     0.51281   0.45706   0.40956   0.00000  Uiso   1.00
H268   H     0.39932   0.33642   0.24451   0.00000  Uiso   1.00
N269   N     0.48029   0.48550   0.23740   0.00000  Uiso   1.00
N270   N     0.51971   0.51450   0.26261   0.00000  Uiso   1.00
O271   O     0.63052   0.57964   0.25310   0.00000  Uiso   1.00
O272   O     0.36948   0.42036   0.24691   0.00000  Uiso   1.00
O273   O     0.39155   0.57035   0.24502   0.00000  Uiso   1.00
O274   O     0.60845   0.42965   0.25499   0.00000  Uiso   1.00
O275   O     0.63662   0.50730   0.32247   0.00000  Uiso   1.00
O276   O     0.36338   0.49270   0.17753   0.00000  Uiso   1.00
O277   O     0.39764   0.49801   0.31439   0.00000  Uiso   1.00
O278   O     0.60236   0.50199   0.18561   0.00000  Uiso   1.00
Zn279  Zn    0.60366   0.50621   0.25540   0.00000  Uiso   1.00
Zn280  Zn    0.39634   0.49379   0.24461   0.00000  Uiso   1.00
C281   C     0.68167   0.59821   0.24879   0.00000  Uiso   1.00
C282   C     0.97680   0.49146   0.15987   0.00000  Uiso   1.00
C283   C     0.70569   0.52288   0.39040   0.00000  Uiso   1.00
C284   C     0.96098   0.47712   0.10960   0.00000  Uiso   1.00
C285   C     0.68190   0.55037   0.46889   0.00000  Uiso   1.00
C286   C     0.98477   0.44963   0.03111   0.00000  Uiso   1.00
C287   C     0.99817   0.53792   0.42089   0.00000  Uiso   1.00
C288   C     0.66850   0.46208   0.07912   0.00000  Uiso   1.00
C289   C     0.76374   0.52390   0.40825   0.00000  Uiso   1.00
C290   C     0.90292   0.47610   0.09175   0.00000  Uiso   1.00
C291   C     0.77591   0.51966   0.45677   0.00000  Uiso   1.00
C292   C     0.98499   0.40179   0.25121   0.00000  Uiso   1.00
C293   C     0.89076   0.48034   0.04323   0.00000  Uiso   1.00
C294   C     0.73705   0.53951   0.48741   0.00000  Uiso   1.00
C295   C     0.92961   0.46049   0.01259   0.00000  Uiso   1.00
C296   C     0.82590   0.49740   0.47535   0.00000  Uiso   1.00
C297   C     0.84076   0.50260   0.02465   0.00000  Uiso   1.00
C298   C     0.85545   0.45458   0.12012   0.00000  Uiso   1.00
C299   C     0.81121   0.54542   0.37988   0.00000  Uiso   1.00
C300   C     0.80699   0.53221   0.05362   0.00000  Uiso   1.00
C301   C     0.85967   0.46779   0.44638   0.00000  Uiso   1.00
C302   C     0.75441   0.54833   0.03558   0.00000  Uiso   1.00
C303   C     0.91226   0.45167   0.46443   0.00000  Uiso   1.00
C304   C     0.68953   0.65273   0.24811   0.00000  Uiso   1.00
C305   C     0.97714   0.34727   0.25189   0.00000  Uiso   1.00
C306   C     0.68986   0.50854   0.34013   0.00000  Uiso   1.00
H307   H     0.72733   0.56742   0.05926   0.00000  Uiso   1.00
H308   H     0.93402   0.66358   0.25549   0.00000  Uiso   1.00
H309   H     0.82887   0.45492   0.21854   0.00000  Uiso   1.00
H310   H     0.83780   0.54508   0.28146   0.00000  Uiso   1.00
H311   H     0.84003   0.48568   0.14330   0.00000  Uiso   1.00
H312   H     0.81820   0.43646   0.09642   0.00000  Uiso   1.00
H313   H     0.87121   0.42323   0.14219   0.00000  Uiso   1.00
H314   H     0.84847   0.56354   0.40358   0.00000  Uiso   1.00
H315   H     0.82664   0.51432   0.35670   0.00000  Uiso   1.00
H316   H     0.79545   0.57677   0.35781   0.00000  Uiso   1.00
H317   H     0.93933   0.43258   0.44074   0.00000  Uiso   1.00
H318   H     0.71269   0.45845   0.09254   0.00000  Uiso   1.00
H319   H     0.95397   0.54155   0.40746   0.00000  Uiso   1.00
H320   H     0.98444   0.56476   0.49189   0.00000  Uiso   1.00
H321   H     0.68223   0.43524   0.00811   0.00000  Uiso   1.00
H322   H     0.82052   0.54294   0.09044   0.00000  Uiso   1.00
H323   H     0.84615   0.45706   0.40956   0.00000  Uiso   1.00
H324   H     0.73265   0.33642   0.24451   0.00000  Uiso   1.00
N325   N     0.81362   0.48550   0.23740   0.00000  Uiso   1.00
N326   N     0.85305   0.51450   0.26261   0.00000  Uiso   1.00
O327   O     0.96386   0.57964   0.25310   0.00000  Uiso   1.00
O328   O     0.70281   0.42036   0.24691   0.00000  Uiso   1.00
O329   O     0.72488   0.57035   0.24502   0.00000  Uiso   1.00
O330   O     0.94178   0.42965   0.25499   0.00000  Uiso   1.00
O331   O     0.96995   0.50730   0.32247   0.00000  Uiso   1.00
O332   O     0.69672   0.49270   0.17753   0.00000  Uiso   1.00
O333   O     0.73098   0.49801   0.31439   0.00000  Uiso   1.00
O334   O     0.93569   0.50199   0.18561   0.00000  Uiso   1.00
Zn335  Zn    0.93700   0.50621   0.25540   0.00000  Uiso   1.00
Zn336  Zn    0.72967   0.49379   0.24461   0.00000  Uiso   1.00
C337   C     0.01501   0.93155   0.24879   0.00000  Uiso   1.00
C338   C     0.31014   0.82480   0.15987   0.00000  Uiso   1.00
C339   C     0.03902   0.85622   0.39040   0.00000  Uiso   1.00
C340   C     0.29431   0.81045   0.10960   0.00000  Uiso   1.00
C341   C     0.01523   0.88370   0.46889   0.00000  Uiso   1.00
C342   C     0.31810   0.78296   0.03111   0.00000  Uiso   1.00
C343   C     0.33150   0.87125   0.42089   0.00000  Uiso   1.00
C344   C     0.00183   0.79541   0.07912   0.00000  Uiso   1.00
C345   C     0.09708   0.85723   0.40825   0.00000  Uiso   1.00
C346   C     0.23626   0.80943   0.09175   0.00000  Uiso   1.00
C347   C     0.10924   0.85299   0.45677   0.00000  Uiso   1.00
C348   C     0.31833   0.73512   0.25121   0.00000  Uiso   1.00
C349   C     0.22409   0.81368   0.04323   0.00000  Uiso   1.00
C350   C     0.07039   0.87284   0.48741   0.00000  Uiso   1.00
C351   C     0.26295   0.79383   0.01259   0.00000  Uiso   1.00
C352   C     0.15923   0.83074   0.47535   0.00000  Uiso   1.00
C353   C     0.17410   0.83593   0.02465   0.00000  Uiso   1.00
C354   C     0.18879   0.78791   0.12012   0.00000  Uiso   1.00
C355   C     0.14455   0.87875   0.37988   0.00000  Uiso   1.00
C356   C     0.14033   0.86554   0.05362   0.00000  Uiso   1.00
C357   C     0.19301   0.80113   0.44638   0.00000  Uiso   1.00
C358   C     0.08774   0.88167   0.03558   0.00000  Uiso   1.00
C359   C     0.24559   0.78500   0.46443   0.00000  Uiso   1.00
C360   C     0.02286   0.98607   0.24811   0.00000  Uiso   1.00
C361   C     0.31047   0.68060   0.25189   0.00000  Uiso   1.00
C362   C     0.02320   0.84187   0.34013   0.00000  Uiso   1.00
H363   H     0.06067   0.90075   0.05926   0.00000  Uiso   1.00
H364   H     0.26735   0.99692   0.25549   0.00000  Uiso   1.00
H365   H     0.16220   0.78826   0.21854   0.00000  Uiso   1.00
H366   H     0.17113   0.87841   0.28146   0.00000  Uiso   1.00
H367   H     0.17336   0.81901   0.14330   0.00000  Uiso   1.00
H368   H     0.15153   0.76979   0.09642   0.00000  Uiso   1.00
H369   H     0.20455   0.75656   0.14219   0.00000  Uiso   1.00
H370   H     0.18180   0.89687   0.40358   0.00000  Uiso   1.00
H371   H     0.15997   0.84766   0.35670   0.00000  Uiso   1.00
H372   H     0.12879   0.91011   0.35781   0.00000  Uiso   1.00
H373   H     0.27267   0.76591   0.44074   0.00000  Uiso   1.00
H374   H     0.04603   0.79178   0.09254   0.00000  Uiso   1.00
H375   H     0.28731   0.87488   0.40746   0.00000  Uiso   1.00
H376   H     0.31777   0.89810   0.49189   0.00000  Uiso   1.00
H377   H     0.01556   0.76857   0.00811   0.00000  Uiso   1.00
H378   H     0.15385   0.87627   0.09044   0.00000  Uiso   1.00
H379   H     0.17948   0.79040   0.40956   0.00000  Uiso   1.00
H380   H     0.06598   0.66975   0.24451   0.00000  Uiso   1.00
N381   N     0.14695   0.81883   0.23740   0.00000  Uiso   1.00
N382   N     0.18638   0.84784   0.26261   0.00000  Uiso   1.00
O383   O     0.29719   0.91298   0.25310   0.00000  Uiso   1.00
O384   O     0.03614   0.75369   0.24691   0.00000  Uiso   1.00
O385   O     0.05822   0.90368   0.24502   0.00000  Uiso   1.00
O386   O     0.27512   0.76298   0.25499   0.00000  Uiso   1.00
O387   O     0.30328   0.84063   0.32247   0.00000  Uiso   1.00
O388   O     0.03005   0.82603   0.17753   0.00000  Uiso   1.00
O389   O     0.06431   0.83134   0.31439   0.00000  Uiso   1.00
O390   O     0.26902   0.83533   0.18561   0.00000  Uiso   1.00
Zn391  Zn    0.27033   0.83954   0.25540   0.00000  Uiso   1.00
Zn392  Zn    0.06300   0.82713   0.24461   0.00000  Uiso   1.00
C393   C     0.34834   0.93155   0.24879   0.00000  Uiso   1.00
C394   C     0.64347   0.82480   0.15987   0.00000  Uiso   1.00
C395   C     0.37236   0.85622   0.39040   0.00000  Uiso   1.00
C396   C     0.62764   0.81045   0.10960   0.00000  Uiso   1.00
C397   C     0.34857   0.88370   0.46889   0.00000  Uiso   1.00
C398   C     0.65143   0.78296   0.03111   0.00000  Uiso   1.00
C399   C     0.66483   0.87125   0.42089   0.00000  Uiso   1.00
C400   C     0.33517   0.79541   0.07912   0.00000  Uiso   1.00
C401   C     0.43041   0.85723   0.40825   0.00000  Uiso   1.00
C402   C     0.56959   0.80943   0.09175   0.00000  Uiso   1.00
C403   C     0.44257   0.85299   0.45677   0.00000  Uiso   1.00
C404   C     0.65166   0.73512   0.25121   0.00000  Uiso   1.00
C405   C     0.55743   0.81368   0.04323   0.00000  Uiso   1.00
C406   C     0.40372   0.87284   0.48741   0.00000  Uiso   1.00
C407   C     0.59628   0.79383   0.01259   0.00000  Uiso   1.00
C408   C     0.49257   0.83074   0.47535   0.00000  Uiso   1.00
C409   C     0.50743   0.83593   0.02465   0.00000  Uiso   1.00
C410   C     0.52212   0.78791   0.12012   0.00000  Uiso   1.00
C411   C     0.47788   0.87875   0.37988   0.00000  Uiso   1.00
C412   C     0.47366   0.86554   0.05362   0.00000  Uiso   1.00
C413   C     0.52634   0.80113   0.44638   0.00000  Uiso   1.00
C414   C     0.42108   0.88167   0.03558   0.00000  Uiso   1.00
C415   C     0.57892   0.78500   0.46443   0.00000  Uiso   1.00
C416   C     0.35619   0.98607   0.24811   0.00000  Uiso   1.00
C417   C     0.64381   0.68060   0.25189   0.00000  Uiso   1.00
C418   C     0.35653   0.84187   0.34013   0.00000  Uiso   1.00
H419   H     0.39400   0.90075   0.05926   0.00000  Uiso   1.00
H420   H     0.60068   0.99692   0.25549   0.00000  Uiso   1.00
H421   H     0.49554   0.78826   0.21854   0.00000  Uiso   1.00
H422   H     0.50446   0.87841   0.28146   0.00000  Uiso   1.00
H423   H     0.50670   0.81901   0.14330   0.00000  Uiso   1.00
H424   H     0.48486   0.76979   0.09642   0.00000  Uiso   1.00
H425   H     0.53788   0.75656   0.14219   0.00000  Uiso   1.00
H426   H     0.51514   0.89687   0.40358   0.00000  Uiso   1.00
H427   H     0.49330   0.84766   0.35670   0.00000  Uiso   1.00
H428   H     0.46212   0.91011   0.35781   0.00000  Uiso   1.00
H429   H     0.60600   0.76591   0.44074   0.00000  Uiso   1.00
H430   H     0.37936   0.79178   0.09254   0.00000  Uiso   1.00
H431   H     0.62064   0.87488   0.40746   0.00000  Uiso   1.00
H432   H     0.65111   0.89810   0.49189   0.00000  Uiso   1.00
H433   H     0.34889   0.76857   0.00811   0.00000  Uiso   1.00
H434   H     0.48719   0.87627   0.09044   0.00000  Uiso   1.00
H435   H     0.51281   0.79040   0.40956   0.00000  Uiso   1.00
H436   H     0.39932   0.66975   0.24451   0.00000  Uiso   1.00
N437   N     0.48029   0.81883   0.23740   0.00000  Uiso   1.00
N438   N     0.51971   0.84784   0.26261   0.00000  Uiso   1.00
O439   O     0.63052   0.91298   0.25310   0.00000  Uiso   1.00
O440   O     0.36948   0.75369   0.24691   0.00000  Uiso   1.00
O441   O     0.39155   0.90368   0.24502   0.00000  Uiso   1.00
O442   O     0.60845   0.76298   0.25499   0.00000  Uiso   1.00
O443   O     0.63662   0.84063   0.32247   0.00000  Uiso   1.00
O444   O     0.36338   0.82603   0.17753   0.00000  Uiso   1.00
O445   O     0.39764   0.83134   0.31439   0.00000  Uiso   1.00
O446   O     0.60236   0.83533   0.18561   0.00000  Uiso   1.00
Zn447  Zn    0.60366   0.83954   0.25540   0.00000  Uiso   1.00
Zn448  Zn    0.39634   0.82713   0.24461   0.00000  Uiso   1.00
C449   C     0.68167   0.93155   0.24879   0.00000  Uiso   1.00
C450   C     0.97680   0.82480   0.15987   0.00000  Uiso   1.00
C451   C     0.70569   0.85622   0.39040   0.00000  Uiso   1.00
C452   C     0.96098   0.81045   0.10960   0.00000  Uiso   1.00
C453   C     0.68190   0.88370   0.46889   0.00000  Uiso   1.00
C454   C     0.98477   0.78296   0.03111   0.00000  Uiso   1.00
C455   C     0.99817   0.87125   0.42089   0.00000  Uiso   1.00
C456   C     0.66850   0.79541   0.07912   0.00000  Uiso   1.00
C457   C     0.76374   0.85723   0.40825   0.00000  Uiso   1.00
C458   C     0.90292   0.80943   0.09175   0.00000  Uiso   1.00
C459   C     0.77591   0.85299   0.45677   0.00000  Uiso   1.00
C460   C     0.98499   0.73512   0.25121   0.00000  Uiso   1.00
C461   C     0.89076   0.81368   0.04323   0.00000  Uiso   1.00
C462   C     0.73705   0.87284   0.48741   0.00000  Uiso   1.00
C463   C     0.92961   0.79383   0.01259   0.00000  Uiso   1.00
C464   C     0.82590   0.83074   0.47535   0.00000  Uiso   1.00
C465   C     0.84076   0.83593   0.02465   0.00000  Uiso   1.00
C466   C     0.85545   0.78791   0.12012   0.00000  Uiso   1.00
C467   C     0.81121   0.87875   0.37988   0.00000  Uiso   1.00
C468   C     0.80699   0.86554   0.05362   0.00000  Uiso   1.00
C469   C     0.85967   0.80113   0.44638   0.00000  Uiso   1.00
C470   C     0.75441   0.88167   0.03558   0.00000  Uiso   1.00
C471   C     0.91226   0.78500   0.46443   0.00000  Uiso   1.00
C472   C     0.68953   0.98607   0.24811   0.00000  Uiso   1.00
C473   C     0.97714   0.68060   0.25189   0.00000  Uiso   1.00
C474   C     0.68986   0.84187   0.34013   0.00000  Uiso   1.00
H475   H     0.72733   0.90075   0.05926   0.00000  Uiso   1.00
H476   H     0.93402   0.99692   0.25549   0.00000  Uiso   1.00
H477   H     0.82887   0.78826   0.21854   0.00000  Uiso   1.00
H478   H     0.83780   0.87841   0.28146   0.00000  Uiso   1.00
H479   H     0.84003   0.81901   0.14330   0.00000  Uiso   1.00
H480   H     0.81820   0.76979   0.09642   0.00000  Uiso   1.00
H481   H     0.87121   0.75656   0.14219   0.00000  Uiso   1.00
H482   H     0.84847   0.89687   0.40358   0.00000  Uiso   1.00
H483   H     0.82664   0.84766   0.35670   0.00000  Uiso   1.00
H484   H     0.79545   0.91011   0.35781   0.00000  Uiso   1.00
H485   H     0.93933   0.76591   0.44074   0.00000  Uiso   1.00
H486   H     0.71269   0.79178   0.09254   0.00000  Uiso   1.00
H487   H     0.95397   0.87488   0.40746   0.00000  Uiso   1.00
H488   H     0.98444   0.89810   0.49189   0.00000  Uiso   1.00
H489   H     0.68223   0.76857   0.00811   0.00000  Uiso   1.00
H490   H     0.82052   0.87627   0.09044   0.00000  Uiso   1.00
H491   H     0.84615   0.79040   0.40956   0.00000  Uiso   1.00
H492   H     0.73265   0.66975   0.24451   0.00000  Uiso   1.00
N493   N     0.81362   0.81883   0.23740   0.00000  Uiso   1.00
N494   N     0.85305   0.84784   0.26261   0.00000  Uiso   1.00
O495   O     0.96386   0.91298   0.25310   0.00000  Uiso   1.00
O496   O     0.70281   0.75369   0.24691   0.00000  Uiso   1.00
O497   O     0.72488   0.90368   0.24502   0.00000  Uiso   1.00
O498   O     0.94178   0.76298   0.25499   0.00000  Uiso   1.00
O499   O     0.96995   0.84063   0.32247   0.00000  Uiso   1.00
O500   O     0.69672   0.82603   0.17753   0.00000  Uiso   1.00
O501   O     0.73098   0.83134   0.31439   0.00000  Uiso   1.00
O502   O     0.93569   0.83533   0.18561   0.00000  Uiso   1.00
Zn503  Zn    0.93700   0.83954   0.25540   0.00000  Uiso   1.00
Zn504  Zn    0.72967   0.82713   0.24461   0.00000  Uiso   1.00
C505   C     0.01501   0.26488   0.74879   0.00000  Uiso   1.00
C506   C     0.31014   0.15813   0.65987   0.00000  Uiso   1.00
C507   C     0.03902   0.18955   0.89040   0.00000  Uiso   1.00
C508   C     0.29431   0.14378   0.60960   0.00000  Uiso   1.00
C509   C     0.01523   0.21704   0.96889   0.00000  Uiso   1.00
C510   C     0.31810   0.11630   0.53111   0.00000  Uiso   1.00
C511   C     0.33150   0.20459   0.92089   0.00000  Uiso   1.00
C512   C     0.00183   0.12875   0.57912   0.00000  Uiso   1.00
C513   C     0.09708   0.19057   0.90825   0.00000  Uiso   1.00
C514   C     0.23626   0.14277   0.59175   0.00000  Uiso   1.00
C515   C     0.10924   0.18632   0.95677   0.00000  Uiso   1.00
C516   C     0.31833   0.06845   0.75121   0.00000  Uiso   1.00
C517   C     0.22409   0.14701   0.54323   0.00000  Uiso   1.00
C518   C     0.07039   0.20617   0.98741   0.00000  Uiso   1.00
C519   C     0.26295   0.12716   0.51259   0.00000  Uiso   1.00
C520   C     0.15923   0.16407   0.97535   0.00000  Uiso   1.00
C521   C     0.17410   0.16926   0.52465   0.00000  Uiso   1.00
C522   C     0.18879   0.12125   0.62012   0.00000  Uiso   1.00
C523   C     0.14455   0.21209   0.87988   0.00000  Uiso   1.00
C524   C     0.14033   0.19887   0.55362   0.00000  Uiso   1.00
C525   C     0.19301   0.13446   0.94638   0.00000  Uiso   1.00
C526   C     0.08774   0.21500   0.53558   0.00000  Uiso   1.00
C527   C     0.24559   0.11833   0.96443   0.00000  Uiso   1.00
C528   C     0.02286   0.31940   0.74811   0.00000  Uiso   1.00
C529   C     0.31047   0.01394   0.75189   0.00000  Uiso   1.00
C530   C     0.02320   0.17520   0.84013   0.00000  Uiso   1.00
H531   H     0.06067   0.23409   0.55926   0.00000  Uiso   1.00
H532   H     0.26735   0.33025   0.75549   0.00000  Uiso   1.00
H533   H     0.16220   0.12159   0.71854   0.00000  Uiso   1.00
H534   H     0.17113   0.21175   0.78146   0.00000  Uiso   1.00
H535   H     0.17336   0.15234   0.64330   0.00000  Uiso   1.00
H536   H     0.15153   0.10313   0.59642   0.00000  Uiso   1.00
H537   H     0.20455   0.08990   0.64219   0.00000  Uiso   1.00
H538   H     0.18180   0.23021   0.90358   0.00000  Uiso   1.00
H539   H     0.15997   0.18099   0.85670   0.00000  Uiso   1.00
H540   H     0.12879   0.24344   0.85781   0.00000  Uiso   1.00
H541   H     0.27267   0.09925   0.94074   0.00000  Uiso   1.00
H542   H     0.04603   0.12512   0.59254   0.00000  Uiso   1.00
H543   H     0.28731   0.20822   0.90746   0.00000  Uiso   1.00
H544   H     0.31777   0.23143   0.99189   0.00000  Uiso   1.00
H545   H     0.01556   0.10190   0.50811   0.00000  Uiso   1.00
H546   H     0.15385   0.20960   0.59044   0.00000  Uiso   1.00
H547   H     0.17948   0.12373   0.90956   0.00000  Uiso   1.00
H548   H     0.06598   0.00308   0.74451   0.00000  Uiso   1.00
N549   N     0.14695   0.15216   0.73740   0.00000  Uiso   1.00
N550   N     0.18638   0.18117   0.76261   0.00000  Uiso   1.00
O551   O     0.29719   0.24631   0.75310   0.00000  Uiso   1.00
O552   O     0.03614   0.08702   0.74691   0.00000  Uiso   1.00
O553   O     0.05822   0.23702   0.74502   0.00000  Uiso   1.00
O554   O     0.27512   0.09632   0.75499   0.00000  Uiso   1.00
O555   O     0.30328   0.17397   0.82247   0.00000  Uiso   1.00
O556   O     0.03005   0.15937   0.67753   0.00000  Uiso   1.00
O557   O     0.06431   0.16467   0.81439   0.00000  Uiso   1.00
O558   O     0.26902   0.16866   0.68561   0.00000  Uiso   1.00
Zn559  Zn    0.27033   0.17287   0.75540   0.00000  Uiso   1.00
Zn560  Zn    0.06300   0.16046   0.74461   0.00000  Uiso   1.00
C561   C     0.34834   0.26488   0.74879   0.00000  Uiso   1.00
C562   C     0.64347   0.15813   0.65987   0.00000  Uiso   1.00
C563   C     0.37236   0.18955   0.89040   0.00000  Uiso   1.00
C564   C     0.62764   0.14378   0.60960   0.00000  Uiso   1.00
C565   C     0.34857   0.21704   0.96889   0.00000  Uiso   1.00
C566   C     0.65143   0.11630   0.53111   0.00000  Uiso   1.00
C567   C     0.66483   0.20459   0.92089   0.00000  Uiso   1.00
C568   C     0.33517   0.12875   0.57912   0.00000  Uiso   1.00
C569   C     0.43041   0.19057   0.90825   0.00000  Uiso   1.00
C570   C     0.56959   0.14277   0.59175   0.00000  Uiso   1.00
C571   C     0.44257   0.18632   0.95677   0.00000  Uiso   1.00
C572   C     0.65166   0.06845   0.75121   0.00000  Uiso   1.00
C573   C     0.55743   0.14701   0.54323   0.00000  Uiso   1.00
C574   C     0.40372   0.20617   0.98741   0.00000  Uiso   1.00
C575   C     0.59628   0.12716   0.51259   0.00000  Uiso   1.00
C576   C     0.49257   0.16407   0.97535   0.00000  Uiso   1.00
C577   C     0.50743   0.16926   0.52465   0.00000  Uiso   1.00
C578   C     0.52212   0.12125   0.62012   0.00000  Uiso   1.00
C579   C     0.47788   0.21209   0.87988   0.00000  Uiso   1.00
C580   C     0.47366   0.19887   0.55362   0.00000  Uiso   1.00
C581   C     0.52634   0.13446   0.94638   0.00000  Uiso   1.00
C582   C     0.42108   0.21500   0.53558   0.00000  Uiso   1.00
C583   C     0.57892   0.11833   0.96443   0.00000  Uiso   1.00
C584   C     0.35619   0.31940   0.74811   0.00000  Uiso   1.00
C585   C     0.64381   0.01394   0.75189   0.00000  Uiso   1.00
C586   C     0.35653   0.17520   0.84013   0.00000  Uiso   1.00
H587   H     0.39400   0.23409   0.55926   0.00000  Uiso   1.00
H588   H     0.60068   0.33025   0.75549   0.00000  Uiso   1.00
H589   H     0.49554   0.12159   0.71854   0.00000  Uiso   1.00
H590   H     0.50446   0.21175   0.78146   0.00000  Uiso   1.00
H591   H     0.50670   0.15234   0.64330   0.00000  Uiso   1.00
H592   H     0.48486   0.10313   0.59642   0.00000  Uiso   1.00
H593   H     0.53788   0.08990   0.64219   0.00000  Uiso   1.00
H594   H     0.51514   0.23021   0.90358   0.00000  Uiso   1.00
H595   H     0.49330   0.18099   0.85670   0.00000  Uiso   1.00
H596   H     0.46212   0.24344   0.85781   0.00000  Uiso   1.00
H597   H     0.60600   0.09925   0.94074   0.00000  Uiso   1.00
H598   H     0.37936   0.12512   0.59254   0.00000  Uiso   1.00
H599   H     0.62064   0.20822   0.90746   0.00000  Uiso   1.00
H600   H     0.65111   0.23143   0.99189   0.00000  Uiso   1.00
H601   H     0.34889   0.10190   0.50811   0.00000  Uiso   1.00
H602   H     0.48719   0.20960   0.59044   0.00000  Uiso   1.00
H603   H     0.51281   0.12373   0.90956   0.00000  Uiso   1.00
H604   H     0.39932   0.00308   0.74451   0.00000  Uiso   1.00
N605   N     0.48029   0.15216   0.73740   0.00000  Uiso   1.00
N606   N     0.51971   0.18117   0.76261   0.00000  Uiso   1.00
O607   O     0.63052   0.24631   0.75310   0.00000  Uiso   1.00
O608   O     0.36948   0.08702   0.74691   0.00000  Uiso   1.00
O609   O     0.39155   0.23702   0.74502   0.00000  Uiso   1.00
O610   O     0.60845   0.09632   0.75499   0.00000  Uiso   1.00
O611   O     0.63662   0.17397   0.82247   0.00000  Uiso   1.00
O612   O     0.36338   0.15937   0.67753   0.00000  Uiso   1.00
O613   O     0.39764   0.16467   0.81439   0.00000  Uiso   1.00
O614   O     0.60236   0.16866   0.68561   0.00000  Uiso   1.00
Zn615  Zn    0.60366   0.17287   0.75540   0.00000  Uiso   1.00
Zn616  Zn    0.39634   0.16046   0.74461   0.00000  Uiso   1.00
C617   C     0.68167   0.26488   0.74879   0.00000  Uiso   1.00
C618   C     0.97680   0.15813   0.65987   0.00000  Uiso   1.00
C619   C     0.70569   0.18955   0.89040   0.00000  Uiso   1.00
C620   C     0.96098   0.14378   0.60960   0.00000  Uiso   1.00
C621   C     0.68190   0.21704   0.96889   0.00000  Uiso   1.00
C622   C     0.98477   0.11630   0.53111   0.00000  Uiso   1.00
C623   C     0.99817   0.20459   0.92089   0.00000  Uiso   1.00
C624   C     0.66850   0.12875   0.57912   0.00000  Uiso   1.00
C625   C     0.76374   0.19057   0.90825   0.00000  Uiso   1.00
C626   C     0.90292   0.14277   0.59175   0.00000  Uiso   1.00
C627   C     0.77591   0.18632   0.95677   0.00000  Uiso   1.00
C628   C     0.98499   0.06845   0.75121   0.00000  Uiso   1.00
C629   C     0.89076   0.14701   0.54323   0.00000  Uiso   1.00
C630   C     0.73705   0.20617   0.98741   0.00000  Uiso   1.00
C631   C     0.92961   0.12716   0.51259   0.00000  Uiso   1.00
C632   C     0.82590   0.16407   0.97535   0.00000  Uiso   1.00
C633   C     0.84076   0.16926   0.52465   0.00000  Uiso   1.00
C634   C     0.85545   0.12125   0.62012   0.00000  Uiso   1.00
C635   C     0.81121   0.21209   0.87988   0.00000  Uiso   1.00
C636   C     0.80699   0.19887   0.55362   0.00000  Uiso   1.00
C637   C     0.85967   0.13446   0.94638   0.00000  Uiso   1.00
C638   C     0.75441   0.21500   0.53558   0.00000  Uiso   1.00
C639   C     0.91226   0.11833   0.96443   0.00000  Uiso   1.00
C640   C     0.68953   0.31940   0.74811   0.00000  Uiso   1.00
C641   C     0.97714   0.01394   0.75189   0.00000  Uiso   1.00
C642   C     0.68986   0.17520   0.84013   0.00000  Uiso   1.00
H643   H     0.72733   0.23409   0.55926   0.00000  Uiso   1.00
H644   H     0.93402   0.33025   0.75549   0.00000  Uiso   1.00
H645   H     0.82887   0.12159   0.71854   0.00000  Uiso   1.00
H646   H     0.83780   0.21175   0.78146   0.00000  Uiso   1.00
H647   H     0.84003   0.15234   0.64330   0.00000  Uiso   1.00
H648   H     0.81820   0.10313   0.59642   0.00000  Uiso   1.00
H649   H     0.87121   0.08990   0.64219   0.00000  Uiso   1.00
H650   H     0.84847   0.23021   0.90358   0.00000  Uiso   1.00
H651   H     0.82664   0.18099   0.85670   0.00000  Uiso   1.00
H652   H     0.79545   0.24344   0.85781   0.00000  Uiso   1.00
H653   H     0.93933   0.09925   0.94074   0.00000  Uiso   1.00
H654   H     0.71269   0.12512   0.59254   0.00000  Uiso   1.00
H655   H     0.95397   0.20822   0.90746   0.00000  Uiso   1.00
H656   H     0.98444   0.23143   0.99189   0.00000  Uiso   1.00
H657   H     0.68223   0.10190   0.50811   0.00000  Uiso   1.00
H658   H     0.82052   0.20960   0.59044   0.00000  Uiso   1.00
H659   H     0.84615   0.12373   0.90956   0.00000  Uiso   1.00
H660   H     0.73265   0.00308   0.74451   0.00000  Uiso   1.00
N661   N     0.81362   0.15216   0.73740   0.00000  Uiso   1.00
N662   N     0.85305   0.18117   0.76261   0.00000  Uiso   1.00
O663   O     0.96386   0.24631   0.75310   0.00000  Uiso   1.00
O664   O     0.70281   0.08702   0.74691   0.00000  Uiso   1.00
O665   O     0.72488   0.23702   0.74502   0.00000  Uiso   1.00
O666   O     0.94178   0.09632   0.75499   0.00000  Uiso   1.00
O667   O     0.96995   0.17397   0.82247   0.00000  Uiso   1.00
O668   O     0.69672   0.15937   0.67753   0.00000  Uiso   1.00
O669   O     0.73098   0.16467   0.81439   0.00000  Uiso   1.00
O670   O     0.93569   0.16866   0.68561   0.00000  Uiso   1.00
Zn671  Zn    0.93700   0.17287   0.75540   0.00000  Uiso   1.00
Zn672  Zn    0.72967   0.16046   0.74461   0.00000  Uiso   1.00
C673   C     0.01501   0.59821   0.74879   0.00000  Uiso   1.00
C674   C     0.31014   0.49146   0.65987   0.00000  Uiso   1.00
C675   C     0.03902   0.52288   0.89040   0.00000  Uiso   1.00
C676   C     0.29431   0.47712   0.60960   0.00000  Uiso   1.00
C677   C     0.01523   0.55037   0.96889   0.00000  Uiso   1.00
C678   C     0.31810   0.44963   0.53111   0.00000  Uiso   1.00
C679   C     0.33150   0.53792   0.92089   0.00000  Uiso   1.00
C680   C     0.00183   0.46208   0.57912   0.00000  Uiso   1.00
C681   C     0.09708   0.52390   0.90825   0.00000  Uiso   1.00
C682   C     0.23626   0.47610   0.59175   0.00000  Uiso   1.00
C683   C     0.10924   0.51966   0.95677   0.00000  Uiso   1.00
C684   C     0.31833   0.40179   0.75121   0.00000  Uiso   1.00
C685   C     0.22409   0.48034   0.54323   0.00000  Uiso   1.00
C686   C     0.07039   0.53951   0.98741   0.00000  Uiso   1.00
C687   C     0.26295   0.46049   0.51259   0.00000  Uiso   1.00
C688   C     0.15923   0.49740   0.97535   0.00000  Uiso   1.00
C689   C     0.17410   0.50260   0.52465   0.00000  Uiso   1.00
C690   C     0.18879   0.45458   0.62012   0.00000  Uiso   1.00
C691   C     0.14455   0.54542   0.87988   0.00000  Uiso   1.00
C692   C     0.14033   0.53221   0.55362   0.00000  Uiso   1.00
C693   C     0.19301   0.46779   0.94638   0.00000  Uiso   1.00
C694   C     0.08774   0.54833   0.53558   0.00000  Uiso   1.00
C695   C     0.24559   0.45167   0.96443   0.00000  Uiso   1.00
C696   C     0.02286   0.65273   0.74811   0.00000  Uiso   1.00
C697   C     0.31047   0.34727   0.75189   0.00000  Uiso   1.00
C698   C     0.02320   0.50854   0.84013   0.00000  Uiso   1.00
H699   H     0.06067   0.56742   0.55926   0.00000  Uiso   1.00
H700   H     0.26735   0.66358   0.75549   0.00000  Uiso   1.00
H701   H     0.16220   0.45492   0.71854   0.00000  Uiso   1.00
H702   H     0.17113   0.54508   0.78146   0.00000  Uiso   1.00
H703   H     0.17336   0.48568   0.64330   0.00000  Uiso   1.00
H704   H     0.15153   0.43646   0.59642   0.00000  Uiso   1.00
H705   H     0.20455   0.42323   0.64219   0.00000  Uiso   1.00
H706   H     0.18180   0.56354   0.90358   0.00000  Uiso   1.00
H707   H     0.15997   0.51432   0.85670   0.00000  Uiso   1.00
H708   H     0.12879   0.57677   0.85781   0.00000  Uiso   1.00
H709   H     0.27267   0.43258   0.94074   0.00000  Uiso   1.00
H710   H     0.04603   0.45845   0.59254   0.00000  Uiso   1.00
H711   H     0.28731   0.54155   0.90746   0.00000  Uiso   1.00
H712   H     0.31777   0.56476   0.99189   0.00000  Uiso   1.00
H713   H     0.01556   0.43524   0.50811   0.00000  Uiso   1.00
H714   H     0.15385   0.54294   0.59044   0.00000  Uiso   1.00
H715   H     0.17948   0.45706   0.90956   0.00000  Uiso   1.00
H716   H     0.06598   0.33642   0.74451   0.00000  Uiso   1.00
N717   N     0.14695   0.48550   0.73740   0.00000  Uiso   1.00
N718   N     0.18638   0.51450   0.76261   0.00000  Uiso   1.00
O719   O     0.29719   0.57964   0.75310   0.00000  Uiso   1.00
O720   O     0.03614   0.42036   0.74691   0.00000  Uiso   1.00
O721   O     0.05822   0.57035   0.74502   0.00000  Uiso   1.00
O722   O     0.27512   0.42965   0.75499   0.00000  Uiso   1.00
O723   O     0.30328   0.50730   0.82247   0.00000  Uiso   1.00
O724   O     0.03005   0.49270   0.67753   0.00000  Uiso   1.00
O725   O     0.06431   0.49801   0.81439   0.00000  Uiso   1.00
O726   O     0.26902   0.50199   0.68561   0.00000  Uiso   1.00
Zn727  Zn    0.27033   0.50621   0.75540   0.00000  Uiso   1.00
Zn728  Zn    0.06300   0.49379   0.74461   0.00000  Uiso   1.00
C729   C     0.34834   0.59821   0.74879   0.00000  Uiso   1.00
C730   C     0.64347   0.49146   0.65987   0.00000  Uiso   1.00
C731   C     0.37236   0.52288   0.89040   0.00000  Uiso   1.00
C732   C     0.62764   0.47712   0.60960   0.00000  Uiso   1.00
C733   C     0.34857   0.55037   0.96889   0.00000  Uiso   1.00
C734   C     0.65143   0.44963   0.53111   0.00000  Uiso   1.00
C735   C     0.66483   0.53792   0.92089   0.00000  Uiso   1.00
C736   C     0.33517   0.46208   0.57912   0.00000  Uiso   1.00
C737   C     0.43041   0.52390   0.90825   0.00000  Uiso   1.00
C738   C     0.56959   0.47610   0.59175   0.00000  Uiso   1.00
C739   C     0.44257   0.51966   0.95677   0.00000  Uiso   1.00
C740   C     0.65166   0.40179   0.75121   0.00000  Uiso   1.00
C741   C     0.55743   0.48034   0.54323   0.00000  Uiso   1.00
C742   C     0.40372   0.53951   0.98741   0.00000  Uiso   1.00
C743   C     0.59628   0.46049   0.51259   0.00000  Uiso   1.00
C744   C     0.49257   0.49740   0.97535   0.00000  Uiso   1.00
C745   C     0.50743   0.50260   0.52465   0.00000  Uiso   1.00
C746   C     0.52212   0.45458   0.62012   0.00000  Uiso   1.00
C747   C     0.47788   0.54542   0.87988   0.00000  Uiso   1.00
C748   C     0.47366   0.53221   0.55362   0.00000  Uiso   1.00
C749   C     0.52634   0.46779   0.94638   0.00000  Uiso   1.00
C750   C     0.42108   0.54833   0.53558   0.00000  Uiso   1.00
C751   C     0.57892   0.45167   0.96443   0.00000  Uiso   1.00
C752   C     0.35619   0.65273   0.74811   0.00000  Uiso   1.00
C753   C     0.64381   0.34727   0.75189   0.00000  Uiso   1.00
C754   C     0.35653   0.50854   0.84013   0.00000  Uiso   1.00
H755   H     0.39400   0.56742   0.55926   0.00000  Uiso   1.00
H756   H     0.60068   0.66358   0.75549   0.00000  Uiso   1.00
H757   H     0.49554   0.45492   0.71854   0.00000  Uiso   1.00
H758   H     0.50446   0.54508   0.78146   0.00000  Uiso   1.00
H759   H     0.50670   0.48568   0.64330   0.00000  Uiso   1.00
H760   H     0.48486   0.43646   0.59642   0.00000  Uiso   1.00
H761   H     0.53788   0.42323   0.64219   0.00000  Uiso   1.00
H762   H     0.51514   0.56354   0.90358   0.00000  Uiso   1.00
H763   H     0.49330   0.51432   0.85670   0.00000  Uiso   1.00
H764   H     0.46212   0.57677   0.85781   0.00000  Uiso   1.00
H765   H     0.60600   0.43258   0.94074   0.00000  Uiso   1.00
H766   H     0.37936   0.45845   0.59254   0.00000  Uiso   1.00
H767   H     0.62064   0.54155   0.90746   0.00000  Uiso   1.00
H768   H     0.65111   0.56476   0.99189   0.00000  Uiso   1.00
H769   H     0.34889   0.43524   0.50811   0.00000  Uiso   1.00
H770   H     0.48719   0.54294   0.59044   0.00000  Uiso   1.00
H771   H     0.51281   0.45706   0.90956   0.00000  Uiso   1.00
H772   H     0.39932   0.33642   0.74451   0.00000  Uiso   1.00
N773   N     0.48029   0.48550   0.73740   0.00000  Uiso   1.00
N774   N     0.51971   0.51450   0.76261   0.00000  Uiso   1.00
O775   O     0.63052   0.57964   0.75310   0.00000  Uiso   1.00
O776   O     0.36948   0.42036   0.74691   0.00000  Uiso   1.00
O777   O     0.39155   0.57035   0.74502   0.00000  Uiso   1.00
O778   O     0.60845   0.42965   0.75499   0.00000  Uiso   1.00
O779   O     0.63662   0.50730   0.82247   0.00000  Uiso   1.00
O780   O     0.36338   0.49270   0.67753   0.00000  Uiso   1.00
O781   O     0.39764   0.49801   0.81439   0.00000  Uiso   1.00
O782   O     0.60236   0.50199   0.68561   0.00000  Uiso   1.00
Zn783  Zn    0.60366   0.50621   0.75540   0.00000  Uiso   1.00
Zn784  Zn    0.39634   0.49379   0.74461   0.00000  Uiso   1.00
C785   C     0.68167   0.59821   0.74879   0.00000  Uiso   1.00
C786   C     0.97680   0.49146   0.65987   0.00000  Uiso   1.00
C787   C     0.70569   0.52288   0.89040   0.00000  Uiso   1.00
C788   C     0.96098   0.47712   0.60960   0.00000  Uiso   1.00
C789   C     0.68190   0.55037   0.96889   0.00000  Uiso   1.00
C790   C     0.98477   0.44963   0.53111   0.00000  Uiso   1.00
C791   C     0.99817   0.53792   0.92089   0.00000  Uiso   1.00
C792   C     0.66850   0.46208   0.57912   0.00000  Uiso   1.00
C793   C     0.76374   0.52390   0.90825   0.00000  Uiso   1.00
C794   C     0.90292   0.47610   0.59175   0.00000  Uiso   1.00
C795   C     0.77591   0.51966   0.95677   0.00000  Uiso   1.00
C796   C     0.98499   0.40179   0.75121   0.00000  Uiso   1.00
C797   C     0.89076   0.48034   0.54323   0.00000  Uiso   1.00
C798   C     0.73705   0.53951   0.98741   0.00000  Uiso   1.00
C799   C     0.92961   0.46049   0.51259   0.00000  Uiso   1.00
C800   C     0.82590   0.49740   0.97535   0.00000  Uiso   1.00
C801   C     0.84076   0.50260   0.52465   0.00000  Uiso   1.00
C802   C     0.85545   0.45458   0.62012   0.00000  Uiso   1.00
C803   C     0.81121   0.54542   0.87988   0.00000  Uiso   1.00
C804   C     0.80699   0.53221   0.55362   0.00000  Uiso   1.00
C805   C     0.85967   0.46779   0.94638   0.00000  Uiso   1.00
C806   C     0.75441   0.54833   0.53558   0.00000  Uiso   1.00
C807   C     0.91226   0.45167   0.96443   0.00000  Uiso   1.00
C808   C     0.68953   0.65273   0.74811   0.00000  Uiso   1.00
C809   C     0.97714   0.34727   0.75189   0.00000  Uiso   1.00
C810   C     0.68986   0.50854   0.84013   0.00000  Uiso   1.00
H811   H     0.72733   0.56742   0.55926   0.00000  Uiso   1.00
H812   H     0.93402   0.66358   0.75549   0.00000  Uiso   1.00
H813   H     0.82887   0.45492   0.71854   0.00000  Uiso   1.00
H814   H     0.83780   0.54508   0.78146   0.00000  Uiso   1.00
H815   H     0.84003   0.48568   0.64330   0.00000  Uiso   1.00
H816   H     0.81820   0.43646   0.59642   0.00000  Uiso   1.00
H817   H     0.87121   0.42323   0.64219   0.00000  Uiso   1.00
H818   H     0.84847   0.56354   0.90358   0.00000  Uiso   1.00
H819   H     0.82664   0.51432   0.85670   0.00000  Uiso   1.00
H820   H     0.79545   0.57677   0.85781   0.00000  Uiso   1.00
H821   H     0.93933   0.43258   0.94074   0.00000  Uiso   1.00
H822   H     0.71269   0.45845   0.59254   0.00000  Uiso   1.00
H823   H     0.95397   0.54155   0.90746   0.00000  Uiso   1.00
H824   H     0.98444   0.56476   0.99189   0.00000  Uiso   1.00
H825   H     0.68223   0.43524   0.50811   0.00000  Uiso   1.00
H826   H     0.82052   0.54294   0.59044   0.00000  Uiso   1.00
H827   H     0.84615   0.45706   0.90956   0.00000  Uiso   1.00
H828   H     0.73265   0.33642   0.74451   0.00000  Uiso   1.00
N829   N     0.81362   0.48550   0.73740   0.00000  Uiso   1.00
N830   N     0.85305   0.51450   0.76261   0.00000  Uiso   1.00
O831   O     0.96386   0.57964   0.75310   0.00000  Uiso   1.00
O832   O     0.70281   0.42036   0.74691   0.00000  Uiso   1.00
O833   O     0.72488   0.57035   0.74502   0.00000  Uiso   1.00
O834   O     0.94178   0.42965   0.75499   0.00000  Uiso   1.00
O835   O     0.96995   0.50730   0.82247   0.00000  Uiso   1.00
O836   O     0.69672   0.49270   0.67753   0.00000  Uiso   1.00
O837   O     0.73098   0.49801   0.81439   0.00000  Uiso   1.00
O838   O     0.93569   0.50199   0.68561   0.00000  Uiso   1.00
Zn839  Zn    0.93700   0.50621   0.75540   0.00000  Uiso   1.00
Zn840  Zn    0.72967   0.49379   0.74461   0.00000  Uiso   1.00
C841   C     0.01501   0.93155   0.74879   0.00000  Uiso   1.00
C842   C     0.31014   0.82480   0.65987   0.00000  Uiso   1.00
C843   C     0.03902   0.85622   0.89040   0.00000  Uiso   1.00
C844   C     0.29431   0.81045   0.60960   0.00000  Uiso   1.00
C845   C     0.01523   0.88370   0.96889   0.00000  Uiso   1.00
C846   C     0.31810   0.78296   0.53111   0.00000  Uiso   1.00
C847   C     0.33150   0.87125   0.92089   0.00000  Uiso   1.00
C848   C     0.00183   0.79541   0.57912   0.00000  Uiso   1.00
C849   C     0.09708   0.85723   0.90825   0.00000  Uiso   1.00
C850   C     0.23626   0.80943   0.59175   0.00000  Uiso   1.00
C851   C     0.10924   0.85299   0.95677   0.00000  Uiso   1.00
C852   C     0.31833   0.73512   0.75121   0.00000  Uiso   1.00
C853   C     0.22409   0.81368   0.54323   0.00000  Uiso   1.00
C854   C     0.07039   0.87284   0.98741   0.00000  Uiso   1.00
C855   C     0.26295   0.79383   0.51259   0.00000  Uiso   1.00
C856   C     0.15923   0.83074   0.97535   0.00000  Uiso   1.00
C857   C     0.17410   0.83593   0.52465   0.00000  Uiso   1.00
C858   C     0.18879   0.78791   0.62012   0.00000  Uiso   1.00
C859   C     0.14455   0.87875   0.87988   0.00000  Uiso   1.00
C860   C     0.14033   0.86554   0.55362   0.00000  Uiso   1.00
C861   C     0.19301   0.80113   0.94638   0.00000  Uiso   1.00
C862   C     0.08774   0.88167   0.53558   0.00000  Uiso   1.00
C863   C     0.24559   0.78500   0.96443   0.00000  Uiso   1.00
C864   C     0.02286   0.98607   0.74811   0.00000  Uiso   1.00
C865   C     0.31047   0.68060   0.75189   0.00000  Uiso   1.00
C866   C     0.02320   0.84187   0.84013   0.00000  Uiso   1.00
H867   H     0.06067   0.90075   0.55926   0.00000  Uiso   1.00
H868   H     0.26735   0.99692   0.75549   0.00000  Uiso   1.00
H869   H     0.16220   0.78826   0.71854   0.00000  Uiso   1.00
H870   H     0.17113   0.87841   0.78146   0.00000  Uiso   1.00
H871   H     0.17336   0.81901   0.64330   0.00000  Uiso   1.00
H872   H     0.15153   0.76979   0.59642   0.00000  Uiso   1.00
H873   H     0.20455   0.75656   0.64219   0.00000  Uiso   1.00
H874   H     0.18180   0.89687   0.90358   0.00000  Uiso   1.00
H875   H     0.15997   0.84766   0.85670   0.00000  Uiso   1.00
H876   H     0.12879   0.91011   0.85781   0.00000  Uiso   1.00
H877   H     0.27267   0.76591   0.94074   0.00000  Uiso   1.00
H878   H     0.04603   0.79178   0.59254   0.00000  Uiso   1.00
H879   H     0.28731   0.87488   0.90746   0.00000  Uiso   1.00
H880   H     0.31777   0.89810   0.99189   0.00000  Uiso   1.00
H881   H     0.01556   0.76857   0.50811   0.00000  Uiso   1.00
H882   H     0.15385   0.87627   0.59044   0.00000  Uiso   1.00
H883   H     0.17948   0.79040   0.90956   0.00000  Uiso   1.00
H884   H     0.06598   0.66975   0.74451   0.00000  Uiso   1.00
N885   N     0.14695   0.81883   0.73740   0.00000  Uiso   1.00
N886   N     0.18638   0.84784   0.76261   0.00000  Uiso   1.00
O887   O     0.29719   0.91298   0.75310   0.00000  Uiso   1.00
O888   O     0.03614   0.75369   0.74691   0.00000  Uiso   1.00
O889   O     0.05822   0.90368   0.74502   0.00000  Uiso   1.00
O890   O     0.27512   0.76298   0.75499   0.00000  Uiso   1.00
O891   O     0.30328   0.84063   0.82247   0.00000  Uiso   1.00
O892   O     0.03005   0.82603   0.67753   0.00000  Uiso   1.00
O893   O     0.06431   0.83134   0.81439   0.00000  Uiso   1.00
O894   O     0.26902   0.83533   0.68561   0.00000  Uiso   1.00
Zn895  Zn    0.27033   0.83954   0.75540   0.00000  Uiso   1.00
Zn896  Zn    0.06300   0.82713   0.74461   0.00000  Uiso   1.00
C897   C     0.34834   0.93155   0.74879   0.00000  Uiso   1.00
C898   C     0.64347   0.82480   0.65987   0.00000  Uiso   1.00
C899   C     0.37236   0.85622   0.89040   0.00000  Uiso   1.00
C900   C     0.62764   0.81045   0.60960   0.00000  Uiso   1.00
C901   C     0.34857   0.88370   0.96889   0.00000  Uiso   1.00
C902   C     0.65143   0.78296   0.53111   0.00000  Uiso   1.00
C903   C     0.66483   0.87125   0.92089   0.00000  Uiso   1.00
C904   C     0.33517   0.79541   0.57912   0.00000  Uiso   1.00
C905   C     0.43041   0.85723   0.90825   0.00000  Uiso   1.00
C906   C     0.56959   0.80943   0.59175   0.00000  Uiso   1.00
C907   C     0.44257   0.85299   0.95677   0.00000  Uiso   1.00
C908   C     0.65166   0.73512   0.75121   0.00000  Uiso   1.00
C909   C     0.55743   0.81368   0.54323   0.00000  Uiso   1.00
C910   C     0.40372   0.87284   0.98741   0.00000  Uiso   1.00
C911   C     0.59628   0.79383   0.51259   0.00000  Uiso   1.00
C912   C     0.49257   0.83074   0.97535   0.00000  Uiso   1.00
C913   C     0.50743   0.83593   0.52465   0.00000  Uiso   1.00
C914   C     0.52212   0.78791   0.62012   0.00000  Uiso   1.00
C915   C     0.47788   0.87875   0.87988   0.00000  Uiso   1.00
C916   C     0.47366   0.86554   0.55362   0.00000  Uiso   1.00
C917   C     0.52634   0.80113   0.94638   0.00000  Uiso   1.00
C918   C     0.42108   0.88167   0.53558   0.00000  Uiso   1.00
C919   C     0.57892   0.78500   0.96443   0.00000  Uiso   1.00
C920   C     0.35619   0.98607   0.74811   0.00000  Uiso   1.00
C921   C     0.64381   0.68060   0.75189   0.00000  Uiso   1.00
C922   C     0.35653   0.84187   0.84013   0.00000  Uiso   1.00
H923   H     0.39400   0.90075   0.55926   0.00000  Uiso   1.00
H924   H     0.60068   0.99692   0.75549   0.00000  Uiso   1.00
H925   H     0.49554   0.78826   0.71854   0.00000  Uiso   1.00
H926   H     0.50446   0.87841   0.78146   0.00000  Uiso   1.00
H927   H     0.50670   0.81901   0.64330   0.00000  Uiso   1.00
H928   H     0.48486   0.76979   0.59642   0.00000  Uiso   1.00
H929   H     0.53788   0.75656   0.64219   0.00000  Uiso   1.00
H930   H     0.51514   0.89687   0.90358   0.00000  Uiso   1.00
H931   H     0.49330   0.84766   0.85670   0.00000  Uiso   1.00
H932   H     0.46212   0.91011   0.85781   0.00000  Uiso   1.00
H933   H     0.60600   0.76591   0.94074   0.00000  Uiso   1.00
H934   H     0.37936   0.79178   0.59254   0.00000  Uiso   1.00
H935   H     0.62064   0.87488   0.90746   0.00000  Uiso   1.00
H936   H     0.65111   0.89810   0.99189   0.00000  Uiso   1.00
H937   H     0.34889   0.76857   0.50811   0.00000  Uiso   1.00
H938   H     0.48719   0.87627   0.59044   0.00000  Uiso   1.00
H939   H     0.51281   0.79040   0.90956   0.00000  Uiso   1.00
H940   H     0.39932   0.66975   0.74451   0.00000  Uiso   1.00
N941   N     0.48029   0.81883   0.73740   0.00000  Uiso   1.00
N942   N     0.51971   0.84784   0.76261   0.00000  Uiso   1.00
O943   O     0.63052   0.91298   0.75310   0.00000  Uiso   1.00
O944   O     0.36948   0.75369   0.74691   0.00000  Uiso   1.00
O945   O     0.39155   0.90368   0.74502   0.00000  Uiso   1.00
O946   O     0.60845   0.76298   0.75499   0.00000  Uiso   1.00
O947   O     0.63662   0.84063   0.82247   0.00000  Uiso   1.00
O948   O     0.36338   0.82603   0.67753   0.00000  Uiso   1.00
O949   O     0.39764   0.83134   0.81439   0.00000  Uiso   1.00
O950   O     0.60236   0.83533   0.68561   0.00000  Uiso   1.00
Zn951  Zn    0.60366   0.83954   0.75540   0.00000  Uiso   1.00
Zn952  Zn    0.39634   0.82713   0.74461   0.00000  Uiso   1.00
C953   C     0.68167   0.93155   0.74879   0.00000  Uiso   1.00
C954   C     0.97680   0.82480   0.65987   0.00000  Uiso   1.00
C955   C     0.70569   0.85622   0.89040   0.00000  Uiso   1.00
C956   C     0.96098   0.81045   0.60960   0.00000  Uiso   1.00
C957   C     0.68190   0.88370   0.96889   0.00000  Uiso   1.00
C958   C     0.98477   0.78296   0.53111   0.00000  Uiso   1.00
C959   C     0.99817   0.87125   0.92089   0.00000  Uiso   1.00
C960   C     0.66850   0.79541   0.57912   0.00000  Uiso   1.00
C961   C     0.76374   0.85723   0.90825   0.00000  Uiso   1.00
C962   C     0.90292   0.80943   0.59175   0.00000  Uiso   1.00
C963   C     0.77591   0.85299   0.95677   0.00000  Uiso   1.00
C964   C     0.98499   0.73512   0.75121   0.00000  Uiso   1.00
C965   C     0.89076   0.81368   0.54323   0.00000  Uiso   1.00
C966   C     0.73705   0.87284   0.98741   0.00000  Uiso   1.00
C967   C     0.92961   0.79383   0.51259   0.00000  Uiso   1.00
C968   C     0.82590   0.83074   0.97535   0.00000  Uiso   1.00
C969   C     0.84076   0.83593   0.52465   0.00000  Uiso   1.00
C970   C     0.85545   0.78791   0.62012   0.00000  Uiso   1.00
C971   C     0.81121   0.87875   0.87988   0.00000  Uiso   1.00
C972   C     0.80699   0.86554   0.55362   0.00000  Uiso   1.00
C973   C     0.85967   0.80113   0.94638   0.00000  Uiso   1.00
C974   C     0.75441   0.88167   0.53558   0.00000  Uiso   1.00
C975   C     0.91226   0.78500   0.96443   0.00000  Uiso   1.00
C976   C     0.68953   0.98607   0.74811   0.00000  Uiso   1.00
C977   C     0.97714   0.68060   0.75189   0.00000  Uiso   1.00
C978   C     0.68986   0.84187   0.84013   0.00000  Uiso   1.00
H979   H     0.72733   0.90075   0.55926   0.00000  Uiso   1.00
H980   H     0.93402   0.99692   0.75549   0.00000  Uiso   1.00
H981   H     0.82887   0.78826   0.71854   0.00000  Uiso   1.00
H982   H     0.83780   0.87841   0.78146   0.00000  Uiso   1.00
H983   H     0.84003   0.81901   0.64330   0.00000  Uiso   1.00
H984   H     0.81820   0.76979   0.59642   0.00000  Uiso   1.00
H985   H     0.87121   0.75656   0.64219   0.00000  Uiso   1.00
H986   H     0.84847   0.89687   0.90358   0.00000  Uiso   1.00
H987   H     0.82664   0.84766   0.85670   0.00000  Uiso   1.00
H988   H     0.79545   0.91011   0.85781   0.00000  Uiso   1.00
H989   H     0.93933   0.76591   0.94074   0.00000  Uiso   1.00
H990   H     0.71269   0.79178   0.59254   0.00000  Uiso   1.00
H991   H     0.95397   0.87488   0.90746   0.00000  Uiso   1.00
H992   H     0.98444   0.89810   0.99189   0.00000  Uiso   1.00
H993   H     0.68223   0.76857   0.50811   0.00000  Uiso   1.00
H994   H     0.82052   0.87627   0.59044   0.00000  Uiso   1.00
H995   H     0.84615   0.79040   0.90956   0.00000  Uiso   1.00
H996   H     0.73265   0.66975   0.74451   0.00000  Uiso   1.00
N997   N     0.81362   0.81883   0.73740   0.00000  Uiso   1.00
N998   N     0.85305   0.84784   0.76261   0.00000  Uiso   1.00
O999   O     0.96386   0.91298   0.75310   0.00000  Uiso   1.00
O1000  O     0.70281   0.75369   0.74691   0.00000  Uiso   1.00
O1001  O     0.72488   0.90368   0.74502   0.00000  Uiso   1.00
O1002  O     0.94178   0.76298   0.75499   0.00000  Uiso   1.00
O1003  O     0.96995   0.84063   0.82247   0.00000  Uiso   1.00
O1004  O     0.69672   0.82603   0.67753   0.00000  Uiso   1.00
O1005  O     0.73098   0.83134   0.81439   0.00000  Uiso   1.00
O1006  O     0.93569   0.83533   0.68561   0.00000  Uiso   1.00
Zn1007 Zn    0.93700   0.83954   0.75540   0.00000  Uiso   1.00
Zn1008 Zn    0.72967   0.82713   0.74461   0.00000  Uiso   1.00
loop_
_geom_bond_atom_site_label_1
_geom_bond_atom_site_label_2
_geom_bond_distance
_geom_bond_site_symmetry_2
_ccdc_geom_bond_type
C1     C24     1.403   .     S
C1     O49     1.288   .     A
C1     O159    1.277   1_455 S
C2     C4      1.460   .     S
C2     O54     1.292   .     A
C2     O108    1.299   .     S
C3     C9      1.406   .     A
C3     C26     1.460   .     S
C3     C119    1.404   1_455 S
C4     C10     1.406   .     A
C4     C64     1.404   .     S
C5     C14     1.403   .     A
C5     C119    1.397   1_455 S
C5     H152    1.084   1_455 S
C6     C15     1.403   .     A
C6     C64     1.397   .     S
C6     H97     1.084   .     S
C7     H39     1.082   .     S
C7     C59     1.404   .     S
C7     C61     1.397   .     S
C8     H38     1.082   .     S
C8     C118    1.397   1_455 S
C8     C116    1.404   1_455 S
C9     C11     1.391   .     A
C9     C19     1.520   .     S
C10    C13     1.391   .     A
C10    C18     1.520   .     S
C11    C16     1.412   .     A
C11    C14     1.413   .     A
C12    C25     1.403   .     S
C12    O50     1.288   .     A
C12    O104    1.277   .     S
C13    C17     1.412   .     A
C13    C15     1.413   .     A
C14    C526    1.391   .     S
C15    C527    1.391   1_554 S
C16    C21     1.417   .     A
C16    C521    1.406   .     S
C17    C20     1.417   .     A
C17    C520    1.406   1_554 S
C18    H33     1.111   .     S
C18    H32     1.111   .     S
C18    H31     1.107   .     S
C19    H35     1.107   .     S
C19    H36     1.111   .     S
C19    H34     1.111   .     S
C20    H42     1.078   .     S
C20    C22     1.390   .     A
C21    C23     1.390   .     A
C21    H43     1.078   .     S
C22    H27     1.084   .     S
C22    C518    1.391   1_554 S
C23    H37     1.084   .     S
C23    C519    1.391   .     S
C24    C305    1.337   1_455 S
C24    H212    1.088   .     S
C25    C416    1.337   1_545 S
C25    H364    1.088   1_545 S
C26    O53     1.292   .     A
C26    O163    1.299   1_455 S
H28    C193    1.088   .     S
H29    N45     1.028   .     S
H30    N46     1.028   .     S
H40    C61     1.084   .     S
H41    C118    1.084   1_455 S
H44    C360    1.088   1_545 S
N45    N46     1.284   .     D
N45    Zn56    2.018   .     S
N46    Zn55    2.018   .     S
O47    Zn55    1.956   .     S
O47    C57     1.277   .     S
O48    Zn56    1.956   .     S
O48    C124    1.277   1_455 S
O49    Zn56    1.980   .     S
O50    Zn55    1.980   .     S
O51    Zn55    1.985   .     S
O51    C82     1.299   .     S
O52    Zn56    1.985   .     S
O52    C114    1.299   1_455 S
O53    Zn56    1.972   .     S
O54    Zn55    1.972   .     S
C57    C80     1.403   .     S
C57    O105    1.288   .     A
C58    C60     1.460   .     S
C58    O110    1.292   .     A
C58    O164    1.299   .     S
C59    C65     1.406   .     A
C59    C82     1.460   .     S
C60    C66     1.406   .     A
C60    C120    1.404   .     S
C61    C70     1.403   .     A
C62    C71     1.403   .     A
C62    C120    1.397   .     S
C62    H153    1.084   .     S
C63    H95     1.082   .     S
C63    C115    1.404   .     S
C63    C117    1.397   .     S
C64    H94     1.082   .     S
C65    C67     1.391   .     A
C65    C75     1.520   .     S
C66    C69     1.391   .     A
C66    C74     1.520   .     S
C67    C72     1.412   .     A
C67    C70     1.413   .     A
C68    C81     1.403   .     S
C68    O106    1.288   .     A
C68    O160    1.277   .     S
C69    C73     1.412   .     A
C69    C71     1.413   .     A
C70    C582    1.391   .     S
C71    C583    1.391   1_554 S
C72    C77     1.417   .     A
C72    C577    1.406   .     S
C73    C76     1.417   .     A
C73    C576    1.406   1_554 S
C74    H89     1.111   .     S
C74    H88     1.111   .     S
C74    H87     1.107   .     S
C75    H91     1.107   .     S
C75    H92     1.111   .     S
C75    H90     1.111   .     S
C76    H98     1.078   .     S
C76    C78     1.390   .     A
C77    C79     1.390   .     A
C77    H99     1.078   .     S
C78    H83     1.084   .     S
C78    C574    1.391   1_554 S
C79    H93     1.084   .     S
C79    C575    1.391   .     S
C80    C193    1.337   .     S
C80    H268    1.088   .     S
C81    C472    1.337   1_545 S
C81    H420    1.088   1_545 S
C82    O109    1.292   .     A
H84    C249    1.088   .     S
H85    N101    1.028   .     S
H86    N102    1.028   .     S
H96    C117    1.084   .     S
H100   C416    1.088   1_545 S
N101   N102    1.284   .     D
N101   Zn112   2.018   .     S
N102   Zn111   2.018   .     S
O103   Zn111   1.956   .     S
O103   C113    1.277   .     S
O104   Zn112   1.956   .     S
O105   Zn112   1.980   .     S
O106   Zn111   1.980   .     S
O107   Zn111   1.985   .     S
O107   C138    1.299   .     S
O108   Zn112   1.985   .     S
O109   Zn112   1.972   .     S
O110   Zn111   1.972   .     S
C113   C136    1.403   .     S
C113   O161    1.288   .     A
C114   C116    1.460   .     S
C114   O166    1.292   .     A
C114   O52     1.299   1_655 S
C115   C121    1.406   .     A
C115   C138    1.460   .     S
C116   C122    1.406   .     A
C116   C8      1.404   1_655 S
C117   C126    1.403   .     A
C118   C127    1.403   .     A
C118   C8      1.397   1_655 S
C118   H41     1.084   1_655 S
C119   H151    1.082   .     S
C119   C3      1.404   1_655 S
C119   C5      1.397   1_655 S
C120   H150    1.082   .     S
C121   C123    1.391   .     A
C121   C131    1.520   .     S
C122   C125    1.391   .     A
C122   C130    1.520   .     S
C123   C128    1.412   .     A
C123   C126    1.413   .     A
C124   C137    1.403   .     S
C124   O162    1.288   .     A
C124   O48     1.277   1_655 S
C125   C129    1.412   .     A
C125   C127    1.413   .     A
C126   C638    1.391   .     S
C127   C639    1.391   1_554 S
C128   C133    1.417   .     A
C128   C633    1.406   .     S
C129   C132    1.417   .     A
C129   C632    1.406   1_554 S
C130   H145    1.111   .     S
C130   H144    1.111   .     S
C130   H143    1.107   .     S
C131   H147    1.107   .     S
C131   H148    1.111   .     S
C131   H146    1.111   .     S
C132   H154    1.078   .     S
C132   C134    1.390   .     A
C133   C135    1.390   .     A
C133   H155    1.078   .     S
C134   H139    1.084   .     S
C134   C630    1.391   1_554 S
C135   H149    1.084   .     S
C135   C631    1.391   .     S
C136   C249    1.337   .     S
C136   H324    1.088   .     S
C137   C360    1.337   1_645 S
C137   H476    1.088   1_545 S
C138   O165    1.292   .     A
H140   C305    1.088   .     S
H141   N157    1.028   .     S
H142   N158    1.028   .     S
H152   C5      1.084   1_655 S
H156   C472    1.088   1_545 S
N157   N158    1.284   .     D
N157   Zn168   2.018   .     S
N158   Zn167   2.018   .     S
O159   Zn167   1.956   .     S
O159   C1      1.277   1_655 S
O160   Zn168   1.956   .     S
O161   Zn168   1.980   .     S
O162   Zn167   1.980   .     S
O163   Zn167   1.985   .     S
O163   C26     1.299   1_655 S
O164   Zn168   1.985   .     S
O165   Zn168   1.972   .     S
O166   Zn167   1.972   .     S
C169   C192    1.403   .     S
C169   O217    1.288   .     A
C169   O327    1.277   1_455 S
C170   C172    1.460   .     S
C170   O222    1.292   .     A
C170   O276    1.299   .     S
C171   C177    1.406   .     A
C171   C194    1.460   .     S
C171   C287    1.404   1_455 S
C172   C178    1.406   .     A
C172   C232    1.404   .     S
C173   C182    1.403   .     A
C173   C287    1.397   1_455 S
C173   H320    1.084   1_455 S
C174   C183    1.403   .     A
C174   C232    1.397   .     S
C174   H265    1.084   .     S
C175   H207    1.082   .     S
C175   C227    1.404   .     S
C175   C229    1.397   .     S
C176   H206    1.082   .     S
C176   C286    1.397   1_455 S
C176   C284    1.404   1_455 S
C177   C179    1.391   .     A
C177   C187    1.520   .     S
C178   C181    1.391   .     A
C178   C186    1.520   .     S
C179   C184    1.412   .     A
C179   C182    1.413   .     A
C180   C193    1.403   .     S
C180   O218    1.288   .     A
C180   O272    1.277   .     S
C181   C185    1.412   .     A
C181   C183    1.413   .     A
C182   C694    1.391   .     S
C183   C695    1.391   1_554 S
C184   C189    1.417   .     A
C184   C689    1.406   .     S
C185   C188    1.417   .     A
C185   C688    1.406   1_554 S
C186   H201    1.111   .     S
C186   H200    1.111   .     S
C186   H199    1.107   .     S
C187   H203    1.107   .     S
C187   H204    1.111   .     S
C187   H202    1.111   .     S
C188   H210    1.078   .     S
C188   C190    1.390   .     A
C189   C191    1.390   .     A
C189   H211    1.078   .     S
C190   H195    1.084   .     S
C190   C686    1.391   1_554 S
C191   H205    1.084   .     S
C191   C687    1.391   .     S
C192   C473    1.337   1_455 S
C192   H380    1.088   .     S
C194   O221    1.292   .     A
C194   O331    1.299   1_455 S
H196   C361    1.088   .     S
H197   N213    1.028   .     S
H198   N214    1.028   .     S
H208   C229    1.084   .     S
H209   C286    1.084   1_455 S
N213   N214    1.284   .     D
N213   Zn224   2.018   .     S
N214   Zn223   2.018   .     S
O215   Zn223   1.956   .     S
O215   C225    1.277   .     S
O216   Zn224   1.956   .     S
O216   C292    1.277   1_455 S
O217   Zn224   1.980   .     S
O218   Zn223   1.980   .     S
O219   Zn223   1.985   .     S
O219   C250    1.299   .     S
O220   Zn224   1.985   .     S
O220   C282    1.299   1_455 S
O221   Zn224   1.972   .     S
O222   Zn223   1.972   .     S
C225   C248    1.403   .     S
C225   O273    1.288   .     A
C226   C228    1.460   .     S
C226   O278    1.292   .     A
C226   O332    1.299   .     S
C227   C233    1.406   .     A
C227   C250    1.460   .     S
C228   C234    1.406   .     A
C228   C288    1.404   .     S
C229   C238    1.403   .     A
C230   C239    1.403   .     A
C230   C288    1.397   .     S
C230   H321    1.084   .     S
C231   H263    1.082   .     S
C231   C283    1.404   .     S
C231   C285    1.397   .     S
C232   H262    1.082   .     S
C233   C235    1.391   .     A
C233   C243    1.520   .     S
C234   C237    1.391   .     A
C234   C242    1.520   .     S
C235   C240    1.412   .     A
C235   C238    1.413   .     A
C236   C249    1.403   .     S
C236   O274    1.288   .     A
C236   O328    1.277   .     S
C237   C241    1.412   .     A
C237   C239    1.413   .     A
C238   C750    1.391   .     S
C239   C751    1.391   1_554 S
C240   C245    1.417   .     A
C240   C745    1.406   .     S
C241   C244    1.417   .     A
C241   C744    1.406   1_554 S
C242   H257    1.111   .     S
C242   H256    1.111   .     S
C242   H255    1.107   .     S
C243   H259    1.107   .     S
C243   H260    1.111   .     S
C243   H258    1.111   .     S
C244   H266    1.078   .     S
C244   C246    1.390   .     A
C245   C247    1.390   .     A
C245   H267    1.078   .     S
C246   H251    1.084   .     S
C246   C742    1.391   1_554 S
C247   H261    1.084   .     S
C247   C743    1.391   .     S
C248   C361    1.337   .     S
C248   H436    1.088   .     S
C250   O277    1.292   .     A
H252   C417    1.088   .     S
H253   N269    1.028   .     S
H254   N270    1.028   .     S
H264   C285    1.084   .     S
N269   N270    1.284   .     D
N269   Zn280   2.018   .     S
N270   Zn279   2.018   .     S
O271   Zn279   1.956   .     S
O271   C281    1.277   .     S
O272   Zn280   1.956   .     S
O273   Zn280   1.980   .     S
O274   Zn279   1.980   .     S
O275   Zn279   1.985   .     S
O275   C306    1.299   .     S
O276   Zn280   1.985   .     S
O277   Zn280   1.972   .     S
O278   Zn279   1.972   .     S
C281   C304    1.403   .     S
C281   O329    1.288   .     A
C282   C284    1.460   .     S
C282   O334    1.292   .     A
C282   O220    1.299   1_655 S
C283   C289    1.406   .     A
C283   C306    1.460   .     S
C284   C290    1.406   .     A
C284   C176    1.404   1_655 S
C285   C294    1.403   .     A
C286   C295    1.403   .     A
C286   C176    1.397   1_655 S
C286   H209    1.084   1_655 S
C287   H319    1.082   .     S
C287   C171    1.404   1_655 S
C287   C173    1.397   1_655 S
C288   H318    1.082   .     S
C289   C291    1.391   .     A
C289   C299    1.520   .     S
C290   C293    1.391   .     A
C290   C298    1.520   .     S
C291   C296    1.412   .     A
C291   C294    1.413   .     A
C292   C305    1.403   .     S
C292   O330    1.288   .     A
C292   O216    1.277   1_655 S
C293   C297    1.412   .     A
C293   C295    1.413   .     A
C294   C806    1.391   .     S
C295   C807    1.391   1_554 S
C296   C301    1.417   .     A
C296   C801    1.406   .     S
C297   C300    1.417   .     A
C297   C800    1.406   1_554 S
C298   H313    1.111   .     S
C298   H312    1.111   .     S
C298   H311    1.107   .     S
C299   H315    1.107   .     S
C299   H316    1.111   .     S
C299   H314    1.111   .     S
C300   H322    1.078   .     S
C300   C302    1.390   .     A
C301   C303    1.390   .     A
C301   H323    1.078   .     S
C302   H307    1.084   .     S
C302   C798    1.391   1_554 S
C303   H317    1.084   .     S
C303   C799    1.391   .     S
C304   C417    1.337   .     S
C304   H492    1.088   .     S
C305   C24     1.337   1_655 S
C306   O333    1.292   .     A
H308   C473    1.088   .     S
H309   N325    1.028   .     S
H310   N326    1.028   .     S
H320   C173    1.084   1_655 S
N325   N326    1.284   .     D
N325   Zn336   2.018   .     S
N326   Zn335   2.018   .     S
O327   Zn335   1.956   .     S
O327   C169    1.277   1_655 S
O328   Zn336   1.956   .     S
O329   Zn336   1.980   .     S
O330   Zn335   1.980   .     S
O331   Zn335   1.985   .     S
O331   C194    1.299   1_655 S
O332   Zn336   1.985   .     S
O333   Zn336   1.972   .     S
O334   Zn335   1.972   .     S
C337   C360    1.403   .     S
C337   O385    1.288   .     A
C337   O495    1.277   1_455 S
C338   C340    1.460   .     S
C338   O390    1.292   .     A
C338   O444    1.299   .     S
C339   C345    1.406   .     A
C339   C362    1.460   .     S
C339   C455    1.404   1_455 S
C340   C346    1.406   .     A
C340   C400    1.404   .     S
C341   C350    1.403   .     A
C341   C455    1.397   1_455 S
C341   H488    1.084   1_455 S
C342   C351    1.403   .     A
C342   C400    1.397   .     S
C342   H433    1.084   .     S
C343   H375    1.082   .     S
C343   C395    1.404   .     S
C343   C397    1.397   .     S
C344   H374    1.082   .     S
C344   C454    1.397   1_455 S
C344   C452    1.404   1_455 S
C345   C347    1.391   .     A
C345   C355    1.520   .     S
C346   C349    1.391   .     A
C346   C354    1.520   .     S
C347   C352    1.412   .     A
C347   C350    1.413   .     A
C348   C361    1.403   .     S
C348   O386    1.288   .     A
C348   O440    1.277   .     S
C349   C353    1.412   .     A
C349   C351    1.413   .     A
C350   C862    1.391   .     S
C351   C863    1.391   1_554 S
C352   C357    1.417   .     A
C352   C857    1.406   .     S
C353   C356    1.417   .     A
C353   C856    1.406   1_554 S
C354   H369    1.111   .     S
C354   H368    1.111   .     S
C354   H367    1.107   .     S
C355   H371    1.107   .     S
C355   H372    1.111   .     S
C355   H370    1.111   .     S
C356   H378    1.078   .     S
C356   C358    1.390   .     A
C357   C359    1.390   .     A
C357   H379    1.078   .     S
C358   H363    1.084   .     S
C358   C854    1.391   1_554 S
C359   H373    1.084   .     S
C359   C855    1.391   .     S
C360   C137    1.337   1_465 S
C360   H44     1.088   1_565 S
C362   O389    1.292   .     A
C362   O499    1.299   1_455 S
H364   C25     1.088   1_565 S
H365   N381    1.028   .     S
H366   N382    1.028   .     S
H376   C397    1.084   .     S
H377   C454    1.084   1_455 S
N381   N382    1.284   .     D
N381   Zn392   2.018   .     S
N382   Zn391   2.018   .     S
O383   Zn391   1.956   .     S
O383   C393    1.277   .     S
O384   Zn392   1.956   .     S
O384   C460    1.277   1_455 S
O385   Zn392   1.980   .     S
O386   Zn391   1.980   .     S
O387   Zn391   1.985   .     S
O387   C418    1.299   .     S
O388   Zn392   1.985   .     S
O388   C450    1.299   1_455 S
O389   Zn392   1.972   .     S
O390   Zn391   1.972   .     S
C393   C416    1.403   .     S
C393   O441    1.288   .     A
C394   C396    1.460   .     S
C394   O446    1.292   .     A
C394   O500    1.299   .     S
C395   C401    1.406   .     A
C395   C418    1.460   .     S
C396   C402    1.406   .     A
C396   C456    1.404   .     S
C397   C406    1.403   .     A
C398   C407    1.403   .     A
C398   C456    1.397   .     S
C398   H489    1.084   .     S
C399   H431    1.082   .     S
C399   C451    1.404   .     S
C399   C453    1.397   .     S
C400   H430    1.082   .     S
C401   C403    1.391   .     A
C401   C411    1.520   .     S
C402   C405    1.391   .     A
C402   C410    1.520   .     S
C403   C408    1.412   .     A
C403   C406    1.413   .     A
C404   C417    1.403   .     S
C404   O442    1.288   .     A
C404   O496    1.277   .     S
C405   C409    1.412   .     A
C405   C407    1.413   .     A
C406   C918    1.391   .     S
C407   C919    1.391   1_554 S
C408   C413    1.417   .     A
C408   C913    1.406   .     S
C409   C412    1.417   .     A
C409   C912    1.406   1_554 S
C410   H425    1.111   .     S
C410   H424    1.111   .     S
C410   H423    1.107   .     S
C411   H427    1.107   .     S
C411   H428    1.111   .     S
C411   H426    1.111   .     S
C412   H434    1.078   .     S
C412   C414    1.390   .     A
C413   C415    1.390   .     A
C413   H435    1.078   .     S
C414   H419    1.084   .     S
C414   C910    1.391   1_554 S
C415   H429    1.084   .     S
C415   C911    1.391   .     S
C416   C25     1.337   1_565 S
C416   H100    1.088   1_565 S
C418   O445    1.292   .     A
H420   C81     1.088   1_565 S
H421   N437    1.028   .     S
H422   N438    1.028   .     S
H432   C453    1.084   .     S
N437   N438    1.284   .     D
N437   Zn448   2.018   .     S
N438   Zn447   2.018   .     S
O439   Zn447   1.956   .     S
O439   C449    1.277   .     S
O440   Zn448   1.956   .     S
O441   Zn448   1.980   .     S
O442   Zn447   1.980   .     S
O443   Zn447   1.985   .     S
O443   C474    1.299   .     S
O444   Zn448   1.985   .     S
O445   Zn448   1.972   .     S
O446   Zn447   1.972   .     S
C449   C472    1.403   .     S
C449   O497    1.288   .     A
C450   C452    1.460   .     S
C450   O502    1.292   .     A
C450   O388    1.299   1_655 S
C451   C457    1.406   .     A
C451   C474    1.460   .     S
C452   C458    1.406   .     A
C452   C344    1.404   1_655 S
C453   C462    1.403   .     A
C454   C463    1.403   .     A
C454   C344    1.397   1_655 S
C454   H377    1.084   1_655 S
C455   H487    1.082   .     S
C455   C339    1.404   1_655 S
C455   C341    1.397   1_655 S
C456   H486    1.082   .     S
C457   C459    1.391   .     A
C457   C467    1.520   .     S
C458   C461    1.391   .     A
C458   C466    1.520   .     S
C459   C464    1.412   .     A
C459   C462    1.413   .     A
C460   C473    1.403   .     S
C460   O498    1.288   .     A
C460   O384    1.277   1_655 S
C461   C465    1.412   .     A
C461   C463    1.413   .     A
C462   C974    1.391   .     S
C463   C975    1.391   1_554 S
C464   C469    1.417   .     A
C464   C969    1.406   .     S
C465   C468    1.417   .     A
C465   C968    1.406   1_554 S
C466   H481    1.111   .     S
C466   H480    1.111   .     S
C466   H479    1.107   .     S
C467   H483    1.107   .     S
C467   H484    1.111   .     S
C467   H482    1.111   .     S
C468   H490    1.078   .     S
C468   C470    1.390   .     A
C469   C471    1.390   .     A
C469   H491    1.078   .     S
C470   H475    1.084   .     S
C470   C966    1.391   1_554 S
C471   H485    1.084   .     S
C471   C967    1.391   .     S
C472   C81     1.337   1_565 S
C472   H156    1.088   1_565 S
C473   C192    1.337   1_655 S
C474   O501    1.292   .     A
H476   C137    1.088   1_565 S
H477   N493    1.028   .     S
H478   N494    1.028   .     S
H488   C341    1.084   1_655 S
N493   N494    1.284   .     D
N493   Zn504   2.018   .     S
N494   Zn503   2.018   .     S
O495   Zn503   1.956   .     S
O495   C337    1.277   1_655 S
O496   Zn504   1.956   .     S
O497   Zn504   1.980   .     S
O498   Zn503   1.980   .     S
O499   Zn503   1.985   .     S
O499   C362    1.299   1_655 S
O500   Zn504   1.985   .     S
O501   Zn504   1.972   .     S
O502   Zn503   1.972   .     S
C505   C528    1.403   .     S
C505   O553    1.288   .     A
C505   O663    1.277   1_455 S
C506   C508    1.460   .     S
C506   O558    1.292   .     A
C506   O612    1.299   .     S
C507   C513    1.406   .     A
C507   C530    1.460   .     S
C507   C623    1.404   1_455 S
C508   C514    1.406   .     A
C508   C568    1.404   .     S
C509   C518    1.403   .     A
C509   C623    1.397   1_455 S
C509   H656    1.084   1_455 S
C510   C519    1.403   .     A
C510   C568    1.397   .     S
C510   H601    1.084   .     S
C511   H543    1.082   .     S
C511   C563    1.404   .     S
C511   C565    1.397   .     S
C512   H542    1.082   .     S
C512   C622    1.397   1_455 S
C512   C620    1.404   1_455 S
C513   C515    1.391   .     A
C513   C523    1.520   .     S
C514   C517    1.391   .     A
C514   C522    1.520   .     S
C515   C520    1.412   .     A
C515   C518    1.413   .     A
C516   C529    1.403   .     S
C516   O554    1.288   .     A
C516   O608    1.277   .     S
C517   C521    1.412   .     A
C517   C519    1.413   .     A
C518   C22     1.391   1_556 S
C520   C525    1.417   .     A
C520   C17     1.406   1_556 S
C521   C524    1.417   .     A
C522   H537    1.111   .     S
C522   H536    1.111   .     S
C522   H535    1.107   .     S
C523   H539    1.107   .     S
C523   H540    1.111   .     S
C523   H538    1.111   .     S
C524   H546    1.078   .     S
C524   C526    1.390   .     A
C525   C527    1.390   .     A
C525   H547    1.078   .     S
C526   H531    1.084   .     S
C527   H541    1.084   .     S
C527   C15     1.391   1_556 S
C528   C809    1.337   1_455 S
C528   H716    1.088   .     S
C529   C920    1.337   1_545 S
C529   H868    1.088   1_545 S
C530   O557    1.292   .     A
C530   O667    1.299   1_455 S
H532   C697    1.088   .     S
H533   N549    1.028   .     S
H534   N550    1.028   .     S
H544   C565    1.084   .     S
H545   C622    1.084   1_455 S
H548   C864    1.088   1_545 S
N549   N550    1.284   .     D
N549   Zn560   2.018   .     S
N550   Zn559   2.018   .     S
O551   Zn559   1.956   .     S
O551   C561    1.277   .     S
O552   Zn560   1.956   .     S
O552   C628    1.277   1_455 S
O553   Zn560   1.980   .     S
O554   Zn559   1.980   .     S
O555   Zn559   1.985   .     S
O555   C586    1.299   .     S
O556   Zn560   1.985   .     S
O556   C618    1.299   1_455 S
O557   Zn560   1.972   .     S
O558   Zn559   1.972   .     S
C561   C584    1.403   .     S
C561   O609    1.288   .     A
C562   C564    1.460   .     S
C562   O614    1.292   .     A
C562   O668    1.299   .     S
C563   C569    1.406   .     A
C563   C586    1.460   .     S
C564   C570    1.406   .     A
C564   C624    1.404   .     S
C565   C574    1.403   .     A
C566   C575    1.403   .     A
C566   C624    1.397   .     S
C566   H657    1.084   .     S
C567   H599    1.082   .     S
C567   C619    1.404   .     S
C567   C621    1.397   .     S
C568   H598    1.082   .     S
C569   C571    1.391   .     A
C569   C579    1.520   .     S
C570   C573    1.391   .     A
C570   C578    1.520   .     S
C571   C576    1.412   .     A
C571   C574    1.413   .     A
C572   C585    1.403   .     S
C572   O610    1.288   .     A
C572   O664    1.277   .     S
C573   C577    1.412   .     A
C573   C575    1.413   .     A
C574   C78     1.391   1_556 S
C576   C581    1.417   .     A
C576   C73     1.406   1_556 S
C577   C580    1.417   .     A
C578   H593    1.111   .     S
C578   H592    1.111   .     S
C578   H591    1.107   .     S
C579   H595    1.107   .     S
C579   H596    1.111   .     S
C579   H594    1.111   .     S
C580   H602    1.078   .     S
C580   C582    1.390   .     A
C581   C583    1.390   .     A
C581   H603    1.078   .     S
C582   H587    1.084   .     S
C583   H597    1.084   .     S
C583   C71     1.391   1_556 S
C584   C697    1.337   .     S
C584   H772    1.088   .     S
C585   C976    1.337   1_545 S
C585   H924    1.088   1_545 S
C586   O613    1.292   .     A
H588   C753    1.088   .     S
H589   N605    1.028   .     S
H590   N606    1.028   .     S
H600   C621    1.084   .     S
H604   C920    1.088   1_545 S
N605   N606    1.284   .     D
N605   Zn616   2.018   .     S
N606   Zn615   2.018   .     S
O607   Zn615   1.956   .     S
O607   C617    1.277   .     S
O608   Zn616   1.956   .     S
O609   Zn616   1.980   .     S
O610   Zn615   1.980   .     S
O611   Zn615   1.985   .     S
O611   C642    1.299   .     S
O612   Zn616   1.985   .     S
O613   Zn616   1.972   .     S
O614   Zn615   1.972   .     S
C617   C640    1.403   .     S
C617   O665    1.288   .     A
C618   C620    1.460   .     S
C618   O670    1.292   .     A
C618   O556    1.299   1_655 S
C619   C625    1.406   .     A
C619   C642    1.460   .     S
C620   C626    1.406   .     A
C620   C512    1.404   1_655 S
C621   C630    1.403   .     A
C622   C631    1.403   .     A
C622   C512    1.397   1_655 S
C622   H545    1.084   1_655 S
C623   H655    1.082   .     S
C623   C507    1.404   1_655 S
C623   C509    1.397   1_655 S
C624   H654    1.082   .     S
C625   C627    1.391   .     A
C625   C635    1.520   .     S
C626   C629    1.391   .     A
C626   C634    1.520   .     S
C627   C632    1.412   .     A
C627   C630    1.413   .     A
C628   C641    1.403   .     S
C628   O666    1.288   .     A
C628   O552    1.277   1_655 S
C629   C633    1.412   .     A
C629   C631    1.413   .     A
C630   C134    1.391   1_556 S
C632   C637    1.417   .     A
C632   C129    1.406   1_556 S
C633   C636    1.417   .     A
C634   H649    1.111   .     S
C634   H648    1.111   .     S
C634   H647    1.107   .     S
C635   H651    1.107   .     S
C635   H652    1.111   .     S
C635   H650    1.111   .     S
C636   H658    1.078   .     S
C636   C638    1.390   .     A
C637   C639    1.390   .     A
C637   H659    1.078   .     S
C638   H643    1.084   .     S
C639   H653    1.084   .     S
C639   C127    1.391   1_556 S
C640   C753    1.337   .     S
C640   H828    1.088   .     S
C641   C864    1.337   1_645 S
C641   H980    1.088   1_545 S
C642   O669    1.292   .     A
H644   C809    1.088   .     S
H645   N661    1.028   .     S
H646   N662    1.028   .     S
H656   C509    1.084   1_655 S
H660   C976    1.088   1_545 S
N661   N662    1.284   .     D
N661   Zn672   2.018   .     S
N662   Zn671   2.018   .     S
O663   Zn671   1.956   .     S
O663   C505    1.277   1_655 S
O664   Zn672   1.956   .     S
O665   Zn672   1.980   .     S
O666   Zn671   1.980   .     S
O667   Zn671   1.985   .     S
O667   C530    1.299   1_655 S
O668   Zn672   1.985   .     S
O669   Zn672   1.972   .     S
O670   Zn671   1.972   .     S
C673   C696    1.403   .     S
C673   O721    1.288   .     A
C673   O831    1.277   1_455 S
C674   C676    1.460   .     S
C674   O726    1.292   .     A
C674   O780    1.299   .     S
C675   C681    1.406   .     A
C675   C698    1.460   .     S
C675   C791    1.404   1_455 S
C676   C682    1.406   .     A
C676   C736    1.404   .     S
C677   C686    1.403   .     A
C677   C791    1.397   1_455 S
C677   H824    1.084   1_455 S
C678   C687    1.403   .     A
C678   C736    1.397   .     S
C678   H769    1.084   .     S
C679   H711    1.082   .     S
C679   C731    1.404   .     S
C679   C733    1.397   .     S
C680   H710    1.082   .     S
C680   C790    1.397   1_455 S
C680   C788    1.404   1_455 S
C681   C683    1.391   .     A
C681   C691    1.520   .     S
C682   C685    1.391   .     A
C682   C690    1.520   .     S
C683   C688    1.412   .     A
C683   C686    1.413   .     A
C684   C697    1.403   .     S
C684   O722    1.288   .     A
C684   O776    1.277   .     S
C685   C689    1.412   .     A
C685   C687    1.413   .     A
C686   C190    1.391   1_556 S
C688   C693    1.417   .     A
C688   C185    1.406   1_556 S
C689   C692    1.417   .     A
C690   H705    1.111   .     S
C690   H704    1.111   .     S
C690   H703    1.107   .     S
C691   H707    1.107   .     S
C691   H708    1.111   .     S
C691   H706    1.111   .     S
C692   H714    1.078   .     S
C692   C694    1.390   .     A
C693   C695    1.390   .     A
C693   H715    1.078   .     S
C694   H699    1.084   .     S
C695   H709    1.084   .     S
C695   C183    1.391   1_556 S
C696   C977    1.337   1_455 S
C696   H884    1.088   .     S
C698   O725    1.292   .     A
C698   O835    1.299   1_455 S
H700   C865    1.088   .     S
H701   N717    1.028   .     S
H702   N718    1.028   .     S
H712   C733    1.084   .     S
H713   C790    1.084   1_455 S
N717   N718    1.284   .     D
N717   Zn728   2.018   .     S
N718   Zn727   2.018   .     S
O719   Zn727   1.956   .     S
O719   C729    1.277   .     S
O720   Zn728   1.956   .     S
O720   C796    1.277   1_455 S
O721   Zn728   1.980   .     S
O722   Zn727   1.980   .     S
O723   Zn727   1.985   .     S
O723   C754    1.299   .     S
O724   Zn728   1.985   .     S
O724   C786    1.299   1_455 S
O725   Zn728   1.972   .     S
O726   Zn727   1.972   .     S
C729   C752    1.403   .     S
C729   O777    1.288   .     A
C730   C732    1.460   .     S
C730   O782    1.292   .     A
C730   O836    1.299   .     S
C731   C737    1.406   .     A
C731   C754    1.460   .     S
C732   C738    1.406   .     A
C732   C792    1.404   .     S
C733   C742    1.403   .     A
C734   C743    1.403   .     A
C734   C792    1.397   .     S
C734   H825    1.084   .     S
C735   H767    1.082   .     S
C735   C787    1.404   .     S
C735   C789    1.397   .     S
C736   H766    1.082   .     S
C737   C739    1.391   .     A
C737   C747    1.520   .     S
C738   C741    1.391   .     A
C738   C746    1.520   .     S
C739   C744    1.412   .     A
C739   C742    1.413   .     A
C740   C753    1.403   .     S
C740   O778    1.288   .     A
C740   O832    1.277   .     S
C741   C745    1.412   .     A
C741   C743    1.413   .     A
C742   C246    1.391   1_556 S
C744   C749    1.417   .     A
C744   C241    1.406   1_556 S
C745   C748    1.417   .     A
C746   H761    1.111   .     S
C746   H760    1.111   .     S
C746   H759    1.107   .     S
C747   H763    1.107   .     S
C747   H764    1.111   .     S
C747   H762    1.111   .     S
C748   H770    1.078   .     S
C748   C750    1.390   .     A
C749   C751    1.390   .     A
C749   H771    1.078   .     S
C750   H755    1.084   .     S
C751   H765    1.084   .     S
C751   C239    1.391   1_556 S
C752   C865    1.337   .     S
C752   H940    1.088   .     S
C754   O781    1.292   .     A
H756   C921    1.088   .     S
H757   N773    1.028   .     S
H758   N774    1.028   .     S
H768   C789    1.084   .     S
N773   N774    1.284   .     D
N773   Zn784   2.018   .     S
N774   Zn783   2.018   .     S
O775   Zn783   1.956   .     S
O775   C785    1.277   .     S
O776   Zn784   1.956   .     S
O777   Zn784   1.980   .     S
O778   Zn783   1.980   .     S
O779   Zn783   1.985   .     S
O779   C810    1.299   .     S
O780   Zn784   1.985   .     S
O781   Zn784   1.972   .     S
O782   Zn783   1.972   .     S
C785   C808    1.403   .     S
C785   O833    1.288   .     A
C786   C788    1.460   .     S
C786   O838    1.292   .     A
C786   O724    1.299   1_655 S
C787   C793    1.406   .     A
C787   C810    1.460   .     S
C788   C794    1.406   .     A
C788   C680    1.404   1_655 S
C789   C798    1.403   .     A
C790   C799    1.403   .     A
C790   C680    1.397   1_655 S
C790   H713    1.084   1_655 S
C791   H823    1.082   .     S
C791   C675    1.404   1_655 S
C791   C677    1.397   1_655 S
C792   H822    1.082   .     S
C793   C795    1.391   .     A
C793   C803    1.520   .     S
C794   C797    1.391   .     A
C794   C802    1.520   .     S
C795   C800    1.412   .     A
C795   C798    1.413   .     A
C796   C809    1.403   .     S
C796   O834    1.288   .     A
C796   O720    1.277   1_655 S
C797   C801    1.412   .     A
C797   C799    1.413   .     A
C798   C302    1.391   1_556 S
C800   C805    1.417   .     A
C800   C297    1.406   1_556 S
C801   C804    1.417   .     A
C802   H817    1.111   .     S
C802   H816    1.111   .     S
C802   H815    1.107   .     S
C803   H819    1.107   .     S
C803   H820    1.111   .     S
C803   H818    1.111   .     S
C804   H826    1.078   .     S
C804   C806    1.390   .     A
C805   C807    1.390   .     A
C805   H827    1.078   .     S
C806   H811    1.084   .     S
C807   H821    1.084   .     S
C807   C295    1.391   1_556 S
C808   C921    1.337   .     S
C808   H996    1.088   .     S
C809   C528    1.337   1_655 S
C810   O837    1.292   .     A
H812   C977    1.088   .     S
H813   N829    1.028   .     S
H814   N830    1.028   .     S
H824   C677    1.084   1_655 S
N829   N830    1.284   .     D
N829   Zn840   2.018   .     S
N830   Zn839   2.018   .     S
O831   Zn839   1.956   .     S
O831   C673    1.277   1_655 S
O832   Zn840   1.956   .     S
O833   Zn840   1.980   .     S
O834   Zn839   1.980   .     S
O835   Zn839   1.985   .     S
O835   C698    1.299   1_655 S
O836   Zn840   1.985   .     S
O837   Zn840   1.972   .     S
O838   Zn839   1.972   .     S
C841   C864    1.403   .     S
C841   O889    1.288   .     A
C841   O999    1.277   1_455 S
C842   C844    1.460   .     S
C842   O894    1.292   .     A
C842   O948    1.299   .     S
C843   C849    1.406   .     A
C843   C866    1.460   .     S
C843   C959    1.404   1_455 S
C844   C850    1.406   .     A
C844   C904    1.404   .     S
C845   C854    1.403   .     A
C845   C959    1.397   1_455 S
C845   H992    1.084   1_455 S
C846   C855    1.403   .     A
C846   C904    1.397   .     S
C846   H937    1.084   .     S
C847   H879    1.082   .     S
C847   C899    1.404   .     S
C847   C901    1.397   .     S
C848   H878    1.082   .     S
C848   C958    1.397   1_455 S
C848   C956    1.404   1_455 S
C849   C851    1.391   .     A
C849   C859    1.520   .     S
C850   C853    1.391   .     A
C850   C858    1.520   .     S
C851   C856    1.412   .     A
C851   C854    1.413   .     A
C852   C865    1.403   .     S
C852   O890    1.288   .     A
C852   O944    1.277   .     S
C853   C857    1.412   .     A
C853   C855    1.413   .     A
C854   C358    1.391   1_556 S
C856   C861    1.417   .     A
C856   C353    1.406   1_556 S
C857   C860    1.417   .     A
C858   H873    1.111   .     S
C858   H872    1.111   .     S
C858   H871    1.107   .     S
C859   H875    1.107   .     S
C859   H876    1.111   .     S
C859   H874    1.111   .     S
C860   H882    1.078   .     S
C860   C862    1.390   .     A
C861   C863    1.390   .     A
C861   H883    1.078   .     S
C862   H867    1.084   .     S
C863   H877    1.084   .     S
C863   C351    1.391   1_556 S
C864   C641    1.337   1_465 S
C864   H548    1.088   1_565 S
C866   O893    1.292   .     A
C866   O1003   1.299   1_455 S
H868   C529    1.088   1_565 S
H869   N885    1.028   .     S
H870   N886    1.028   .     S
H880   C901    1.084   .     S
H881   C958    1.084   1_455 S
N885   N886    1.284   .     D
N885   Zn896   2.018   .     S
N886   Zn895   2.018   .     S
O887   Zn895   1.956   .     S
O887   C897    1.277   .     S
O888   Zn896   1.956   .     S
O888   C964    1.277   1_455 S
O889   Zn896   1.980   .     S
O890   Zn895   1.980   .     S
O891   Zn895   1.985   .     S
O891   C922    1.299   .     S
O892   Zn896   1.985   .     S
O892   C954    1.299   1_455 S
O893   Zn896   1.972   .     S
O894   Zn895   1.972   .     S
C897   C920    1.403   .     S
C897   O945    1.288   .     A
C898   C900    1.460   .     S
C898   O950    1.292   .     A
C898   O1004   1.299   .     S
C899   C905    1.406   .     A
C899   C922    1.460   .     S
C900   C906    1.406   .     A
C900   C960    1.404   .     S
C901   C910    1.403   .     A
C902   C911    1.403   .     A
C902   C960    1.397   .     S
C902   H993    1.084   .     S
C903   H935    1.082   .     S
C903   C955    1.404   .     S
C903   C957    1.397   .     S
C904   H934    1.082   .     S
C905   C907    1.391   .     A
C905   C915    1.520   .     S
C906   C909    1.391   .     A
C906   C914    1.520   .     S
C907   C912    1.412   .     A
C907   C910    1.413   .     A
C908   C921    1.403   .     S
C908   O946    1.288   .     A
C908   O1000   1.277   .     S
C909   C913    1.412   .     A
C909   C911    1.413   .     A
C910   C414    1.391   1_556 S
C912   C917    1.417   .     A
C912   C409    1.406   1_556 S
C913   C916    1.417   .     A
C914   H929    1.111   .     S
C914   H928    1.111   .     S
C914   H927    1.107   .     S
C915   H931    1.107   .     S
C915   H932    1.111   .     S
C915   H930    1.111   .     S
C916   H938    1.078   .     S
C916   C918    1.390   .     A
C917   C919    1.390   .     A
C917   H939    1.078   .     S
C918   H923    1.084   .     S
C919   H933    1.084   .     S
C919   C407    1.391   1_556 S
C920   C529    1.337   1_565 S
C920   H604    1.088   1_565 S
C922   O949    1.292   .     A
H924   C585    1.088   1_565 S
H925   N941    1.028   .     S
H926   N942    1.028   .     S
H936   C957    1.084   .     S
N941   N942    1.284   .     D
N941   Zn952   2.018   .     S
N942   Zn951   2.018   .     S
O943   Zn951   1.956   .     S
O943   C953    1.277   .     S
O944   Zn952   1.956   .     S
O945   Zn952   1.980   .     S
O946   Zn951   1.980   .     S
O947   Zn951   1.985   .     S
O947   C978    1.299   .     S
O948   Zn952   1.985   .     S
O949   Zn952   1.972   .     S
O950   Zn951   1.972   .     S
C953   C976    1.403   .     S
C953   O1001   1.288   .     A
C954   C956    1.460   .     S
C954   O1006   1.292   .     A
C954   O892    1.299   1_655 S
C955   C961    1.406   .     A
C955   C978    1.460   .     S
C956   C962    1.406   .     A
C956   C848    1.404   1_655 S
C957   C966    1.403   .     A
C958   C967    1.403   .     A
C958   C848    1.397   1_655 S
C958   H881    1.084   1_655 S
C959   H991    1.082   .     S
C959   C843    1.404   1_655 S
C959   C845    1.397   1_655 S
C960   H990    1.082   .     S
C961   C963    1.391   .     A
C961   C971    1.520   .     S
C962   C965    1.391   .     A
C962   C970    1.520   .     S
C963   C968    1.412   .     A
C963   C966    1.413   .     A
C964   C977    1.403   .     S
C964   O1002   1.288   .     A
C964   O888    1.277   1_655 S
C965   C969    1.412   .     A
C965   C967    1.413   .     A
C966   C470    1.391   1_556 S
C968   C973    1.417   .     A
C968   C465    1.406   1_556 S
C969   C972    1.417   .     A
C970   H985    1.111   .     S
C970   H984    1.111   .     S
C970   H983    1.107   .     S
C971   H987    1.107   .     S
C971   H988    1.111   .     S
C971   H986    1.111   .     S
C972   H994    1.078   .     S
C972   C974    1.390   .     A
C973   C975    1.390   .     A
C973   H995    1.078   .     S
C974   H979    1.084   .     S
C975   H989    1.084   .     S
C975   C463    1.391   1_556 S
C976   C585    1.337   1_565 S
C976   H660    1.088   1_565 S
C977   C696    1.337   1_655 S
C978   O1005   1.292   .     A
H980   C641    1.088   1_565 S
H981   N997    1.028   .     S
H982   N998    1.028   .     S
H992   C845    1.084   1_655 S
N997   N998    1.284   .     D
N997   Zn1008  2.018   .     S
N998   Zn1007  2.018   .     S
O999   Zn1007  1.956   .     S
O999   C841    1.277   1_655 S
O1000  Zn1008  1.956   .     S
O1001  Zn1008  1.980   .     S
O1002  Zn1007  1.980   .     S
O1003  Zn1007  1.985   .     S
O1003  C866    1.299   1_655 S
O1004  Zn1008  1.985   .     S
O1005  Zn1008  1.972   .     S
O1006  Zn1007  1.972   .     S
