data_str_m3_o1_o10_pcu_sym.126
_audit_creation_date              2020-01-03
_audit_creation_method            'Materials Studio'
_symmetry_space_group_name_H-M    'P1'
_symmetry_Int_Tables_number       1
_symmetry_cell_setting            triclinic
loop_
_symmetry_equiv_pos_as_xyz
  x,y,z
_cell_length_a                    25.7830
_cell_length_b                    32.1871
_cell_length_c                    29.5390
_cell_angle_alpha                 89.9999
_cell_angle_beta                  98.6554
_cell_angle_gamma                 90.1168
loop_
_atom_site_label
_atom_site_type_symbol
_atom_site_fract_x
_atom_site_fract_y
_atom_site_fract_z
_atom_site_U_iso_or_equiv
_atom_site_adp_type
_atom_site_occupancy
C1     C     0.16663   0.08662   0.16665   0.00000  Uiso   1.00
C2     C     0.16670   0.24671   0.16669   0.00000  Uiso   1.00
C3     C     0.06703   0.16666   0.15469   0.00000  Uiso   1.00
C4     C     0.26630   0.16667   0.17865   0.00000  Uiso   1.00
C5     C     0.01199   0.16669   0.14824   0.00000  Uiso   1.00
C6     C     0.32134   0.16664   0.18509   0.00000  Uiso   1.00
C7     C     0.16734   0.02127   0.12546   0.00000  Uiso   1.00
C8     C     0.16599   0.31206   0.20787   0.00000  Uiso   1.00
C9     C     0.16741   0.31205   0.12548   0.00000  Uiso   1.00
C10    C     0.16593   0.02128   0.20785   0.00000  Uiso   1.00
C11    C     0.16671   0.29087   0.16668   0.00000  Uiso   1.00
C12    C     0.16662   0.04247   0.16665   0.00000  Uiso   1.00
C13    C     0.19825   0.19332   0.02811   0.00000  Uiso   1.00
C14    C     0.13509   0.14002   0.30522   0.00000  Uiso   1.00
C15    C     0.19823   0.19331   0.31349   0.00000  Uiso   1.00
C16    C     0.13511   0.14003   0.01984   0.00000  Uiso   1.00
H17    H     0.16801   0.29592   0.09337   0.00000  Uiso   1.00
H18    H     0.16532   0.03742   0.23996   0.00000  Uiso   1.00
N19    N     0.16665   0.16666   0.28573   0.00000  Uiso   1.00
N20    N     0.16668   0.16668   0.04760   0.00000  Uiso   1.00
O21    O     0.16666   0.10558   0.20487   0.00000  Uiso   1.00
O22    O     0.16667   0.22775   0.12846   0.00000  Uiso   1.00
O23    O     0.16666   0.10559   0.12843   0.00000  Uiso   1.00
O24    O     0.16667   0.22774   0.20490   0.00000  Uiso   1.00
O25    O     0.09058   0.16666   0.19595   0.00000  Uiso   1.00
O26    O     0.24275   0.16667   0.13739   0.00000  Uiso   1.00
O27    O     0.09058   0.16667   0.11950   0.00000  Uiso   1.00
O28    O     0.24275   0.16666   0.21383   0.00000  Uiso   1.00
Zn29   Zn    0.16667   0.16666   0.21771   0.00000  Uiso   1.00
Zn30   Zn    0.16667   0.16667   0.11563   0.00000  Uiso   1.00
H31    H     0.32469   0.16678   0.11328   0.00000  Uiso   1.00
H32    H     0.00865   0.16656   0.22005   0.00000  Uiso   1.00
H33    H     0.16789   0.03740   0.09334   0.00000  Uiso   1.00
H34    H     0.16544   0.29593   0.23999   0.00000  Uiso   1.00
H35    H     0.22351   0.21462   0.04958   0.00000  Uiso   1.00
H36    H     0.10983   0.11871   0.28375   0.00000  Uiso   1.00
H37    H     0.22346   0.21461   0.29863   0.00000  Uiso   1.00
H38    H     0.10987   0.11872   0.03470   0.00000  Uiso   1.00
C39    C     0.49996   0.08662   0.16665   0.00000  Uiso   1.00
C40    C     0.50004   0.24671   0.16669   0.00000  Uiso   1.00
C41    C     0.40036   0.16666   0.15469   0.00000  Uiso   1.00
C42    C     0.59964   0.16667   0.17865   0.00000  Uiso   1.00
C43    C     0.34532   0.16669   0.14824   0.00000  Uiso   1.00
C44    C     0.65468   0.16664   0.18509   0.00000  Uiso   1.00
C45    C     0.50068   0.02127   0.12546   0.00000  Uiso   1.00
C46    C     0.49932   0.31206   0.20787   0.00000  Uiso   1.00
C47    C     0.50074   0.31205   0.12548   0.00000  Uiso   1.00
C48    C     0.49926   0.02128   0.20785   0.00000  Uiso   1.00
C49    C     0.50005   0.29087   0.16668   0.00000  Uiso   1.00
C50    C     0.49995   0.04247   0.16665   0.00000  Uiso   1.00
C51    C     0.53158   0.19332   0.02811   0.00000  Uiso   1.00
C52    C     0.46842   0.14002   0.30522   0.00000  Uiso   1.00
C53    C     0.53156   0.19331   0.31349   0.00000  Uiso   1.00
C54    C     0.46844   0.14003   0.01984   0.00000  Uiso   1.00
H55    H     0.50135   0.29592   0.09337   0.00000  Uiso   1.00
H56    H     0.49865   0.03742   0.23996   0.00000  Uiso   1.00
N57    N     0.49999   0.16666   0.28573   0.00000  Uiso   1.00
N58    N     0.50001   0.16668   0.04760   0.00000  Uiso   1.00
O59    O     0.50000   0.10558   0.20487   0.00000  Uiso   1.00
O60    O     0.50000   0.22775   0.12846   0.00000  Uiso   1.00
O61    O     0.50000   0.10559   0.12843   0.00000  Uiso   1.00
O62    O     0.50000   0.22774   0.20490   0.00000  Uiso   1.00
O63    O     0.42392   0.16666   0.19595   0.00000  Uiso   1.00
O64    O     0.57608   0.16667   0.13739   0.00000  Uiso   1.00
O65    O     0.42392   0.16667   0.11950   0.00000  Uiso   1.00
O66    O     0.57608   0.16666   0.21383   0.00000  Uiso   1.00
Zn67   Zn    0.50000   0.16666   0.21771   0.00000  Uiso   1.00
Zn68   Zn    0.50000   0.16667   0.11563   0.00000  Uiso   1.00
H69    H     0.65802   0.16678   0.11328   0.00000  Uiso   1.00
H70    H     0.34198   0.16656   0.22005   0.00000  Uiso   1.00
H71    H     0.50123   0.03740   0.09334   0.00000  Uiso   1.00
H72    H     0.49877   0.29593   0.23999   0.00000  Uiso   1.00
H73    H     0.55684   0.21462   0.04958   0.00000  Uiso   1.00
H74    H     0.44316   0.11871   0.28375   0.00000  Uiso   1.00
H75    H     0.55680   0.21461   0.29863   0.00000  Uiso   1.00
H76    H     0.44320   0.11872   0.03470   0.00000  Uiso   1.00
C77    C     0.83330   0.08662   0.16665   0.00000  Uiso   1.00
C78    C     0.83337   0.24671   0.16669   0.00000  Uiso   1.00
C79    C     0.73369   0.16666   0.15469   0.00000  Uiso   1.00
C80    C     0.93297   0.16667   0.17865   0.00000  Uiso   1.00
C81    C     0.67866   0.16669   0.14824   0.00000  Uiso   1.00
C82    C     0.98801   0.16664   0.18509   0.00000  Uiso   1.00
C83    C     0.83401   0.02127   0.12546   0.00000  Uiso   1.00
C84    C     0.83266   0.31206   0.20787   0.00000  Uiso   1.00
C85    C     0.83407   0.31205   0.12548   0.00000  Uiso   1.00
C86    C     0.83259   0.02128   0.20785   0.00000  Uiso   1.00
C87    C     0.83338   0.29087   0.16668   0.00000  Uiso   1.00
C88    C     0.83329   0.04247   0.16665   0.00000  Uiso   1.00
C89    C     0.86491   0.19332   0.02811   0.00000  Uiso   1.00
C90    C     0.80175   0.14002   0.30522   0.00000  Uiso   1.00
C91    C     0.86489   0.19331   0.31349   0.00000  Uiso   1.00
C92    C     0.80177   0.14003   0.01984   0.00000  Uiso   1.00
H93    H     0.83468   0.29592   0.09337   0.00000  Uiso   1.00
H94    H     0.83199   0.03742   0.23996   0.00000  Uiso   1.00
N95    N     0.83332   0.16666   0.28573   0.00000  Uiso   1.00
N96    N     0.83335   0.16668   0.04760   0.00000  Uiso   1.00
O97    O     0.83333   0.10558   0.20487   0.00000  Uiso   1.00
O98    O     0.83334   0.22775   0.12846   0.00000  Uiso   1.00
O99    O     0.83333   0.10559   0.12843   0.00000  Uiso   1.00
O100   O     0.83334   0.22774   0.20490   0.00000  Uiso   1.00
O101   O     0.75725   0.16666   0.19595   0.00000  Uiso   1.00
O102   O     0.90942   0.16667   0.13739   0.00000  Uiso   1.00
O103   O     0.75725   0.16667   0.11950   0.00000  Uiso   1.00
O104   O     0.90942   0.16666   0.21383   0.00000  Uiso   1.00
Zn105  Zn    0.83333   0.16666   0.21771   0.00000  Uiso   1.00
Zn106  Zn    0.83333   0.16667   0.11563   0.00000  Uiso   1.00
H107   H     0.99135   0.16678   0.11328   0.00000  Uiso   1.00
H108   H     0.67531   0.16656   0.22005   0.00000  Uiso   1.00
H109   H     0.83456   0.03740   0.09334   0.00000  Uiso   1.00
H110   H     0.83211   0.29593   0.23999   0.00000  Uiso   1.00
H111   H     0.89017   0.21462   0.04958   0.00000  Uiso   1.00
H112   H     0.77649   0.11871   0.28375   0.00000  Uiso   1.00
H113   H     0.89013   0.21461   0.29863   0.00000  Uiso   1.00
H114   H     0.77654   0.11872   0.03470   0.00000  Uiso   1.00
C115   C     0.16663   0.41995   0.16665   0.00000  Uiso   1.00
C116   C     0.16670   0.58005   0.16669   0.00000  Uiso   1.00
C117   C     0.06703   0.49999   0.15469   0.00000  Uiso   1.00
C118   C     0.26630   0.50001   0.17865   0.00000  Uiso   1.00
C119   C     0.01199   0.50003   0.14824   0.00000  Uiso   1.00
C120   C     0.32134   0.49997   0.18509   0.00000  Uiso   1.00
C121   C     0.16734   0.35461   0.12546   0.00000  Uiso   1.00
C122   C     0.16599   0.64540   0.20787   0.00000  Uiso   1.00
C123   C     0.16741   0.64539   0.12548   0.00000  Uiso   1.00
C124   C     0.16593   0.35461   0.20785   0.00000  Uiso   1.00
C125   C     0.16671   0.62420   0.16668   0.00000  Uiso   1.00
C126   C     0.16662   0.37580   0.16665   0.00000  Uiso   1.00
C127   C     0.19825   0.52665   0.02811   0.00000  Uiso   1.00
C128   C     0.13509   0.47335   0.30522   0.00000  Uiso   1.00
C129   C     0.19823   0.52664   0.31349   0.00000  Uiso   1.00
C130   C     0.13511   0.47336   0.01984   0.00000  Uiso   1.00
H131   H     0.16801   0.62925   0.09337   0.00000  Uiso   1.00
H132   H     0.16532   0.37075   0.23996   0.00000  Uiso   1.00
N133   N     0.16665   0.49999   0.28573   0.00000  Uiso   1.00
N134   N     0.16668   0.50001   0.04760   0.00000  Uiso   1.00
O135   O     0.16666   0.43892   0.20487   0.00000  Uiso   1.00
O136   O     0.16667   0.56108   0.12846   0.00000  Uiso   1.00
O137   O     0.16666   0.43893   0.12843   0.00000  Uiso   1.00
O138   O     0.16667   0.56107   0.20490   0.00000  Uiso   1.00
O139   O     0.09058   0.50000   0.19595   0.00000  Uiso   1.00
O140   O     0.24275   0.50000   0.13739   0.00000  Uiso   1.00
O141   O     0.09058   0.50000   0.11950   0.00000  Uiso   1.00
O142   O     0.24275   0.50000   0.21383   0.00000  Uiso   1.00
Zn143  Zn    0.16667   0.49999   0.21771   0.00000  Uiso   1.00
Zn144  Zn    0.16667   0.50001   0.11563   0.00000  Uiso   1.00
H145   H     0.32469   0.50011   0.11328   0.00000  Uiso   1.00
H146   H     0.00865   0.49989   0.22005   0.00000  Uiso   1.00
H147   H     0.16789   0.37073   0.09334   0.00000  Uiso   1.00
H148   H     0.16544   0.62927   0.23999   0.00000  Uiso   1.00
H149   H     0.22351   0.54795   0.04958   0.00000  Uiso   1.00
H150   H     0.10983   0.45205   0.28375   0.00000  Uiso   1.00
H151   H     0.22346   0.54794   0.29863   0.00000  Uiso   1.00
H152   H     0.10987   0.45206   0.03470   0.00000  Uiso   1.00
C153   C     0.49996   0.41995   0.16665   0.00000  Uiso   1.00
C154   C     0.50004   0.58005   0.16669   0.00000  Uiso   1.00
C155   C     0.40036   0.49999   0.15469   0.00000  Uiso   1.00
C156   C     0.59964   0.50001   0.17865   0.00000  Uiso   1.00
C157   C     0.34532   0.50003   0.14824   0.00000  Uiso   1.00
C158   C     0.65468   0.49997   0.18509   0.00000  Uiso   1.00
C159   C     0.50068   0.35461   0.12546   0.00000  Uiso   1.00
C160   C     0.49932   0.64540   0.20787   0.00000  Uiso   1.00
C161   C     0.50074   0.64539   0.12548   0.00000  Uiso   1.00
C162   C     0.49926   0.35461   0.20785   0.00000  Uiso   1.00
C163   C     0.50005   0.62420   0.16668   0.00000  Uiso   1.00
C164   C     0.49995   0.37580   0.16665   0.00000  Uiso   1.00
C165   C     0.53158   0.52665   0.02811   0.00000  Uiso   1.00
C166   C     0.46842   0.47335   0.30522   0.00000  Uiso   1.00
C167   C     0.53156   0.52664   0.31349   0.00000  Uiso   1.00
C168   C     0.46844   0.47336   0.01984   0.00000  Uiso   1.00
H169   H     0.50135   0.62925   0.09337   0.00000  Uiso   1.00
H170   H     0.49865   0.37075   0.23996   0.00000  Uiso   1.00
N171   N     0.49999   0.49999   0.28573   0.00000  Uiso   1.00
N172   N     0.50001   0.50001   0.04760   0.00000  Uiso   1.00
O173   O     0.50000   0.43892   0.20487   0.00000  Uiso   1.00
O174   O     0.50000   0.56108   0.12846   0.00000  Uiso   1.00
O175   O     0.50000   0.43893   0.12843   0.00000  Uiso   1.00
O176   O     0.50000   0.56107   0.20490   0.00000  Uiso   1.00
O177   O     0.42392   0.50000   0.19595   0.00000  Uiso   1.00
O178   O     0.57608   0.50000   0.13739   0.00000  Uiso   1.00
O179   O     0.42392   0.50000   0.11950   0.00000  Uiso   1.00
O180   O     0.57608   0.50000   0.21383   0.00000  Uiso   1.00
Zn181  Zn    0.50000   0.49999   0.21771   0.00000  Uiso   1.00
Zn182  Zn    0.50000   0.50001   0.11563   0.00000  Uiso   1.00
H183   H     0.65802   0.50011   0.11328   0.00000  Uiso   1.00
H184   H     0.34198   0.49989   0.22005   0.00000  Uiso   1.00
H185   H     0.50123   0.37073   0.09334   0.00000  Uiso   1.00
H186   H     0.49877   0.62927   0.23999   0.00000  Uiso   1.00
H187   H     0.55684   0.54795   0.04958   0.00000  Uiso   1.00
H188   H     0.44316   0.45205   0.28375   0.00000  Uiso   1.00
H189   H     0.55680   0.54794   0.29863   0.00000  Uiso   1.00
H190   H     0.44320   0.45206   0.03470   0.00000  Uiso   1.00
C191   C     0.83330   0.41995   0.16665   0.00000  Uiso   1.00
C192   C     0.83337   0.58005   0.16669   0.00000  Uiso   1.00
C193   C     0.73369   0.49999   0.15469   0.00000  Uiso   1.00
C194   C     0.93297   0.50001   0.17865   0.00000  Uiso   1.00
C195   C     0.67866   0.50003   0.14824   0.00000  Uiso   1.00
C196   C     0.98801   0.49997   0.18509   0.00000  Uiso   1.00
C197   C     0.83401   0.35461   0.12546   0.00000  Uiso   1.00
C198   C     0.83266   0.64540   0.20787   0.00000  Uiso   1.00
C199   C     0.83407   0.64539   0.12548   0.00000  Uiso   1.00
C200   C     0.83259   0.35461   0.20785   0.00000  Uiso   1.00
C201   C     0.83338   0.62420   0.16668   0.00000  Uiso   1.00
C202   C     0.83329   0.37580   0.16665   0.00000  Uiso   1.00
C203   C     0.86491   0.52665   0.02811   0.00000  Uiso   1.00
C204   C     0.80175   0.47335   0.30522   0.00000  Uiso   1.00
C205   C     0.86489   0.52664   0.31349   0.00000  Uiso   1.00
C206   C     0.80177   0.47336   0.01984   0.00000  Uiso   1.00
H207   H     0.83468   0.62925   0.09337   0.00000  Uiso   1.00
H208   H     0.83199   0.37075   0.23996   0.00000  Uiso   1.00
N209   N     0.83332   0.49999   0.28573   0.00000  Uiso   1.00
N210   N     0.83335   0.50001   0.04760   0.00000  Uiso   1.00
O211   O     0.83333   0.43892   0.20487   0.00000  Uiso   1.00
O212   O     0.83334   0.56108   0.12846   0.00000  Uiso   1.00
O213   O     0.83333   0.43893   0.12843   0.00000  Uiso   1.00
O214   O     0.83334   0.56107   0.20490   0.00000  Uiso   1.00
O215   O     0.75725   0.50000   0.19595   0.00000  Uiso   1.00
O216   O     0.90942   0.50000   0.13739   0.00000  Uiso   1.00
O217   O     0.75725   0.50000   0.11950   0.00000  Uiso   1.00
O218   O     0.90942   0.50000   0.21383   0.00000  Uiso   1.00
Zn219  Zn    0.83333   0.49999   0.21771   0.00000  Uiso   1.00
Zn220  Zn    0.83333   0.50001   0.11563   0.00000  Uiso   1.00
H221   H     0.99135   0.50011   0.11328   0.00000  Uiso   1.00
H222   H     0.67531   0.49989   0.22005   0.00000  Uiso   1.00
H223   H     0.83456   0.37073   0.09334   0.00000  Uiso   1.00
H224   H     0.83211   0.62927   0.23999   0.00000  Uiso   1.00
H225   H     0.89017   0.54795   0.04958   0.00000  Uiso   1.00
H226   H     0.77649   0.45205   0.28375   0.00000  Uiso   1.00
H227   H     0.89013   0.54794   0.29863   0.00000  Uiso   1.00
H228   H     0.77654   0.45206   0.03470   0.00000  Uiso   1.00
C229   C     0.16663   0.75329   0.16665   0.00000  Uiso   1.00
C230   C     0.16670   0.91338   0.16669   0.00000  Uiso   1.00
C231   C     0.06703   0.83333   0.15469   0.00000  Uiso   1.00
C232   C     0.26630   0.83334   0.17865   0.00000  Uiso   1.00
C233   C     0.01199   0.83336   0.14824   0.00000  Uiso   1.00
C234   C     0.32134   0.83331   0.18509   0.00000  Uiso   1.00
C235   C     0.16734   0.68794   0.12546   0.00000  Uiso   1.00
C236   C     0.16599   0.97873   0.20787   0.00000  Uiso   1.00
C237   C     0.16741   0.97872   0.12548   0.00000  Uiso   1.00
C238   C     0.16593   0.68795   0.20785   0.00000  Uiso   1.00
C239   C     0.16671   0.95753   0.16668   0.00000  Uiso   1.00
C240   C     0.16662   0.70913   0.16665   0.00000  Uiso   1.00
C241   C     0.19825   0.85998   0.02811   0.00000  Uiso   1.00
C242   C     0.13509   0.80668   0.30522   0.00000  Uiso   1.00
C243   C     0.19823   0.85997   0.31349   0.00000  Uiso   1.00
C244   C     0.13511   0.80669   0.01984   0.00000  Uiso   1.00
H245   H     0.16801   0.96259   0.09337   0.00000  Uiso   1.00
H246   H     0.16532   0.70408   0.23996   0.00000  Uiso   1.00
N247   N     0.16665   0.83332   0.28573   0.00000  Uiso   1.00
N248   N     0.16668   0.83334   0.04760   0.00000  Uiso   1.00
O249   O     0.16666   0.77225   0.20487   0.00000  Uiso   1.00
O250   O     0.16667   0.89442   0.12846   0.00000  Uiso   1.00
O251   O     0.16666   0.77226   0.12843   0.00000  Uiso   1.00
O252   O     0.16667   0.89441   0.20490   0.00000  Uiso   1.00
O253   O     0.09058   0.83333   0.19595   0.00000  Uiso   1.00
O254   O     0.24275   0.83334   0.13739   0.00000  Uiso   1.00
O255   O     0.09058   0.83334   0.11950   0.00000  Uiso   1.00
O256   O     0.24275   0.83333   0.21383   0.00000  Uiso   1.00
Zn257  Zn    0.16667   0.83333   0.21771   0.00000  Uiso   1.00
Zn258  Zn    0.16667   0.83334   0.11563   0.00000  Uiso   1.00
H259   H     0.32469   0.83344   0.11328   0.00000  Uiso   1.00
H260   H     0.00865   0.83322   0.22005   0.00000  Uiso   1.00
H261   H     0.16789   0.70407   0.09334   0.00000  Uiso   1.00
H262   H     0.16544   0.96260   0.23999   0.00000  Uiso   1.00
H263   H     0.22351   0.88129   0.04958   0.00000  Uiso   1.00
H264   H     0.10983   0.78538   0.28375   0.00000  Uiso   1.00
H265   H     0.22346   0.88128   0.29863   0.00000  Uiso   1.00
H266   H     0.10987   0.78539   0.03470   0.00000  Uiso   1.00
C267   C     0.49996   0.75329   0.16665   0.00000  Uiso   1.00
C268   C     0.50004   0.91338   0.16669   0.00000  Uiso   1.00
C269   C     0.40036   0.83333   0.15469   0.00000  Uiso   1.00
C270   C     0.59964   0.83334   0.17865   0.00000  Uiso   1.00
C271   C     0.34532   0.83336   0.14824   0.00000  Uiso   1.00
C272   C     0.65468   0.83331   0.18509   0.00000  Uiso   1.00
C273   C     0.50068   0.68794   0.12546   0.00000  Uiso   1.00
C274   C     0.49932   0.97873   0.20787   0.00000  Uiso   1.00
C275   C     0.50074   0.97872   0.12548   0.00000  Uiso   1.00
C276   C     0.49926   0.68795   0.20785   0.00000  Uiso   1.00
C277   C     0.50005   0.95753   0.16668   0.00000  Uiso   1.00
C278   C     0.49995   0.70913   0.16665   0.00000  Uiso   1.00
C279   C     0.53158   0.85998   0.02811   0.00000  Uiso   1.00
C280   C     0.46842   0.80668   0.30522   0.00000  Uiso   1.00
C281   C     0.53156   0.85997   0.31349   0.00000  Uiso   1.00
C282   C     0.46844   0.80669   0.01984   0.00000  Uiso   1.00
H283   H     0.50135   0.96259   0.09337   0.00000  Uiso   1.00
H284   H     0.49865   0.70408   0.23996   0.00000  Uiso   1.00
N285   N     0.49999   0.83332   0.28573   0.00000  Uiso   1.00
N286   N     0.50001   0.83334   0.04760   0.00000  Uiso   1.00
O287   O     0.50000   0.77225   0.20487   0.00000  Uiso   1.00
O288   O     0.50000   0.89442   0.12846   0.00000  Uiso   1.00
O289   O     0.50000   0.77226   0.12843   0.00000  Uiso   1.00
O290   O     0.50000   0.89441   0.20490   0.00000  Uiso   1.00
O291   O     0.42392   0.83333   0.19595   0.00000  Uiso   1.00
O292   O     0.57608   0.83334   0.13739   0.00000  Uiso   1.00
O293   O     0.42392   0.83334   0.11950   0.00000  Uiso   1.00
O294   O     0.57608   0.83333   0.21383   0.00000  Uiso   1.00
Zn295  Zn    0.50000   0.83333   0.21771   0.00000  Uiso   1.00
Zn296  Zn    0.50000   0.83334   0.11563   0.00000  Uiso   1.00
H297   H     0.65802   0.83344   0.11328   0.00000  Uiso   1.00
H298   H     0.34198   0.83322   0.22005   0.00000  Uiso   1.00
H299   H     0.50123   0.70407   0.09334   0.00000  Uiso   1.00
H300   H     0.49877   0.96260   0.23999   0.00000  Uiso   1.00
H301   H     0.55684   0.88129   0.04958   0.00000  Uiso   1.00
H302   H     0.44316   0.78538   0.28375   0.00000  Uiso   1.00
H303   H     0.55680   0.88128   0.29863   0.00000  Uiso   1.00
H304   H     0.44320   0.78539   0.03470   0.00000  Uiso   1.00
C305   C     0.83330   0.75329   0.16665   0.00000  Uiso   1.00
C306   C     0.83337   0.91338   0.16669   0.00000  Uiso   1.00
C307   C     0.73369   0.83333   0.15469   0.00000  Uiso   1.00
C308   C     0.93297   0.83334   0.17865   0.00000  Uiso   1.00
C309   C     0.67866   0.83336   0.14824   0.00000  Uiso   1.00
C310   C     0.98801   0.83331   0.18509   0.00000  Uiso   1.00
C311   C     0.83401   0.68794   0.12546   0.00000  Uiso   1.00
C312   C     0.83266   0.97873   0.20787   0.00000  Uiso   1.00
C313   C     0.83407   0.97872   0.12548   0.00000  Uiso   1.00
C314   C     0.83259   0.68795   0.20785   0.00000  Uiso   1.00
C315   C     0.83338   0.95753   0.16668   0.00000  Uiso   1.00
C316   C     0.83329   0.70913   0.16665   0.00000  Uiso   1.00
C317   C     0.86491   0.85998   0.02811   0.00000  Uiso   1.00
C318   C     0.80175   0.80668   0.30522   0.00000  Uiso   1.00
C319   C     0.86489   0.85997   0.31349   0.00000  Uiso   1.00
C320   C     0.80177   0.80669   0.01984   0.00000  Uiso   1.00
H321   H     0.83468   0.96259   0.09337   0.00000  Uiso   1.00
H322   H     0.83199   0.70408   0.23996   0.00000  Uiso   1.00
N323   N     0.83332   0.83332   0.28573   0.00000  Uiso   1.00
N324   N     0.83335   0.83334   0.04760   0.00000  Uiso   1.00
O325   O     0.83333   0.77225   0.20487   0.00000  Uiso   1.00
O326   O     0.83334   0.89442   0.12846   0.00000  Uiso   1.00
O327   O     0.83333   0.77226   0.12843   0.00000  Uiso   1.00
O328   O     0.83334   0.89441   0.20490   0.00000  Uiso   1.00
O329   O     0.75725   0.83333   0.19595   0.00000  Uiso   1.00
O330   O     0.90942   0.83334   0.13739   0.00000  Uiso   1.00
O331   O     0.75725   0.83334   0.11950   0.00000  Uiso   1.00
O332   O     0.90942   0.83333   0.21383   0.00000  Uiso   1.00
Zn333  Zn    0.83333   0.83333   0.21771   0.00000  Uiso   1.00
Zn334  Zn    0.83333   0.83334   0.11563   0.00000  Uiso   1.00
H335   H     0.99135   0.83344   0.11328   0.00000  Uiso   1.00
H336   H     0.67531   0.83322   0.22005   0.00000  Uiso   1.00
H337   H     0.83456   0.70407   0.09334   0.00000  Uiso   1.00
H338   H     0.83211   0.96260   0.23999   0.00000  Uiso   1.00
H339   H     0.89017   0.88129   0.04958   0.00000  Uiso   1.00
H340   H     0.77649   0.78538   0.28375   0.00000  Uiso   1.00
H341   H     0.89013   0.88128   0.29863   0.00000  Uiso   1.00
H342   H     0.77654   0.78539   0.03470   0.00000  Uiso   1.00
C343   C     0.16663   0.08662   0.49998   0.00000  Uiso   1.00
C344   C     0.16670   0.24671   0.50002   0.00000  Uiso   1.00
C345   C     0.06703   0.16666   0.48802   0.00000  Uiso   1.00
C346   C     0.26630   0.16667   0.51198   0.00000  Uiso   1.00
C347   C     0.01199   0.16669   0.48157   0.00000  Uiso   1.00
C348   C     0.32134   0.16664   0.51843   0.00000  Uiso   1.00
C349   C     0.16734   0.02127   0.45880   0.00000  Uiso   1.00
C350   C     0.16599   0.31206   0.54120   0.00000  Uiso   1.00
C351   C     0.16741   0.31205   0.45882   0.00000  Uiso   1.00
C352   C     0.16593   0.02128   0.54118   0.00000  Uiso   1.00
C353   C     0.16671   0.29087   0.50002   0.00000  Uiso   1.00
C354   C     0.16662   0.04247   0.49998   0.00000  Uiso   1.00
C355   C     0.19825   0.19332   0.36145   0.00000  Uiso   1.00
C356   C     0.13509   0.14002   0.63855   0.00000  Uiso   1.00
C357   C     0.19823   0.19331   0.64682   0.00000  Uiso   1.00
C358   C     0.13511   0.14003   0.35318   0.00000  Uiso   1.00
H359   H     0.16801   0.29592   0.42671   0.00000  Uiso   1.00
H360   H     0.16532   0.03742   0.57330   0.00000  Uiso   1.00
N361   N     0.16665   0.16666   0.61907   0.00000  Uiso   1.00
N362   N     0.16668   0.16668   0.38093   0.00000  Uiso   1.00
O363   O     0.16666   0.10558   0.53821   0.00000  Uiso   1.00
O364   O     0.16667   0.22775   0.46179   0.00000  Uiso   1.00
O365   O     0.16666   0.10559   0.46176   0.00000  Uiso   1.00
O366   O     0.16667   0.22774   0.53824   0.00000  Uiso   1.00
O367   O     0.09058   0.16666   0.52928   0.00000  Uiso   1.00
O368   O     0.24275   0.16667   0.47072   0.00000  Uiso   1.00
O369   O     0.09058   0.16667   0.45284   0.00000  Uiso   1.00
O370   O     0.24275   0.16666   0.54716   0.00000  Uiso   1.00
Zn371  Zn    0.16667   0.16666   0.55104   0.00000  Uiso   1.00
Zn372  Zn    0.16667   0.16667   0.44896   0.00000  Uiso   1.00
H373   H     0.32469   0.16678   0.44662   0.00000  Uiso   1.00
H374   H     0.00865   0.16656   0.55338   0.00000  Uiso   1.00
H375   H     0.16789   0.03740   0.42667   0.00000  Uiso   1.00
H376   H     0.16544   0.29593   0.57333   0.00000  Uiso   1.00
H377   H     0.22351   0.21462   0.38291   0.00000  Uiso   1.00
H378   H     0.10983   0.11871   0.61709   0.00000  Uiso   1.00
H379   H     0.22346   0.21461   0.63197   0.00000  Uiso   1.00
H380   H     0.10987   0.11872   0.36803   0.00000  Uiso   1.00
C381   C     0.49996   0.08662   0.49998   0.00000  Uiso   1.00
C382   C     0.50004   0.24671   0.50002   0.00000  Uiso   1.00
C383   C     0.40036   0.16666   0.48802   0.00000  Uiso   1.00
C384   C     0.59964   0.16667   0.51198   0.00000  Uiso   1.00
C385   C     0.34532   0.16669   0.48157   0.00000  Uiso   1.00
C386   C     0.65468   0.16664   0.51843   0.00000  Uiso   1.00
C387   C     0.50068   0.02127   0.45880   0.00000  Uiso   1.00
C388   C     0.49932   0.31206   0.54120   0.00000  Uiso   1.00
C389   C     0.50074   0.31205   0.45882   0.00000  Uiso   1.00
C390   C     0.49926   0.02128   0.54118   0.00000  Uiso   1.00
C391   C     0.50005   0.29087   0.50002   0.00000  Uiso   1.00
C392   C     0.49995   0.04247   0.49998   0.00000  Uiso   1.00
C393   C     0.53158   0.19332   0.36145   0.00000  Uiso   1.00
C394   C     0.46842   0.14002   0.63855   0.00000  Uiso   1.00
C395   C     0.53156   0.19331   0.64682   0.00000  Uiso   1.00
C396   C     0.46844   0.14003   0.35318   0.00000  Uiso   1.00
H397   H     0.50135   0.29592   0.42671   0.00000  Uiso   1.00
H398   H     0.49865   0.03742   0.57330   0.00000  Uiso   1.00
N399   N     0.49999   0.16666   0.61907   0.00000  Uiso   1.00
N400   N     0.50001   0.16668   0.38093   0.00000  Uiso   1.00
O401   O     0.50000   0.10558   0.53821   0.00000  Uiso   1.00
O402   O     0.50000   0.22775   0.46179   0.00000  Uiso   1.00
O403   O     0.50000   0.10559   0.46176   0.00000  Uiso   1.00
O404   O     0.50000   0.22774   0.53824   0.00000  Uiso   1.00
O405   O     0.42392   0.16666   0.52928   0.00000  Uiso   1.00
O406   O     0.57608   0.16667   0.47072   0.00000  Uiso   1.00
O407   O     0.42392   0.16667   0.45284   0.00000  Uiso   1.00
O408   O     0.57608   0.16666   0.54716   0.00000  Uiso   1.00
Zn409  Zn    0.50000   0.16666   0.55104   0.00000  Uiso   1.00
Zn410  Zn    0.50000   0.16667   0.44896   0.00000  Uiso   1.00
H411   H     0.65802   0.16678   0.44662   0.00000  Uiso   1.00
H412   H     0.34198   0.16656   0.55338   0.00000  Uiso   1.00
H413   H     0.50123   0.03740   0.42667   0.00000  Uiso   1.00
H414   H     0.49877   0.29593   0.57333   0.00000  Uiso   1.00
H415   H     0.55684   0.21462   0.38291   0.00000  Uiso   1.00
H416   H     0.44316   0.11871   0.61709   0.00000  Uiso   1.00
H417   H     0.55680   0.21461   0.63197   0.00000  Uiso   1.00
H418   H     0.44320   0.11872   0.36803   0.00000  Uiso   1.00
C419   C     0.83330   0.08662   0.49998   0.00000  Uiso   1.00
C420   C     0.83337   0.24671   0.50002   0.00000  Uiso   1.00
C421   C     0.73369   0.16666   0.48802   0.00000  Uiso   1.00
C422   C     0.93297   0.16667   0.51198   0.00000  Uiso   1.00
C423   C     0.67866   0.16669   0.48157   0.00000  Uiso   1.00
C424   C     0.98801   0.16664   0.51843   0.00000  Uiso   1.00
C425   C     0.83401   0.02127   0.45880   0.00000  Uiso   1.00
C426   C     0.83266   0.31206   0.54120   0.00000  Uiso   1.00
C427   C     0.83407   0.31205   0.45882   0.00000  Uiso   1.00
C428   C     0.83259   0.02128   0.54118   0.00000  Uiso   1.00
C429   C     0.83338   0.29087   0.50002   0.00000  Uiso   1.00
C430   C     0.83329   0.04247   0.49998   0.00000  Uiso   1.00
C431   C     0.86491   0.19332   0.36145   0.00000  Uiso   1.00
C432   C     0.80175   0.14002   0.63855   0.00000  Uiso   1.00
C433   C     0.86489   0.19331   0.64682   0.00000  Uiso   1.00
C434   C     0.80177   0.14003   0.35318   0.00000  Uiso   1.00
H435   H     0.83468   0.29592   0.42671   0.00000  Uiso   1.00
H436   H     0.83199   0.03742   0.57330   0.00000  Uiso   1.00
N437   N     0.83332   0.16666   0.61907   0.00000  Uiso   1.00
N438   N     0.83335   0.16668   0.38093   0.00000  Uiso   1.00
O439   O     0.83333   0.10558   0.53821   0.00000  Uiso   1.00
O440   O     0.83334   0.22775   0.46179   0.00000  Uiso   1.00
O441   O     0.83333   0.10559   0.46176   0.00000  Uiso   1.00
O442   O     0.83334   0.22774   0.53824   0.00000  Uiso   1.00
O443   O     0.75725   0.16666   0.52928   0.00000  Uiso   1.00
O444   O     0.90942   0.16667   0.47072   0.00000  Uiso   1.00
O445   O     0.75725   0.16667   0.45284   0.00000  Uiso   1.00
O446   O     0.90942   0.16666   0.54716   0.00000  Uiso   1.00
Zn447  Zn    0.83333   0.16666   0.55104   0.00000  Uiso   1.00
Zn448  Zn    0.83333   0.16667   0.44896   0.00000  Uiso   1.00
H449   H     0.99135   0.16678   0.44662   0.00000  Uiso   1.00
H450   H     0.67531   0.16656   0.55338   0.00000  Uiso   1.00
H451   H     0.83456   0.03740   0.42667   0.00000  Uiso   1.00
H452   H     0.83211   0.29593   0.57333   0.00000  Uiso   1.00
H453   H     0.89017   0.21462   0.38291   0.00000  Uiso   1.00
H454   H     0.77649   0.11871   0.61709   0.00000  Uiso   1.00
H455   H     0.89013   0.21461   0.63197   0.00000  Uiso   1.00
H456   H     0.77654   0.11872   0.36803   0.00000  Uiso   1.00
C457   C     0.16663   0.41995   0.49998   0.00000  Uiso   1.00
C458   C     0.16670   0.58005   0.50002   0.00000  Uiso   1.00
C459   C     0.06703   0.49999   0.48802   0.00000  Uiso   1.00
C460   C     0.26630   0.50001   0.51198   0.00000  Uiso   1.00
C461   C     0.01199   0.50003   0.48157   0.00000  Uiso   1.00
C462   C     0.32134   0.49997   0.51843   0.00000  Uiso   1.00
C463   C     0.16734   0.35461   0.45880   0.00000  Uiso   1.00
C464   C     0.16599   0.64540   0.54120   0.00000  Uiso   1.00
C465   C     0.16741   0.64539   0.45882   0.00000  Uiso   1.00
C466   C     0.16593   0.35461   0.54118   0.00000  Uiso   1.00
C467   C     0.16671   0.62420   0.50002   0.00000  Uiso   1.00
C468   C     0.16662   0.37580   0.49998   0.00000  Uiso   1.00
C469   C     0.19825   0.52665   0.36145   0.00000  Uiso   1.00
C470   C     0.13509   0.47335   0.63855   0.00000  Uiso   1.00
C471   C     0.19823   0.52664   0.64682   0.00000  Uiso   1.00
C472   C     0.13511   0.47336   0.35318   0.00000  Uiso   1.00
H473   H     0.16801   0.62925   0.42671   0.00000  Uiso   1.00
H474   H     0.16532   0.37075   0.57330   0.00000  Uiso   1.00
N475   N     0.16665   0.49999   0.61907   0.00000  Uiso   1.00
N476   N     0.16668   0.50001   0.38093   0.00000  Uiso   1.00
O477   O     0.16666   0.43892   0.53821   0.00000  Uiso   1.00
O478   O     0.16667   0.56108   0.46179   0.00000  Uiso   1.00
O479   O     0.16666   0.43893   0.46176   0.00000  Uiso   1.00
O480   O     0.16667   0.56107   0.53824   0.00000  Uiso   1.00
O481   O     0.09058   0.50000   0.52928   0.00000  Uiso   1.00
O482   O     0.24275   0.50000   0.47072   0.00000  Uiso   1.00
O483   O     0.09058   0.50000   0.45284   0.00000  Uiso   1.00
O484   O     0.24275   0.50000   0.54716   0.00000  Uiso   1.00
Zn485  Zn    0.16667   0.49999   0.55104   0.00000  Uiso   1.00
Zn486  Zn    0.16667   0.50001   0.44896   0.00000  Uiso   1.00
H487   H     0.32469   0.50011   0.44662   0.00000  Uiso   1.00
H488   H     0.00865   0.49989   0.55338   0.00000  Uiso   1.00
H489   H     0.16789   0.37073   0.42667   0.00000  Uiso   1.00
H490   H     0.16544   0.62927   0.57333   0.00000  Uiso   1.00
H491   H     0.22351   0.54795   0.38291   0.00000  Uiso   1.00
H492   H     0.10983   0.45205   0.61709   0.00000  Uiso   1.00
H493   H     0.22346   0.54794   0.63197   0.00000  Uiso   1.00
H494   H     0.10987   0.45206   0.36803   0.00000  Uiso   1.00
C495   C     0.49996   0.41995   0.49998   0.00000  Uiso   1.00
C496   C     0.50004   0.58005   0.50002   0.00000  Uiso   1.00
C497   C     0.40036   0.49999   0.48802   0.00000  Uiso   1.00
C498   C     0.59964   0.50001   0.51198   0.00000  Uiso   1.00
C499   C     0.34532   0.50003   0.48157   0.00000  Uiso   1.00
C500   C     0.65468   0.49997   0.51843   0.00000  Uiso   1.00
C501   C     0.50068   0.35461   0.45880   0.00000  Uiso   1.00
C502   C     0.49932   0.64540   0.54120   0.00000  Uiso   1.00
C503   C     0.50074   0.64539   0.45882   0.00000  Uiso   1.00
C504   C     0.49926   0.35461   0.54118   0.00000  Uiso   1.00
C505   C     0.50005   0.62420   0.50002   0.00000  Uiso   1.00
C506   C     0.49995   0.37580   0.49998   0.00000  Uiso   1.00
C507   C     0.53158   0.52665   0.36145   0.00000  Uiso   1.00
C508   C     0.46842   0.47335   0.63855   0.00000  Uiso   1.00
C509   C     0.53156   0.52664   0.64682   0.00000  Uiso   1.00
C510   C     0.46844   0.47336   0.35318   0.00000  Uiso   1.00
H511   H     0.50135   0.62925   0.42671   0.00000  Uiso   1.00
H512   H     0.49865   0.37075   0.57330   0.00000  Uiso   1.00
N513   N     0.49999   0.49999   0.61907   0.00000  Uiso   1.00
N514   N     0.50001   0.50001   0.38093   0.00000  Uiso   1.00
O515   O     0.50000   0.43892   0.53821   0.00000  Uiso   1.00
O516   O     0.50000   0.56108   0.46179   0.00000  Uiso   1.00
O517   O     0.50000   0.43893   0.46176   0.00000  Uiso   1.00
O518   O     0.50000   0.56107   0.53824   0.00000  Uiso   1.00
O519   O     0.42392   0.50000   0.52928   0.00000  Uiso   1.00
O520   O     0.57608   0.50000   0.47072   0.00000  Uiso   1.00
O521   O     0.42392   0.50000   0.45284   0.00000  Uiso   1.00
O522   O     0.57608   0.50000   0.54716   0.00000  Uiso   1.00
Zn523  Zn    0.50000   0.49999   0.55104   0.00000  Uiso   1.00
Zn524  Zn    0.50000   0.50001   0.44896   0.00000  Uiso   1.00
H525   H     0.65802   0.50011   0.44662   0.00000  Uiso   1.00
H526   H     0.34198   0.49989   0.55338   0.00000  Uiso   1.00
H527   H     0.50123   0.37073   0.42667   0.00000  Uiso   1.00
H528   H     0.49877   0.62927   0.57333   0.00000  Uiso   1.00
H529   H     0.55684   0.54795   0.38291   0.00000  Uiso   1.00
H530   H     0.44316   0.45205   0.61709   0.00000  Uiso   1.00
H531   H     0.55680   0.54794   0.63197   0.00000  Uiso   1.00
H532   H     0.44320   0.45206   0.36803   0.00000  Uiso   1.00
C533   C     0.83330   0.41995   0.49998   0.00000  Uiso   1.00
C534   C     0.83337   0.58005   0.50002   0.00000  Uiso   1.00
C535   C     0.73369   0.49999   0.48802   0.00000  Uiso   1.00
C536   C     0.93297   0.50001   0.51198   0.00000  Uiso   1.00
C537   C     0.67866   0.50003   0.48157   0.00000  Uiso   1.00
C538   C     0.98801   0.49997   0.51843   0.00000  Uiso   1.00
C539   C     0.83401   0.35461   0.45880   0.00000  Uiso   1.00
C540   C     0.83266   0.64540   0.54120   0.00000  Uiso   1.00
C541   C     0.83407   0.64539   0.45882   0.00000  Uiso   1.00
C542   C     0.83259   0.35461   0.54118   0.00000  Uiso   1.00
C543   C     0.83338   0.62420   0.50002   0.00000  Uiso   1.00
C544   C     0.83329   0.37580   0.49998   0.00000  Uiso   1.00
C545   C     0.86491   0.52665   0.36145   0.00000  Uiso   1.00
C546   C     0.80175   0.47335   0.63855   0.00000  Uiso   1.00
C547   C     0.86489   0.52664   0.64682   0.00000  Uiso   1.00
C548   C     0.80177   0.47336   0.35318   0.00000  Uiso   1.00
H549   H     0.83468   0.62925   0.42671   0.00000  Uiso   1.00
H550   H     0.83199   0.37075   0.57330   0.00000  Uiso   1.00
N551   N     0.83332   0.49999   0.61907   0.00000  Uiso   1.00
N552   N     0.83335   0.50001   0.38093   0.00000  Uiso   1.00
O553   O     0.83333   0.43892   0.53821   0.00000  Uiso   1.00
O554   O     0.83334   0.56108   0.46179   0.00000  Uiso   1.00
O555   O     0.83333   0.43893   0.46176   0.00000  Uiso   1.00
O556   O     0.83334   0.56107   0.53824   0.00000  Uiso   1.00
O557   O     0.75725   0.50000   0.52928   0.00000  Uiso   1.00
O558   O     0.90942   0.50000   0.47072   0.00000  Uiso   1.00
O559   O     0.75725   0.50000   0.45284   0.00000  Uiso   1.00
O560   O     0.90942   0.50000   0.54716   0.00000  Uiso   1.00
Zn561  Zn    0.83333   0.49999   0.55104   0.00000  Uiso   1.00
Zn562  Zn    0.83333   0.50001   0.44896   0.00000  Uiso   1.00
H563   H     0.99135   0.50011   0.44662   0.00000  Uiso   1.00
H564   H     0.67531   0.49989   0.55338   0.00000  Uiso   1.00
H565   H     0.83456   0.37073   0.42667   0.00000  Uiso   1.00
H566   H     0.83211   0.62927   0.57333   0.00000  Uiso   1.00
H567   H     0.89017   0.54795   0.38291   0.00000  Uiso   1.00
H568   H     0.77649   0.45205   0.61709   0.00000  Uiso   1.00
H569   H     0.89013   0.54794   0.63197   0.00000  Uiso   1.00
H570   H     0.77654   0.45206   0.36803   0.00000  Uiso   1.00
C571   C     0.16663   0.75329   0.49998   0.00000  Uiso   1.00
C572   C     0.16670   0.91338   0.50002   0.00000  Uiso   1.00
C573   C     0.06703   0.83333   0.48802   0.00000  Uiso   1.00
C574   C     0.26630   0.83334   0.51198   0.00000  Uiso   1.00
C575   C     0.01199   0.83336   0.48157   0.00000  Uiso   1.00
C576   C     0.32134   0.83331   0.51843   0.00000  Uiso   1.00
C577   C     0.16734   0.68794   0.45880   0.00000  Uiso   1.00
C578   C     0.16599   0.97873   0.54120   0.00000  Uiso   1.00
C579   C     0.16741   0.97872   0.45882   0.00000  Uiso   1.00
C580   C     0.16593   0.68795   0.54118   0.00000  Uiso   1.00
C581   C     0.16671   0.95753   0.50002   0.00000  Uiso   1.00
C582   C     0.16662   0.70913   0.49998   0.00000  Uiso   1.00
C583   C     0.19825   0.85998   0.36145   0.00000  Uiso   1.00
C584   C     0.13509   0.80668   0.63855   0.00000  Uiso   1.00
C585   C     0.19823   0.85997   0.64682   0.00000  Uiso   1.00
C586   C     0.13511   0.80669   0.35318   0.00000  Uiso   1.00
H587   H     0.16801   0.96259   0.42671   0.00000  Uiso   1.00
H588   H     0.16532   0.70408   0.57330   0.00000  Uiso   1.00
N589   N     0.16665   0.83332   0.61907   0.00000  Uiso   1.00
N590   N     0.16668   0.83334   0.38093   0.00000  Uiso   1.00
O591   O     0.16666   0.77225   0.53821   0.00000  Uiso   1.00
O592   O     0.16667   0.89442   0.46179   0.00000  Uiso   1.00
O593   O     0.16666   0.77226   0.46176   0.00000  Uiso   1.00
O594   O     0.16667   0.89441   0.53824   0.00000  Uiso   1.00
O595   O     0.09058   0.83333   0.52928   0.00000  Uiso   1.00
O596   O     0.24275   0.83334   0.47072   0.00000  Uiso   1.00
O597   O     0.09058   0.83334   0.45284   0.00000  Uiso   1.00
O598   O     0.24275   0.83333   0.54716   0.00000  Uiso   1.00
Zn599  Zn    0.16667   0.83333   0.55104   0.00000  Uiso   1.00
Zn600  Zn    0.16667   0.83334   0.44896   0.00000  Uiso   1.00
H601   H     0.32469   0.83344   0.44662   0.00000  Uiso   1.00
H602   H     0.00865   0.83322   0.55338   0.00000  Uiso   1.00
H603   H     0.16789   0.70407   0.42667   0.00000  Uiso   1.00
H604   H     0.16544   0.96260   0.57333   0.00000  Uiso   1.00
H605   H     0.22351   0.88129   0.38291   0.00000  Uiso   1.00
H606   H     0.10983   0.78538   0.61709   0.00000  Uiso   1.00
H607   H     0.22346   0.88128   0.63197   0.00000  Uiso   1.00
H608   H     0.10987   0.78539   0.36803   0.00000  Uiso   1.00
C609   C     0.49996   0.75329   0.49998   0.00000  Uiso   1.00
C610   C     0.50004   0.91338   0.50002   0.00000  Uiso   1.00
C611   C     0.40036   0.83333   0.48802   0.00000  Uiso   1.00
C612   C     0.59964   0.83334   0.51198   0.00000  Uiso   1.00
C613   C     0.34532   0.83336   0.48157   0.00000  Uiso   1.00
C614   C     0.65468   0.83331   0.51843   0.00000  Uiso   1.00
C615   C     0.50068   0.68794   0.45880   0.00000  Uiso   1.00
C616   C     0.49932   0.97873   0.54120   0.00000  Uiso   1.00
C617   C     0.50074   0.97872   0.45882   0.00000  Uiso   1.00
C618   C     0.49926   0.68795   0.54118   0.00000  Uiso   1.00
C619   C     0.50005   0.95753   0.50002   0.00000  Uiso   1.00
C620   C     0.49995   0.70913   0.49998   0.00000  Uiso   1.00
C621   C     0.53158   0.85998   0.36145   0.00000  Uiso   1.00
C622   C     0.46842   0.80668   0.63855   0.00000  Uiso   1.00
C623   C     0.53156   0.85997   0.64682   0.00000  Uiso   1.00
C624   C     0.46844   0.80669   0.35318   0.00000  Uiso   1.00
H625   H     0.50135   0.96259   0.42671   0.00000  Uiso   1.00
H626   H     0.49865   0.70408   0.57330   0.00000  Uiso   1.00
N627   N     0.49999   0.83332   0.61907   0.00000  Uiso   1.00
N628   N     0.50001   0.83334   0.38093   0.00000  Uiso   1.00
O629   O     0.50000   0.77225   0.53821   0.00000  Uiso   1.00
O630   O     0.50000   0.89442   0.46179   0.00000  Uiso   1.00
O631   O     0.50000   0.77226   0.46176   0.00000  Uiso   1.00
O632   O     0.50000   0.89441   0.53824   0.00000  Uiso   1.00
O633   O     0.42392   0.83333   0.52928   0.00000  Uiso   1.00
O634   O     0.57608   0.83334   0.47072   0.00000  Uiso   1.00
O635   O     0.42392   0.83334   0.45284   0.00000  Uiso   1.00
O636   O     0.57608   0.83333   0.54716   0.00000  Uiso   1.00
Zn637  Zn    0.50000   0.83333   0.55104   0.00000  Uiso   1.00
Zn638  Zn    0.50000   0.83334   0.44896   0.00000  Uiso   1.00
H639   H     0.65802   0.83344   0.44662   0.00000  Uiso   1.00
H640   H     0.34198   0.83322   0.55338   0.00000  Uiso   1.00
H641   H     0.50123   0.70407   0.42667   0.00000  Uiso   1.00
H642   H     0.49877   0.96260   0.57333   0.00000  Uiso   1.00
H643   H     0.55684   0.88129   0.38291   0.00000  Uiso   1.00
H644   H     0.44316   0.78538   0.61709   0.00000  Uiso   1.00
H645   H     0.55680   0.88128   0.63197   0.00000  Uiso   1.00
H646   H     0.44320   0.78539   0.36803   0.00000  Uiso   1.00
C647   C     0.83330   0.75329   0.49998   0.00000  Uiso   1.00
C648   C     0.83337   0.91338   0.50002   0.00000  Uiso   1.00
C649   C     0.73369   0.83333   0.48802   0.00000  Uiso   1.00
C650   C     0.93297   0.83334   0.51198   0.00000  Uiso   1.00
C651   C     0.67866   0.83336   0.48157   0.00000  Uiso   1.00
C652   C     0.98801   0.83331   0.51843   0.00000  Uiso   1.00
C653   C     0.83401   0.68794   0.45880   0.00000  Uiso   1.00
C654   C     0.83266   0.97873   0.54120   0.00000  Uiso   1.00
C655   C     0.83407   0.97872   0.45882   0.00000  Uiso   1.00
C656   C     0.83259   0.68795   0.54118   0.00000  Uiso   1.00
C657   C     0.83338   0.95753   0.50002   0.00000  Uiso   1.00
C658   C     0.83329   0.70913   0.49998   0.00000  Uiso   1.00
C659   C     0.86491   0.85998   0.36145   0.00000  Uiso   1.00
C660   C     0.80175   0.80668   0.63855   0.00000  Uiso   1.00
C661   C     0.86489   0.85997   0.64682   0.00000  Uiso   1.00
C662   C     0.80177   0.80669   0.35318   0.00000  Uiso   1.00
H663   H     0.83468   0.96259   0.42671   0.00000  Uiso   1.00
H664   H     0.83199   0.70408   0.57330   0.00000  Uiso   1.00
N665   N     0.83332   0.83332   0.61907   0.00000  Uiso   1.00
N666   N     0.83335   0.83334   0.38093   0.00000  Uiso   1.00
O667   O     0.83333   0.77225   0.53821   0.00000  Uiso   1.00
O668   O     0.83334   0.89442   0.46179   0.00000  Uiso   1.00
O669   O     0.83333   0.77226   0.46176   0.00000  Uiso   1.00
O670   O     0.83334   0.89441   0.53824   0.00000  Uiso   1.00
O671   O     0.75725   0.83333   0.52928   0.00000  Uiso   1.00
O672   O     0.90942   0.83334   0.47072   0.00000  Uiso   1.00
O673   O     0.75725   0.83334   0.45284   0.00000  Uiso   1.00
O674   O     0.90942   0.83333   0.54716   0.00000  Uiso   1.00
Zn675  Zn    0.83333   0.83333   0.55104   0.00000  Uiso   1.00
Zn676  Zn    0.83333   0.83334   0.44896   0.00000  Uiso   1.00
H677   H     0.99135   0.83344   0.44662   0.00000  Uiso   1.00
H678   H     0.67531   0.83322   0.55338   0.00000  Uiso   1.00
H679   H     0.83456   0.70407   0.42667   0.00000  Uiso   1.00
H680   H     0.83211   0.96260   0.57333   0.00000  Uiso   1.00
H681   H     0.89017   0.88129   0.38291   0.00000  Uiso   1.00
H682   H     0.77649   0.78538   0.61709   0.00000  Uiso   1.00
H683   H     0.89013   0.88128   0.63197   0.00000  Uiso   1.00
H684   H     0.77654   0.78539   0.36803   0.00000  Uiso   1.00
C685   C     0.16663   0.08662   0.83331   0.00000  Uiso   1.00
C686   C     0.16670   0.24671   0.83335   0.00000  Uiso   1.00
C687   C     0.06703   0.16666   0.82135   0.00000  Uiso   1.00
C688   C     0.26630   0.16667   0.84531   0.00000  Uiso   1.00
C689   C     0.01199   0.16669   0.81491   0.00000  Uiso   1.00
C690   C     0.32134   0.16664   0.85176   0.00000  Uiso   1.00
C691   C     0.16734   0.02127   0.79213   0.00000  Uiso   1.00
C692   C     0.16599   0.31206   0.87454   0.00000  Uiso   1.00
C693   C     0.16741   0.31205   0.79215   0.00000  Uiso   1.00
C694   C     0.16593   0.02128   0.87452   0.00000  Uiso   1.00
C695   C     0.16671   0.29087   0.83335   0.00000  Uiso   1.00
C696   C     0.16662   0.04247   0.83332   0.00000  Uiso   1.00
C697   C     0.19825   0.19332   0.69478   0.00000  Uiso   1.00
C698   C     0.13509   0.14002   0.97189   0.00000  Uiso   1.00
C699   C     0.19823   0.19331   0.98016   0.00000  Uiso   1.00
C700   C     0.13511   0.14003   0.68651   0.00000  Uiso   1.00
H701   H     0.16801   0.29592   0.76004   0.00000  Uiso   1.00
H702   H     0.16532   0.03742   0.90663   0.00000  Uiso   1.00
N703   N     0.16665   0.16666   0.95240   0.00000  Uiso   1.00
N704   N     0.16668   0.16668   0.71427   0.00000  Uiso   1.00
O705   O     0.16666   0.10558   0.87154   0.00000  Uiso   1.00
O706   O     0.16667   0.22775   0.79513   0.00000  Uiso   1.00
O707   O     0.16666   0.10559   0.79510   0.00000  Uiso   1.00
O708   O     0.16667   0.22774   0.87157   0.00000  Uiso   1.00
O709   O     0.09058   0.16666   0.86261   0.00000  Uiso   1.00
O710   O     0.24275   0.16667   0.80405   0.00000  Uiso   1.00
O711   O     0.09058   0.16667   0.78617   0.00000  Uiso   1.00
O712   O     0.24275   0.16666   0.88050   0.00000  Uiso   1.00
Zn713  Zn    0.16667   0.16666   0.88437   0.00000  Uiso   1.00
Zn714  Zn    0.16667   0.16667   0.78229   0.00000  Uiso   1.00
H715   H     0.32469   0.16678   0.77995   0.00000  Uiso   1.00
H716   H     0.00865   0.16656   0.88672   0.00000  Uiso   1.00
H717   H     0.16789   0.03740   0.76001   0.00000  Uiso   1.00
H718   H     0.16544   0.29593   0.90666   0.00000  Uiso   1.00
H719   H     0.22351   0.21462   0.71625   0.00000  Uiso   1.00
H720   H     0.10983   0.11871   0.95042   0.00000  Uiso   1.00
H721   H     0.22346   0.21461   0.96530   0.00000  Uiso   1.00
H722   H     0.10987   0.11872   0.70137   0.00000  Uiso   1.00
C723   C     0.49996   0.08662   0.83331   0.00000  Uiso   1.00
C724   C     0.50004   0.24671   0.83335   0.00000  Uiso   1.00
C725   C     0.40036   0.16666   0.82135   0.00000  Uiso   1.00
C726   C     0.59964   0.16667   0.84531   0.00000  Uiso   1.00
C727   C     0.34532   0.16669   0.81491   0.00000  Uiso   1.00
C728   C     0.65468   0.16664   0.85176   0.00000  Uiso   1.00
C729   C     0.50068   0.02127   0.79213   0.00000  Uiso   1.00
C730   C     0.49932   0.31206   0.87454   0.00000  Uiso   1.00
C731   C     0.50074   0.31205   0.79215   0.00000  Uiso   1.00
C732   C     0.49926   0.02128   0.87452   0.00000  Uiso   1.00
C733   C     0.50005   0.29087   0.83335   0.00000  Uiso   1.00
C734   C     0.49995   0.04247   0.83332   0.00000  Uiso   1.00
C735   C     0.53158   0.19332   0.69478   0.00000  Uiso   1.00
C736   C     0.46842   0.14002   0.97189   0.00000  Uiso   1.00
C737   C     0.53156   0.19331   0.98016   0.00000  Uiso   1.00
C738   C     0.46844   0.14003   0.68651   0.00000  Uiso   1.00
H739   H     0.50135   0.29592   0.76004   0.00000  Uiso   1.00
H740   H     0.49865   0.03742   0.90663   0.00000  Uiso   1.00
N741   N     0.49999   0.16666   0.95240   0.00000  Uiso   1.00
N742   N     0.50001   0.16668   0.71427   0.00000  Uiso   1.00
O743   O     0.50000   0.10558   0.87154   0.00000  Uiso   1.00
O744   O     0.50000   0.22775   0.79513   0.00000  Uiso   1.00
O745   O     0.50000   0.10559   0.79510   0.00000  Uiso   1.00
O746   O     0.50000   0.22774   0.87157   0.00000  Uiso   1.00
O747   O     0.42392   0.16666   0.86261   0.00000  Uiso   1.00
O748   O     0.57608   0.16667   0.80405   0.00000  Uiso   1.00
O749   O     0.42392   0.16667   0.78617   0.00000  Uiso   1.00
O750   O     0.57608   0.16666   0.88050   0.00000  Uiso   1.00
Zn751  Zn    0.50000   0.16666   0.88437   0.00000  Uiso   1.00
Zn752  Zn    0.50000   0.16667   0.78229   0.00000  Uiso   1.00
H753   H     0.65802   0.16678   0.77995   0.00000  Uiso   1.00
H754   H     0.34198   0.16656   0.88672   0.00000  Uiso   1.00
H755   H     0.50123   0.03740   0.76001   0.00000  Uiso   1.00
H756   H     0.49877   0.29593   0.90666   0.00000  Uiso   1.00
H757   H     0.55684   0.21462   0.71625   0.00000  Uiso   1.00
H758   H     0.44316   0.11871   0.95042   0.00000  Uiso   1.00
H759   H     0.55680   0.21461   0.96530   0.00000  Uiso   1.00
H760   H     0.44320   0.11872   0.70137   0.00000  Uiso   1.00
C761   C     0.83330   0.08662   0.83331   0.00000  Uiso   1.00
C762   C     0.83337   0.24671   0.83335   0.00000  Uiso   1.00
C763   C     0.73369   0.16666   0.82135   0.00000  Uiso   1.00
C764   C     0.93297   0.16667   0.84531   0.00000  Uiso   1.00
C765   C     0.67866   0.16669   0.81491   0.00000  Uiso   1.00
C766   C     0.98801   0.16664   0.85176   0.00000  Uiso   1.00
C767   C     0.83401   0.02127   0.79213   0.00000  Uiso   1.00
C768   C     0.83266   0.31206   0.87454   0.00000  Uiso   1.00
C769   C     0.83407   0.31205   0.79215   0.00000  Uiso   1.00
C770   C     0.83259   0.02128   0.87452   0.00000  Uiso   1.00
C771   C     0.83338   0.29087   0.83335   0.00000  Uiso   1.00
C772   C     0.83329   0.04247   0.83332   0.00000  Uiso   1.00
C773   C     0.86491   0.19332   0.69478   0.00000  Uiso   1.00
C774   C     0.80175   0.14002   0.97189   0.00000  Uiso   1.00
C775   C     0.86489   0.19331   0.98016   0.00000  Uiso   1.00
C776   C     0.80177   0.14003   0.68651   0.00000  Uiso   1.00
H777   H     0.83468   0.29592   0.76004   0.00000  Uiso   1.00
H778   H     0.83199   0.03742   0.90663   0.00000  Uiso   1.00
N779   N     0.83332   0.16666   0.95240   0.00000  Uiso   1.00
N780   N     0.83335   0.16668   0.71427   0.00000  Uiso   1.00
O781   O     0.83333   0.10558   0.87154   0.00000  Uiso   1.00
O782   O     0.83334   0.22775   0.79513   0.00000  Uiso   1.00
O783   O     0.83333   0.10559   0.79510   0.00000  Uiso   1.00
O784   O     0.83334   0.22774   0.87157   0.00000  Uiso   1.00
O785   O     0.75725   0.16666   0.86261   0.00000  Uiso   1.00
O786   O     0.90942   0.16667   0.80405   0.00000  Uiso   1.00
O787   O     0.75725   0.16667   0.78617   0.00000  Uiso   1.00
O788   O     0.90942   0.16666   0.88050   0.00000  Uiso   1.00
Zn789  Zn    0.83333   0.16666   0.88437   0.00000  Uiso   1.00
Zn790  Zn    0.83333   0.16667   0.78229   0.00000  Uiso   1.00
H791   H     0.99135   0.16678   0.77995   0.00000  Uiso   1.00
H792   H     0.67531   0.16656   0.88672   0.00000  Uiso   1.00
H793   H     0.83456   0.03740   0.76001   0.00000  Uiso   1.00
H794   H     0.83211   0.29593   0.90666   0.00000  Uiso   1.00
H795   H     0.89017   0.21462   0.71625   0.00000  Uiso   1.00
H796   H     0.77649   0.11871   0.95042   0.00000  Uiso   1.00
H797   H     0.89013   0.21461   0.96530   0.00000  Uiso   1.00
H798   H     0.77654   0.11872   0.70137   0.00000  Uiso   1.00
C799   C     0.16663   0.41995   0.83331   0.00000  Uiso   1.00
C800   C     0.16670   0.58005   0.83335   0.00000  Uiso   1.00
C801   C     0.06703   0.49999   0.82135   0.00000  Uiso   1.00
C802   C     0.26630   0.50001   0.84531   0.00000  Uiso   1.00
C803   C     0.01199   0.50003   0.81491   0.00000  Uiso   1.00
C804   C     0.32134   0.49997   0.85176   0.00000  Uiso   1.00
C805   C     0.16734   0.35461   0.79213   0.00000  Uiso   1.00
C806   C     0.16599   0.64540   0.87454   0.00000  Uiso   1.00
C807   C     0.16741   0.64539   0.79215   0.00000  Uiso   1.00
C808   C     0.16593   0.35461   0.87452   0.00000  Uiso   1.00
C809   C     0.16671   0.62420   0.83335   0.00000  Uiso   1.00
C810   C     0.16662   0.37580   0.83332   0.00000  Uiso   1.00
C811   C     0.19825   0.52665   0.69478   0.00000  Uiso   1.00
C812   C     0.13509   0.47335   0.97189   0.00000  Uiso   1.00
C813   C     0.19823   0.52664   0.98016   0.00000  Uiso   1.00
C814   C     0.13511   0.47336   0.68651   0.00000  Uiso   1.00
H815   H     0.16801   0.62925   0.76004   0.00000  Uiso   1.00
H816   H     0.16532   0.37075   0.90663   0.00000  Uiso   1.00
N817   N     0.16665   0.49999   0.95240   0.00000  Uiso   1.00
N818   N     0.16668   0.50001   0.71427   0.00000  Uiso   1.00
O819   O     0.16666   0.43892   0.87154   0.00000  Uiso   1.00
O820   O     0.16667   0.56108   0.79513   0.00000  Uiso   1.00
O821   O     0.16666   0.43893   0.79510   0.00000  Uiso   1.00
O822   O     0.16667   0.56107   0.87157   0.00000  Uiso   1.00
O823   O     0.09058   0.50000   0.86261   0.00000  Uiso   1.00
O824   O     0.24275   0.50000   0.80405   0.00000  Uiso   1.00
O825   O     0.09058   0.50000   0.78617   0.00000  Uiso   1.00
O826   O     0.24275   0.50000   0.88050   0.00000  Uiso   1.00
Zn827  Zn    0.16667   0.49999   0.88437   0.00000  Uiso   1.00
Zn828  Zn    0.16667   0.50001   0.78229   0.00000  Uiso   1.00
H829   H     0.32469   0.50011   0.77995   0.00000  Uiso   1.00
H830   H     0.00865   0.49989   0.88672   0.00000  Uiso   1.00
H831   H     0.16789   0.37073   0.76001   0.00000  Uiso   1.00
H832   H     0.16544   0.62927   0.90666   0.00000  Uiso   1.00
H833   H     0.22351   0.54795   0.71625   0.00000  Uiso   1.00
H834   H     0.10983   0.45205   0.95042   0.00000  Uiso   1.00
H835   H     0.22346   0.54794   0.96530   0.00000  Uiso   1.00
H836   H     0.10987   0.45206   0.70137   0.00000  Uiso   1.00
C837   C     0.49996   0.41995   0.83331   0.00000  Uiso   1.00
C838   C     0.50004   0.58005   0.83335   0.00000  Uiso   1.00
C839   C     0.40036   0.49999   0.82135   0.00000  Uiso   1.00
C840   C     0.59964   0.50001   0.84531   0.00000  Uiso   1.00
C841   C     0.34532   0.50003   0.81491   0.00000  Uiso   1.00
C842   C     0.65468   0.49997   0.85176   0.00000  Uiso   1.00
C843   C     0.50068   0.35461   0.79213   0.00000  Uiso   1.00
C844   C     0.49932   0.64540   0.87454   0.00000  Uiso   1.00
C845   C     0.50074   0.64539   0.79215   0.00000  Uiso   1.00
C846   C     0.49926   0.35461   0.87452   0.00000  Uiso   1.00
C847   C     0.50005   0.62420   0.83335   0.00000  Uiso   1.00
C848   C     0.49995   0.37580   0.83332   0.00000  Uiso   1.00
C849   C     0.53158   0.52665   0.69478   0.00000  Uiso   1.00
C850   C     0.46842   0.47335   0.97189   0.00000  Uiso   1.00
C851   C     0.53156   0.52664   0.98016   0.00000  Uiso   1.00
C852   C     0.46844   0.47336   0.68651   0.00000  Uiso   1.00
H853   H     0.50135   0.62925   0.76004   0.00000  Uiso   1.00
H854   H     0.49865   0.37075   0.90663   0.00000  Uiso   1.00
N855   N     0.49999   0.49999   0.95240   0.00000  Uiso   1.00
N856   N     0.50001   0.50001   0.71427   0.00000  Uiso   1.00
O857   O     0.50000   0.43892   0.87154   0.00000  Uiso   1.00
O858   O     0.50000   0.56108   0.79513   0.00000  Uiso   1.00
O859   O     0.50000   0.43893   0.79510   0.00000  Uiso   1.00
O860   O     0.50000   0.56107   0.87157   0.00000  Uiso   1.00
O861   O     0.42392   0.50000   0.86261   0.00000  Uiso   1.00
O862   O     0.57608   0.50000   0.80405   0.00000  Uiso   1.00
O863   O     0.42392   0.50000   0.78617   0.00000  Uiso   1.00
O864   O     0.57608   0.50000   0.88050   0.00000  Uiso   1.00
Zn865  Zn    0.50000   0.49999   0.88437   0.00000  Uiso   1.00
Zn866  Zn    0.50000   0.50001   0.78229   0.00000  Uiso   1.00
H867   H     0.65802   0.50011   0.77995   0.00000  Uiso   1.00
H868   H     0.34198   0.49989   0.88672   0.00000  Uiso   1.00
H869   H     0.50123   0.37073   0.76001   0.00000  Uiso   1.00
H870   H     0.49877   0.62927   0.90666   0.00000  Uiso   1.00
H871   H     0.55684   0.54795   0.71625   0.00000  Uiso   1.00
H872   H     0.44316   0.45205   0.95042   0.00000  Uiso   1.00
H873   H     0.55680   0.54794   0.96530   0.00000  Uiso   1.00
H874   H     0.44320   0.45206   0.70137   0.00000  Uiso   1.00
C875   C     0.83330   0.41995   0.83331   0.00000  Uiso   1.00
C876   C     0.83337   0.58005   0.83335   0.00000  Uiso   1.00
C877   C     0.73369   0.49999   0.82135   0.00000  Uiso   1.00
C878   C     0.93297   0.50001   0.84531   0.00000  Uiso   1.00
C879   C     0.67866   0.50003   0.81491   0.00000  Uiso   1.00
C880   C     0.98801   0.49997   0.85176   0.00000  Uiso   1.00
C881   C     0.83401   0.35461   0.79213   0.00000  Uiso   1.00
C882   C     0.83266   0.64540   0.87454   0.00000  Uiso   1.00
C883   C     0.83407   0.64539   0.79215   0.00000  Uiso   1.00
C884   C     0.83259   0.35461   0.87452   0.00000  Uiso   1.00
C885   C     0.83338   0.62420   0.83335   0.00000  Uiso   1.00
C886   C     0.83329   0.37580   0.83332   0.00000  Uiso   1.00
C887   C     0.86491   0.52665   0.69478   0.00000  Uiso   1.00
C888   C     0.80175   0.47335   0.97189   0.00000  Uiso   1.00
C889   C     0.86489   0.52664   0.98016   0.00000  Uiso   1.00
C890   C     0.80177   0.47336   0.68651   0.00000  Uiso   1.00
H891   H     0.83468   0.62925   0.76004   0.00000  Uiso   1.00
H892   H     0.83199   0.37075   0.90663   0.00000  Uiso   1.00
N893   N     0.83332   0.49999   0.95240   0.00000  Uiso   1.00
N894   N     0.83335   0.50001   0.71427   0.00000  Uiso   1.00
O895   O     0.83333   0.43892   0.87154   0.00000  Uiso   1.00
O896   O     0.83334   0.56108   0.79513   0.00000  Uiso   1.00
O897   O     0.83333   0.43893   0.79510   0.00000  Uiso   1.00
O898   O     0.83334   0.56107   0.87157   0.00000  Uiso   1.00
O899   O     0.75725   0.50000   0.86261   0.00000  Uiso   1.00
O900   O     0.90942   0.50000   0.80405   0.00000  Uiso   1.00
O901   O     0.75725   0.50000   0.78617   0.00000  Uiso   1.00
O902   O     0.90942   0.50000   0.88050   0.00000  Uiso   1.00
Zn903  Zn    0.83333   0.49999   0.88437   0.00000  Uiso   1.00
Zn904  Zn    0.83333   0.50001   0.78229   0.00000  Uiso   1.00
H905   H     0.99135   0.50011   0.77995   0.00000  Uiso   1.00
H906   H     0.67531   0.49989   0.88672   0.00000  Uiso   1.00
H907   H     0.83456   0.37073   0.76001   0.00000  Uiso   1.00
H908   H     0.83211   0.62927   0.90666   0.00000  Uiso   1.00
H909   H     0.89017   0.54795   0.71625   0.00000  Uiso   1.00
H910   H     0.77649   0.45205   0.95042   0.00000  Uiso   1.00
H911   H     0.89013   0.54794   0.96530   0.00000  Uiso   1.00
H912   H     0.77654   0.45206   0.70137   0.00000  Uiso   1.00
C913   C     0.16663   0.75329   0.83331   0.00000  Uiso   1.00
C914   C     0.16670   0.91338   0.83335   0.00000  Uiso   1.00
C915   C     0.06703   0.83333   0.82135   0.00000  Uiso   1.00
C916   C     0.26630   0.83334   0.84531   0.00000  Uiso   1.00
C917   C     0.01199   0.83336   0.81491   0.00000  Uiso   1.00
C918   C     0.32134   0.83331   0.85176   0.00000  Uiso   1.00
C919   C     0.16734   0.68794   0.79213   0.00000  Uiso   1.00
C920   C     0.16599   0.97873   0.87454   0.00000  Uiso   1.00
C921   C     0.16741   0.97872   0.79215   0.00000  Uiso   1.00
C922   C     0.16593   0.68795   0.87452   0.00000  Uiso   1.00
C923   C     0.16671   0.95753   0.83335   0.00000  Uiso   1.00
C924   C     0.16662   0.70913   0.83332   0.00000  Uiso   1.00
C925   C     0.19825   0.85998   0.69478   0.00000  Uiso   1.00
C926   C     0.13509   0.80668   0.97189   0.00000  Uiso   1.00
C927   C     0.19823   0.85997   0.98016   0.00000  Uiso   1.00
C928   C     0.13511   0.80669   0.68651   0.00000  Uiso   1.00
H929   H     0.16801   0.96259   0.76004   0.00000  Uiso   1.00
H930   H     0.16532   0.70408   0.90663   0.00000  Uiso   1.00
N931   N     0.16665   0.83332   0.95240   0.00000  Uiso   1.00
N932   N     0.16668   0.83334   0.71427   0.00000  Uiso   1.00
O933   O     0.16666   0.77225   0.87154   0.00000  Uiso   1.00
O934   O     0.16667   0.89442   0.79513   0.00000  Uiso   1.00
O935   O     0.16666   0.77226   0.79510   0.00000  Uiso   1.00
O936   O     0.16667   0.89441   0.87157   0.00000  Uiso   1.00
O937   O     0.09058   0.83333   0.86261   0.00000  Uiso   1.00
O938   O     0.24275   0.83334   0.80405   0.00000  Uiso   1.00
O939   O     0.09058   0.83334   0.78617   0.00000  Uiso   1.00
O940   O     0.24275   0.83333   0.88050   0.00000  Uiso   1.00
Zn941  Zn    0.16667   0.83333   0.88437   0.00000  Uiso   1.00
Zn942  Zn    0.16667   0.83334   0.78229   0.00000  Uiso   1.00
H943   H     0.32469   0.83344   0.77995   0.00000  Uiso   1.00
H944   H     0.00865   0.83322   0.88672   0.00000  Uiso   1.00
H945   H     0.16789   0.70407   0.76001   0.00000  Uiso   1.00
H946   H     0.16544   0.96260   0.90666   0.00000  Uiso   1.00
H947   H     0.22351   0.88129   0.71625   0.00000  Uiso   1.00
H948   H     0.10983   0.78538   0.95042   0.00000  Uiso   1.00
H949   H     0.22346   0.88128   0.96530   0.00000  Uiso   1.00
H950   H     0.10987   0.78539   0.70137   0.00000  Uiso   1.00
C951   C     0.49996   0.75329   0.83331   0.00000  Uiso   1.00
C952   C     0.50004   0.91338   0.83335   0.00000  Uiso   1.00
C953   C     0.40036   0.83333   0.82135   0.00000  Uiso   1.00
C954   C     0.59964   0.83334   0.84531   0.00000  Uiso   1.00
C955   C     0.34532   0.83336   0.81491   0.00000  Uiso   1.00
C956   C     0.65468   0.83331   0.85176   0.00000  Uiso   1.00
C957   C     0.50068   0.68794   0.79213   0.00000  Uiso   1.00
C958   C     0.49932   0.97873   0.87454   0.00000  Uiso   1.00
C959   C     0.50074   0.97872   0.79215   0.00000  Uiso   1.00
C960   C     0.49926   0.68795   0.87452   0.00000  Uiso   1.00
C961   C     0.50005   0.95753   0.83335   0.00000  Uiso   1.00
C962   C     0.49995   0.70913   0.83332   0.00000  Uiso   1.00
C963   C     0.53158   0.85998   0.69478   0.00000  Uiso   1.00
C964   C     0.46842   0.80668   0.97189   0.00000  Uiso   1.00
C965   C     0.53156   0.85997   0.98016   0.00000  Uiso   1.00
C966   C     0.46844   0.80669   0.68651   0.00000  Uiso   1.00
H967   H     0.50135   0.96259   0.76004   0.00000  Uiso   1.00
H968   H     0.49865   0.70408   0.90663   0.00000  Uiso   1.00
N969   N     0.49999   0.83332   0.95240   0.00000  Uiso   1.00
N970   N     0.50001   0.83334   0.71427   0.00000  Uiso   1.00
O971   O     0.50000   0.77225   0.87154   0.00000  Uiso   1.00
O972   O     0.50000   0.89442   0.79513   0.00000  Uiso   1.00
O973   O     0.50000   0.77226   0.79510   0.00000  Uiso   1.00
O974   O     0.50000   0.89441   0.87157   0.00000  Uiso   1.00
O975   O     0.42392   0.83333   0.86261   0.00000  Uiso   1.00
O976   O     0.57608   0.83334   0.80405   0.00000  Uiso   1.00
O977   O     0.42392   0.83334   0.78617   0.00000  Uiso   1.00
O978   O     0.57608   0.83333   0.88050   0.00000  Uiso   1.00
Zn979  Zn    0.50000   0.83333   0.88437   0.00000  Uiso   1.00
Zn980  Zn    0.50000   0.83334   0.78229   0.00000  Uiso   1.00
H981   H     0.65802   0.83344   0.77995   0.00000  Uiso   1.00
H982   H     0.34198   0.83322   0.88672   0.00000  Uiso   1.00
H983   H     0.50123   0.70407   0.76001   0.00000  Uiso   1.00
H984   H     0.49877   0.96260   0.90666   0.00000  Uiso   1.00
H985   H     0.55684   0.88129   0.71625   0.00000  Uiso   1.00
H986   H     0.44316   0.78538   0.95042   0.00000  Uiso   1.00
H987   H     0.55680   0.88128   0.96530   0.00000  Uiso   1.00
H988   H     0.44320   0.78539   0.70137   0.00000  Uiso   1.00
C989   C     0.83330   0.75329   0.83331   0.00000  Uiso   1.00
C990   C     0.83337   0.91338   0.83335   0.00000  Uiso   1.00
C991   C     0.73369   0.83333   0.82135   0.00000  Uiso   1.00
C992   C     0.93297   0.83334   0.84531   0.00000  Uiso   1.00
C993   C     0.67866   0.83336   0.81491   0.00000  Uiso   1.00
C994   C     0.98801   0.83331   0.85176   0.00000  Uiso   1.00
C995   C     0.83401   0.68794   0.79213   0.00000  Uiso   1.00
C996   C     0.83266   0.97873   0.87454   0.00000  Uiso   1.00
C997   C     0.83407   0.97872   0.79215   0.00000  Uiso   1.00
C998   C     0.83259   0.68795   0.87452   0.00000  Uiso   1.00
C999   C     0.83338   0.95753   0.83335   0.00000  Uiso   1.00
C1000  C     0.83329   0.70913   0.83332   0.00000  Uiso   1.00
C1001  C     0.86491   0.85998   0.69478   0.00000  Uiso   1.00
C1002  C     0.80175   0.80668   0.97189   0.00000  Uiso   1.00
C1003  C     0.86489   0.85997   0.98016   0.00000  Uiso   1.00
C1004  C     0.80177   0.80669   0.68651   0.00000  Uiso   1.00
H1005  H     0.83468   0.96259   0.76004   0.00000  Uiso   1.00
H1006  H     0.83199   0.70408   0.90663   0.00000  Uiso   1.00
N1007  N     0.83332   0.83332   0.95240   0.00000  Uiso   1.00
N1008  N     0.83335   0.83334   0.71427   0.00000  Uiso   1.00
O1009  O     0.83333   0.77225   0.87154   0.00000  Uiso   1.00
O1010  O     0.83334   0.89442   0.79513   0.00000  Uiso   1.00
O1011  O     0.83333   0.77226   0.79510   0.00000  Uiso   1.00
O1012  O     0.83334   0.89441   0.87157   0.00000  Uiso   1.00
O1013  O     0.75725   0.83333   0.86261   0.00000  Uiso   1.00
O1014  O     0.90942   0.83334   0.80405   0.00000  Uiso   1.00
O1015  O     0.75725   0.83334   0.78617   0.00000  Uiso   1.00
O1016  O     0.90942   0.83333   0.88050   0.00000  Uiso   1.00
Zn1017 Zn    0.83333   0.83333   0.88437   0.00000  Uiso   1.00
Zn1018 Zn    0.83333   0.83334   0.78229   0.00000  Uiso   1.00
H1019  H     0.99135   0.83344   0.77995   0.00000  Uiso   1.00
H1020  H     0.67531   0.83322   0.88672   0.00000  Uiso   1.00
H1021  H     0.83456   0.70407   0.76001   0.00000  Uiso   1.00
H1022  H     0.83211   0.96260   0.90666   0.00000  Uiso   1.00
H1023  H     0.89017   0.88129   0.71625   0.00000  Uiso   1.00
H1024  H     0.77649   0.78538   0.95042   0.00000  Uiso   1.00
H1025  H     0.89013   0.88128   0.96530   0.00000  Uiso   1.00
H1026  H     0.77654   0.78539   0.70137   0.00000  Uiso   1.00
loop_
_geom_bond_atom_site_label_1
_geom_bond_atom_site_label_2
_geom_bond_distance
_geom_bond_site_symmetry_2
_ccdc_geom_bond_type
C1     O21     1.283   .     A
C1     C12     1.421   .     S
C1     O23     1.284   .     A
C2     O22     1.283   .     A
C2     C11     1.421   .     S
C2     O24     1.284   .     A
C3     O27     1.280   .     A
C3     O25     1.277   .     A
C3     C5      1.403   .     S
C4     O26     1.277   .     A
C4     O28     1.280   .     A
C4     C6      1.403   .     S
C5     C82     1.330   1_455 S
C5     H107    1.088   1_455 S
C6     C43     1.330   .     S
C6     H70     1.088   .     S
C7     H33     1.084   .     S
C7     C12     1.397   .     A
C7     C237    1.370   1_545 S
C8     H34     1.084   .     S
C8     C11     1.397   .     A
C8     C124    1.370   .     S
C9     C11     1.397   .     A
C9     H17     1.084   .     S
C9     C121    1.370   .     S
C10    C12     1.397   .     A
C10    H18     1.084   .     S
C10    C236    1.370   1_545 S
C13    N20     1.366   .     A
C13    H35     1.082   .     S
C13    C699    1.416   1_554 S
C14    H36     1.082   .     S
C14    N19     1.366   .     A
C14    C358    1.416   .     S
C15    N19     1.366   .     A
C15    H37     1.082   .     S
C15    C355    1.416   .     S
C16    N20     1.366   .     A
C16    H38     1.082   .     S
C16    C698    1.416   1_554 S
N19    Zn29    2.009   .     S
N20    Zn30    2.009   .     S
O21    Zn29    2.002   .     S
O22    Zn30    2.002   .     S
O23    Zn30    2.002   .     S
O24    Zn29    2.002   .     S
O25    Zn29    1.970   .     S
O26    Zn30    1.970   .     S
O27    Zn30    1.982   .     S
O28    Zn29    1.982   .     S
H31    C43     1.088   .     S
H32    C82     1.088   1_455 S
C39    O59     1.283   .     A
C39    C50     1.421   .     S
C39    O61     1.284   .     A
C40    O60     1.283   .     A
C40    C49     1.421   .     S
C40    O62     1.284   .     A
C41    O65     1.280   .     A
C41    O63     1.277   .     A
C41    C43     1.403   .     S
C42    O64     1.277   .     A
C42    O66     1.280   .     A
C42    C44     1.403   .     S
C44    C81     1.330   .     S
C44    H108    1.088   .     S
C45    H71     1.084   .     S
C45    C50     1.397   .     A
C45    C275    1.370   1_545 S
C46    H72     1.084   .     S
C46    C49     1.397   .     A
C46    C162    1.370   .     S
C47    C49     1.397   .     A
C47    H55     1.084   .     S
C47    C159    1.370   .     S
C48    C50     1.397   .     A
C48    H56     1.084   .     S
C48    C274    1.370   1_545 S
C51    N58     1.366   .     A
C51    H73     1.082   .     S
C51    C737    1.416   1_554 S
C52    H74     1.082   .     S
C52    N57     1.366   .     A
C52    C396    1.416   .     S
C53    N57     1.366   .     A
C53    H75     1.082   .     S
C53    C393    1.416   .     S
C54    N58     1.366   .     A
C54    H76     1.082   .     S
C54    C736    1.416   1_554 S
N57    Zn67    2.009   .     S
N58    Zn68    2.009   .     S
O59    Zn67    2.002   .     S
O60    Zn68    2.002   .     S
O61    Zn68    2.002   .     S
O62    Zn67    2.002   .     S
O63    Zn67    1.970   .     S
O64    Zn68    1.970   .     S
O65    Zn68    1.982   .     S
O66    Zn67    1.982   .     S
H69    C81     1.088   .     S
C77    O97     1.283   .     A
C77    C88     1.421   .     S
C77    O99     1.284   .     A
C78    O98     1.283   .     A
C78    C87     1.421   .     S
C78    O100    1.284   .     A
C79    O103    1.280   .     A
C79    O101    1.277   .     A
C79    C81     1.403   .     S
C80    O102    1.277   .     A
C80    O104    1.280   .     A
C80    C82     1.403   .     S
C82    C5      1.330   1_655 S
C82    H32     1.088   1_655 S
C83    H109    1.084   .     S
C83    C88     1.397   .     A
C83    C313    1.370   1_545 S
C84    H110    1.084   .     S
C84    C87     1.397   .     A
C84    C200    1.370   .     S
C85    C87     1.397   .     A
C85    H93     1.084   .     S
C85    C197    1.370   .     S
C86    C88     1.397   .     A
C86    H94     1.084   .     S
C86    C312    1.370   1_545 S
C89    N96     1.366   .     A
C89    H111    1.082   .     S
C89    C775    1.416   1_554 S
C90    H112    1.082   .     S
C90    N95     1.366   .     A
C90    C434    1.416   .     S
C91    N95     1.366   .     A
C91    H113    1.082   .     S
C91    C431    1.416   .     S
C92    N96     1.366   .     A
C92    H114    1.082   .     S
C92    C774    1.416   1_554 S
N95    Zn105   2.009   .     S
N96    Zn106   2.009   .     S
O97    Zn105   2.002   .     S
O98    Zn106   2.002   .     S
O99    Zn106   2.002   .     S
O100   Zn105   2.002   .     S
O101   Zn105   1.970   .     S
O102   Zn106   1.970   .     S
O103   Zn106   1.982   .     S
O104   Zn105   1.982   .     S
H107   C5      1.088   1_655 S
C115   O135    1.283   .     A
C115   C126    1.421   .     S
C115   O137    1.284   .     A
C116   O136    1.283   .     A
C116   C125    1.421   .     S
C116   O138    1.284   .     A
C117   O141    1.280   .     A
C117   O139    1.277   .     A
C117   C119    1.403   .     S
C118   O140    1.277   .     A
C118   O142    1.280   .     A
C118   C120    1.403   .     S
C119   C196    1.330   1_455 S
C119   H221    1.088   1_455 S
C120   C157    1.330   .     S
C120   H184    1.088   .     S
C121   H147    1.084   .     S
C121   C126    1.397   .     A
C122   H148    1.084   .     S
C122   C125    1.397   .     A
C122   C238    1.370   .     S
C123   C125    1.397   .     A
C123   H131    1.084   .     S
C123   C235    1.370   .     S
C124   C126    1.397   .     A
C124   H132    1.084   .     S
C127   N134    1.366   .     A
C127   H149    1.082   .     S
C127   C813    1.416   1_554 S
C128   H150    1.082   .     S
C128   N133    1.366   .     A
C128   C472    1.416   .     S
C129   N133    1.366   .     A
C129   H151    1.082   .     S
C129   C469    1.416   .     S
C130   N134    1.366   .     A
C130   H152    1.082   .     S
C130   C812    1.416   1_554 S
N133   Zn143   2.009   .     S
N134   Zn144   2.009   .     S
O135   Zn143   2.002   .     S
O136   Zn144   2.002   .     S
O137   Zn144   2.002   .     S
O138   Zn143   2.002   .     S
O139   Zn143   1.970   .     S
O140   Zn144   1.970   .     S
O141   Zn144   1.982   .     S
O142   Zn143   1.982   .     S
H145   C157    1.088   .     S
H146   C196    1.088   1_455 S
C153   O173    1.283   .     A
C153   C164    1.421   .     S
C153   O175    1.284   .     A
C154   O174    1.283   .     A
C154   C163    1.421   .     S
C154   O176    1.284   .     A
C155   O179    1.280   .     A
C155   O177    1.277   .     A
C155   C157    1.403   .     S
C156   O178    1.277   .     A
C156   O180    1.280   .     A
C156   C158    1.403   .     S
C158   C195    1.330   .     S
C158   H222    1.088   .     S
C159   H185    1.084   .     S
C159   C164    1.397   .     A
C160   H186    1.084   .     S
C160   C163    1.397   .     A
C160   C276    1.370   .     S
C161   C163    1.397   .     A
C161   H169    1.084   .     S
C161   C273    1.370   .     S
C162   C164    1.397   .     A
C162   H170    1.084   .     S
C165   N172    1.366   .     A
C165   H187    1.082   .     S
C165   C851    1.416   1_554 S
C166   H188    1.082   .     S
C166   N171    1.366   .     A
C166   C510    1.416   .     S
C167   N171    1.366   .     A
C167   H189    1.082   .     S
C167   C507    1.416   .     S
C168   N172    1.366   .     A
C168   H190    1.082   .     S
C168   C850    1.416   1_554 S
N171   Zn181   2.009   .     S
N172   Zn182   2.009   .     S
O173   Zn181   2.002   .     S
O174   Zn182   2.002   .     S
O175   Zn182   2.002   .     S
O176   Zn181   2.002   .     S
O177   Zn181   1.970   .     S
O178   Zn182   1.970   .     S
O179   Zn182   1.982   .     S
O180   Zn181   1.982   .     S
H183   C195    1.088   .     S
C191   O211    1.283   .     A
C191   C202    1.421   .     S
C191   O213    1.284   .     A
C192   O212    1.283   .     A
C192   C201    1.421   .     S
C192   O214    1.284   .     A
C193   O217    1.280   .     A
C193   O215    1.277   .     A
C193   C195    1.403   .     S
C194   O216    1.277   .     A
C194   O218    1.280   .     A
C194   C196    1.403   .     S
C196   C119    1.330   1_655 S
C196   H146    1.088   1_655 S
C197   H223    1.084   .     S
C197   C202    1.397   .     A
C198   H224    1.084   .     S
C198   C201    1.397   .     A
C198   C314    1.370   .     S
C199   C201    1.397   .     A
C199   H207    1.084   .     S
C199   C311    1.370   .     S
C200   C202    1.397   .     A
C200   H208    1.084   .     S
C203   N210    1.366   .     A
C203   H225    1.082   .     S
C203   C889    1.416   1_554 S
C204   H226    1.082   .     S
C204   N209    1.366   .     A
C204   C548    1.416   .     S
C205   N209    1.366   .     A
C205   H227    1.082   .     S
C205   C545    1.416   .     S
C206   N210    1.366   .     A
C206   H228    1.082   .     S
C206   C888    1.416   1_554 S
N209   Zn219   2.009   .     S
N210   Zn220   2.009   .     S
O211   Zn219   2.002   .     S
O212   Zn220   2.002   .     S
O213   Zn220   2.002   .     S
O214   Zn219   2.002   .     S
O215   Zn219   1.970   .     S
O216   Zn220   1.970   .     S
O217   Zn220   1.982   .     S
O218   Zn219   1.982   .     S
H221   C119    1.088   1_655 S
C229   O249    1.283   .     A
C229   C240    1.421   .     S
C229   O251    1.284   .     A
C230   O250    1.283   .     A
C230   C239    1.421   .     S
C230   O252    1.284   .     A
C231   O255    1.280   .     A
C231   O253    1.277   .     A
C231   C233    1.403   .     S
C232   O254    1.277   .     A
C232   O256    1.280   .     A
C232   C234    1.403   .     S
C233   C310    1.330   1_455 S
C233   H335    1.088   1_455 S
C234   C271    1.330   .     S
C234   H298    1.088   .     S
C235   H261    1.084   .     S
C235   C240    1.397   .     A
C236   H262    1.084   .     S
C236   C239    1.397   .     A
C236   C10     1.370   1_565 S
C237   C239    1.397   .     A
C237   H245    1.084   .     S
C237   C7      1.370   1_565 S
C238   C240    1.397   .     A
C238   H246    1.084   .     S
C241   N248    1.366   .     A
C241   H263    1.082   .     S
C241   C927    1.416   1_554 S
C242   H264    1.082   .     S
C242   N247    1.366   .     A
C242   C586    1.416   .     S
C243   N247    1.366   .     A
C243   H265    1.082   .     S
C243   C583    1.416   .     S
C244   N248    1.366   .     A
C244   H266    1.082   .     S
C244   C926    1.416   1_554 S
N247   Zn257   2.009   .     S
N248   Zn258   2.009   .     S
O249   Zn257   2.002   .     S
O250   Zn258   2.002   .     S
O251   Zn258   2.002   .     S
O252   Zn257   2.002   .     S
O253   Zn257   1.970   .     S
O254   Zn258   1.970   .     S
O255   Zn258   1.982   .     S
O256   Zn257   1.982   .     S
H259   C271    1.088   .     S
H260   C310    1.088   1_455 S
C267   O287    1.283   .     A
C267   C278    1.421   .     S
C267   O289    1.284   .     A
C268   O288    1.283   .     A
C268   C277    1.421   .     S
C268   O290    1.284   .     A
C269   O293    1.280   .     A
C269   O291    1.277   .     A
C269   C271    1.403   .     S
C270   O292    1.277   .     A
C270   O294    1.280   .     A
C270   C272    1.403   .     S
C272   C309    1.330   .     S
C272   H336    1.088   .     S
C273   H299    1.084   .     S
C273   C278    1.397   .     A
C274   H300    1.084   .     S
C274   C277    1.397   .     A
C274   C48     1.370   1_565 S
C275   C277    1.397   .     A
C275   H283    1.084   .     S
C275   C45     1.370   1_565 S
C276   C278    1.397   .     A
C276   H284    1.084   .     S
C279   N286    1.366   .     A
C279   H301    1.082   .     S
C279   C965    1.416   1_554 S
C280   H302    1.082   .     S
C280   N285    1.366   .     A
C280   C624    1.416   .     S
C281   N285    1.366   .     A
C281   H303    1.082   .     S
C281   C621    1.416   .     S
C282   N286    1.366   .     A
C282   H304    1.082   .     S
C282   C964    1.416   1_554 S
N285   Zn295   2.009   .     S
N286   Zn296   2.009   .     S
O287   Zn295   2.002   .     S
O288   Zn296   2.002   .     S
O289   Zn296   2.002   .     S
O290   Zn295   2.002   .     S
O291   Zn295   1.970   .     S
O292   Zn296   1.970   .     S
O293   Zn296   1.982   .     S
O294   Zn295   1.982   .     S
H297   C309    1.088   .     S
C305   O325    1.283   .     A
C305   C316    1.421   .     S
C305   O327    1.284   .     A
C306   O326    1.283   .     A
C306   C315    1.421   .     S
C306   O328    1.284   .     A
C307   O331    1.280   .     A
C307   O329    1.277   .     A
C307   C309    1.403   .     S
C308   O330    1.277   .     A
C308   O332    1.280   .     A
C308   C310    1.403   .     S
C310   C233    1.330   1_655 S
C310   H260    1.088   1_655 S
C311   H337    1.084   .     S
C311   C316    1.397   .     A
C312   H338    1.084   .     S
C312   C315    1.397   .     A
C312   C86     1.370   1_565 S
C313   C315    1.397   .     A
C313   H321    1.084   .     S
C313   C83     1.370   1_565 S
C314   C316    1.397   .     A
C314   H322    1.084   .     S
C317   N324    1.366   .     A
C317   H339    1.082   .     S
C317   C1003   1.416   1_554 S
C318   H340    1.082   .     S
C318   N323    1.366   .     A
C318   C662    1.416   .     S
C319   N323    1.366   .     A
C319   H341    1.082   .     S
C319   C659    1.416   .     S
C320   N324    1.366   .     A
C320   H342    1.082   .     S
C320   C1002   1.416   1_554 S
N323   Zn333   2.009   .     S
N324   Zn334   2.009   .     S
O325   Zn333   2.002   .     S
O326   Zn334   2.002   .     S
O327   Zn334   2.002   .     S
O328   Zn333   2.002   .     S
O329   Zn333   1.970   .     S
O330   Zn334   1.970   .     S
O331   Zn334   1.982   .     S
O332   Zn333   1.982   .     S
H335   C233    1.088   1_655 S
C343   O363    1.283   .     A
C343   C354    1.421   .     S
C343   O365    1.284   .     A
C344   O364    1.283   .     A
C344   C353    1.421   .     S
C344   O366    1.284   .     A
C345   O369    1.280   .     A
C345   O367    1.277   .     A
C345   C347    1.403   .     S
C346   O368    1.277   .     A
C346   O370    1.280   .     A
C346   C348    1.403   .     S
C347   C424    1.330   1_455 S
C347   H449    1.088   1_455 S
C348   C385    1.330   .     S
C348   H412    1.088   .     S
C349   H375    1.084   .     S
C349   C354    1.397   .     A
C349   C579    1.370   1_545 S
C350   H376    1.084   .     S
C350   C353    1.397   .     A
C350   C466    1.370   .     S
C351   C353    1.397   .     A
C351   H359    1.084   .     S
C351   C463    1.370   .     S
C352   C354    1.397   .     A
C352   H360    1.084   .     S
C352   C578    1.370   1_545 S
C355   N362    1.366   .     A
C355   H377    1.082   .     S
C356   H378    1.082   .     S
C356   N361    1.366   .     A
C356   C700    1.416   .     S
C357   N361    1.366   .     A
C357   H379    1.082   .     S
C357   C697    1.416   .     S
C358   N362    1.366   .     A
C358   H380    1.082   .     S
N361   Zn371   2.009   .     S
N362   Zn372   2.009   .     S
O363   Zn371   2.002   .     S
O364   Zn372   2.002   .     S
O365   Zn372   2.002   .     S
O366   Zn371   2.002   .     S
O367   Zn371   1.970   .     S
O368   Zn372   1.970   .     S
O369   Zn372   1.982   .     S
O370   Zn371   1.982   .     S
H373   C385    1.088   .     S
H374   C424    1.088   1_455 S
C381   O401    1.283   .     A
C381   C392    1.421   .     S
C381   O403    1.284   .     A
C382   O402    1.283   .     A
C382   C391    1.421   .     S
C382   O404    1.284   .     A
C383   O407    1.280   .     A
C383   O405    1.277   .     A
C383   C385    1.403   .     S
C384   O406    1.277   .     A
C384   O408    1.280   .     A
C384   C386    1.403   .     S
C386   C423    1.330   .     S
C386   H450    1.088   .     S
C387   H413    1.084   .     S
C387   C392    1.397   .     A
C387   C617    1.370   1_545 S
C388   H414    1.084   .     S
C388   C391    1.397   .     A
C388   C504    1.370   .     S
C389   C391    1.397   .     A
C389   H397    1.084   .     S
C389   C501    1.370   .     S
C390   C392    1.397   .     A
C390   H398    1.084   .     S
C390   C616    1.370   1_545 S
C393   N400    1.366   .     A
C393   H415    1.082   .     S
C394   H416    1.082   .     S
C394   N399    1.366   .     A
C394   C738    1.416   .     S
C395   N399    1.366   .     A
C395   H417    1.082   .     S
C395   C735    1.416   .     S
C396   N400    1.366   .     A
C396   H418    1.082   .     S
N399   Zn409   2.009   .     S
N400   Zn410   2.009   .     S
O401   Zn409   2.002   .     S
O402   Zn410   2.002   .     S
O403   Zn410   2.002   .     S
O404   Zn409   2.002   .     S
O405   Zn409   1.970   .     S
O406   Zn410   1.970   .     S
O407   Zn410   1.982   .     S
O408   Zn409   1.982   .     S
H411   C423    1.088   .     S
C419   O439    1.283   .     A
C419   C430    1.421   .     S
C419   O441    1.284   .     A
C420   O440    1.283   .     A
C420   C429    1.421   .     S
C420   O442    1.284   .     A
C421   O445    1.280   .     A
C421   O443    1.277   .     A
C421   C423    1.403   .     S
C422   O444    1.277   .     A
C422   O446    1.280   .     A
C422   C424    1.403   .     S
C424   C347    1.330   1_655 S
C424   H374    1.088   1_655 S
C425   H451    1.084   .     S
C425   C430    1.397   .     A
C425   C655    1.370   1_545 S
C426   H452    1.084   .     S
C426   C429    1.397   .     A
C426   C542    1.370   .     S
C427   C429    1.397   .     A
C427   H435    1.084   .     S
C427   C539    1.370   .     S
C428   C430    1.397   .     A
C428   H436    1.084   .     S
C428   C654    1.370   1_545 S
C431   N438    1.366   .     A
C431   H453    1.082   .     S
C432   H454    1.082   .     S
C432   N437    1.366   .     A
C432   C776    1.416   .     S
C433   N437    1.366   .     A
C433   H455    1.082   .     S
C433   C773    1.416   .     S
C434   N438    1.366   .     A
C434   H456    1.082   .     S
N437   Zn447   2.009   .     S
N438   Zn448   2.009   .     S
O439   Zn447   2.002   .     S
O440   Zn448   2.002   .     S
O441   Zn448   2.002   .     S
O442   Zn447   2.002   .     S
O443   Zn447   1.970   .     S
O444   Zn448   1.970   .     S
O445   Zn448   1.982   .     S
O446   Zn447   1.982   .     S
H449   C347    1.088   1_655 S
C457   O477    1.283   .     A
C457   C468    1.421   .     S
C457   O479    1.284   .     A
C458   O478    1.283   .     A
C458   C467    1.421   .     S
C458   O480    1.284   .     A
C459   O483    1.280   .     A
C459   O481    1.277   .     A
C459   C461    1.403   .     S
C460   O482    1.277   .     A
C460   O484    1.280   .     A
C460   C462    1.403   .     S
C461   C538    1.330   1_455 S
C461   H563    1.088   1_455 S
C462   C499    1.330   .     S
C462   H526    1.088   .     S
C463   H489    1.084   .     S
C463   C468    1.397   .     A
C464   H490    1.084   .     S
C464   C467    1.397   .     A
C464   C580    1.370   .     S
C465   C467    1.397   .     A
C465   H473    1.084   .     S
C465   C577    1.370   .     S
C466   C468    1.397   .     A
C466   H474    1.084   .     S
C469   N476    1.366   .     A
C469   H491    1.082   .     S
C470   H492    1.082   .     S
C470   N475    1.366   .     A
C470   C814    1.416   .     S
C471   N475    1.366   .     A
C471   H493    1.082   .     S
C471   C811    1.416   .     S
C472   N476    1.366   .     A
C472   H494    1.082   .     S
N475   Zn485   2.009   .     S
N476   Zn486   2.009   .     S
O477   Zn485   2.002   .     S
O478   Zn486   2.002   .     S
O479   Zn486   2.002   .     S
O480   Zn485   2.002   .     S
O481   Zn485   1.970   .     S
O482   Zn486   1.970   .     S
O483   Zn486   1.982   .     S
O484   Zn485   1.982   .     S
H487   C499    1.088   .     S
H488   C538    1.088   1_455 S
C495   O515    1.283   .     A
C495   C506    1.421   .     S
C495   O517    1.284   .     A
C496   O516    1.283   .     A
C496   C505    1.421   .     S
C496   O518    1.284   .     A
C497   O521    1.280   .     A
C497   O519    1.277   .     A
C497   C499    1.403   .     S
C498   O520    1.277   .     A
C498   O522    1.280   .     A
C498   C500    1.403   .     S
C500   C537    1.330   .     S
C500   H564    1.088   .     S
C501   H527    1.084   .     S
C501   C506    1.397   .     A
C502   H528    1.084   .     S
C502   C505    1.397   .     A
C502   C618    1.370   .     S
C503   C505    1.397   .     A
C503   H511    1.084   .     S
C503   C615    1.370   .     S
C504   C506    1.397   .     A
C504   H512    1.084   .     S
C507   N514    1.366   .     A
C507   H529    1.082   .     S
C508   H530    1.082   .     S
C508   N513    1.366   .     A
C508   C852    1.416   .     S
C509   N513    1.366   .     A
C509   H531    1.082   .     S
C509   C849    1.416   .     S
C510   N514    1.366   .     A
C510   H532    1.082   .     S
N513   Zn523   2.009   .     S
N514   Zn524   2.009   .     S
O515   Zn523   2.002   .     S
O516   Zn524   2.002   .     S
O517   Zn524   2.002   .     S
O518   Zn523   2.002   .     S
O519   Zn523   1.970   .     S
O520   Zn524   1.970   .     S
O521   Zn524   1.982   .     S
O522   Zn523   1.982   .     S
H525   C537    1.088   .     S
C533   O553    1.283   .     A
C533   C544    1.421   .     S
C533   O555    1.284   .     A
C534   O554    1.283   .     A
C534   C543    1.421   .     S
C534   O556    1.284   .     A
C535   O559    1.280   .     A
C535   O557    1.277   .     A
C535   C537    1.403   .     S
C536   O558    1.277   .     A
C536   O560    1.280   .     A
C536   C538    1.403   .     S
C538   C461    1.330   1_655 S
C538   H488    1.088   1_655 S
C539   H565    1.084   .     S
C539   C544    1.397   .     A
C540   H566    1.084   .     S
C540   C543    1.397   .     A
C540   C656    1.370   .     S
C541   C543    1.397   .     A
C541   H549    1.084   .     S
C541   C653    1.370   .     S
C542   C544    1.397   .     A
C542   H550    1.084   .     S
C545   N552    1.366   .     A
C545   H567    1.082   .     S
C546   H568    1.082   .     S
C546   N551    1.366   .     A
C546   C890    1.416   .     S
C547   N551    1.366   .     A
C547   H569    1.082   .     S
C547   C887    1.416   .     S
C548   N552    1.366   .     A
C548   H570    1.082   .     S
N551   Zn561   2.009   .     S
N552   Zn562   2.009   .     S
O553   Zn561   2.002   .     S
O554   Zn562   2.002   .     S
O555   Zn562   2.002   .     S
O556   Zn561   2.002   .     S
O557   Zn561   1.970   .     S
O558   Zn562   1.970   .     S
O559   Zn562   1.982   .     S
O560   Zn561   1.982   .     S
H563   C461    1.088   1_655 S
C571   O591    1.283   .     A
C571   C582    1.421   .     S
C571   O593    1.284   .     A
C572   O592    1.283   .     A
C572   C581    1.421   .     S
C572   O594    1.284   .     A
C573   O597    1.280   .     A
C573   O595    1.277   .     A
C573   C575    1.403   .     S
C574   O596    1.277   .     A
C574   O598    1.280   .     A
C574   C576    1.403   .     S
C575   C652    1.330   1_455 S
C575   H677    1.088   1_455 S
C576   C613    1.330   .     S
C576   H640    1.088   .     S
C577   H603    1.084   .     S
C577   C582    1.397   .     A
C578   H604    1.084   .     S
C578   C581    1.397   .     A
C578   C352    1.370   1_565 S
C579   C581    1.397   .     A
C579   H587    1.084   .     S
C579   C349    1.370   1_565 S
C580   C582    1.397   .     A
C580   H588    1.084   .     S
C583   N590    1.366   .     A
C583   H605    1.082   .     S
C584   H606    1.082   .     S
C584   N589    1.366   .     A
C584   C928    1.416   .     S
C585   N589    1.366   .     A
C585   H607    1.082   .     S
C585   C925    1.416   .     S
C586   N590    1.366   .     A
C586   H608    1.082   .     S
N589   Zn599   2.009   .     S
N590   Zn600   2.009   .     S
O591   Zn599   2.002   .     S
O592   Zn600   2.002   .     S
O593   Zn600   2.002   .     S
O594   Zn599   2.002   .     S
O595   Zn599   1.970   .     S
O596   Zn600   1.970   .     S
O597   Zn600   1.982   .     S
O598   Zn599   1.982   .     S
H601   C613    1.088   .     S
H602   C652    1.088   1_455 S
C609   O629    1.283   .     A
C609   C620    1.421   .     S
C609   O631    1.284   .     A
C610   O630    1.283   .     A
C610   C619    1.421   .     S
C610   O632    1.284   .     A
C611   O635    1.280   .     A
C611   O633    1.277   .     A
C611   C613    1.403   .     S
C612   O634    1.277   .     A
C612   O636    1.280   .     A
C612   C614    1.403   .     S
C614   C651    1.330   .     S
C614   H678    1.088   .     S
C615   H641    1.084   .     S
C615   C620    1.397   .     A
C616   H642    1.084   .     S
C616   C619    1.397   .     A
C616   C390    1.370   1_565 S
C617   C619    1.397   .     A
C617   H625    1.084   .     S
C617   C387    1.370   1_565 S
C618   C620    1.397   .     A
C618   H626    1.084   .     S
C621   N628    1.366   .     A
C621   H643    1.082   .     S
C622   H644    1.082   .     S
C622   N627    1.366   .     A
C622   C966    1.416   .     S
C623   N627    1.366   .     A
C623   H645    1.082   .     S
C623   C963    1.416   .     S
C624   N628    1.366   .     A
C624   H646    1.082   .     S
N627   Zn637   2.009   .     S
N628   Zn638   2.009   .     S
O629   Zn637   2.002   .     S
O630   Zn638   2.002   .     S
O631   Zn638   2.002   .     S
O632   Zn637   2.002   .     S
O633   Zn637   1.970   .     S
O634   Zn638   1.970   .     S
O635   Zn638   1.982   .     S
O636   Zn637   1.982   .     S
H639   C651    1.088   .     S
C647   O667    1.283   .     A
C647   C658    1.421   .     S
C647   O669    1.284   .     A
C648   O668    1.283   .     A
C648   C657    1.421   .     S
C648   O670    1.284   .     A
C649   O673    1.280   .     A
C649   O671    1.277   .     A
C649   C651    1.403   .     S
C650   O672    1.277   .     A
C650   O674    1.280   .     A
C650   C652    1.403   .     S
C652   C575    1.330   1_655 S
C652   H602    1.088   1_655 S
C653   H679    1.084   .     S
C653   C658    1.397   .     A
C654   H680    1.084   .     S
C654   C657    1.397   .     A
C654   C428    1.370   1_565 S
C655   C657    1.397   .     A
C655   H663    1.084   .     S
C655   C425    1.370   1_565 S
C656   C658    1.397   .     A
C656   H664    1.084   .     S
C659   N666    1.366   .     A
C659   H681    1.082   .     S
C660   H682    1.082   .     S
C660   N665    1.366   .     A
C660   C1004   1.416   .     S
C661   N665    1.366   .     A
C661   H683    1.082   .     S
C661   C1001   1.416   .     S
C662   N666    1.366   .     A
C662   H684    1.082   .     S
N665   Zn675   2.009   .     S
N666   Zn676   2.009   .     S
O667   Zn675   2.002   .     S
O668   Zn676   2.002   .     S
O669   Zn676   2.002   .     S
O670   Zn675   2.002   .     S
O671   Zn675   1.970   .     S
O672   Zn676   1.970   .     S
O673   Zn676   1.982   .     S
O674   Zn675   1.982   .     S
H677   C575    1.088   1_655 S
C685   O705    1.283   .     A
C685   C696    1.421   .     S
C685   O707    1.284   .     A
C686   O706    1.283   .     A
C686   C695    1.421   .     S
C686   O708    1.284   .     A
C687   O711    1.280   .     A
C687   O709    1.277   .     A
C687   C689    1.403   .     S
C688   O710    1.277   .     A
C688   O712    1.280   .     A
C688   C690    1.403   .     S
C689   C766    1.330   1_455 S
C689   H791    1.088   1_455 S
C690   C727    1.330   .     S
C690   H754    1.088   .     S
C691   H717    1.084   .     S
C691   C696    1.397   .     A
C691   C921    1.370   1_545 S
C692   H718    1.084   .     S
C692   C695    1.397   .     A
C692   C808    1.370   .     S
C693   C695    1.397   .     A
C693   H701    1.084   .     S
C693   C805    1.370   .     S
C694   C696    1.397   .     A
C694   H702    1.084   .     S
C694   C920    1.370   1_545 S
C697   N704    1.366   .     A
C697   H719    1.082   .     S
C698   H720    1.082   .     S
C698   N703    1.366   .     A
C698   C16     1.416   1_556 S
C699   N703    1.366   .     A
C699   H721    1.082   .     S
C699   C13     1.416   1_556 S
C700   N704    1.366   .     A
C700   H722    1.082   .     S
N703   Zn713   2.009   .     S
N704   Zn714   2.009   .     S
O705   Zn713   2.002   .     S
O706   Zn714   2.002   .     S
O707   Zn714   2.002   .     S
O708   Zn713   2.002   .     S
O709   Zn713   1.970   .     S
O710   Zn714   1.970   .     S
O711   Zn714   1.982   .     S
O712   Zn713   1.982   .     S
H715   C727    1.088   .     S
H716   C766    1.088   1_455 S
C723   O743    1.283   .     A
C723   C734    1.421   .     S
C723   O745    1.284   .     A
C724   O744    1.283   .     A
C724   C733    1.421   .     S
C724   O746    1.284   .     A
C725   O749    1.280   .     A
C725   O747    1.277   .     A
C725   C727    1.403   .     S
C726   O748    1.277   .     A
C726   O750    1.280   .     A
C726   C728    1.403   .     S
C728   C765    1.330   .     S
C728   H792    1.088   .     S
C729   H755    1.084   .     S
C729   C734    1.397   .     A
C729   C959    1.370   1_545 S
C730   H756    1.084   .     S
C730   C733    1.397   .     A
C730   C846    1.370   .     S
C731   C733    1.397   .     A
C731   H739    1.084   .     S
C731   C843    1.370   .     S
C732   C734    1.397   .     A
C732   H740    1.084   .     S
C732   C958    1.370   1_545 S
C735   N742    1.366   .     A
C735   H757    1.082   .     S
C736   H758    1.082   .     S
C736   N741    1.366   .     A
C736   C54     1.416   1_556 S
C737   N741    1.366   .     A
C737   H759    1.082   .     S
C737   C51     1.416   1_556 S
C738   N742    1.366   .     A
C738   H760    1.082   .     S
N741   Zn751   2.009   .     S
N742   Zn752   2.009   .     S
O743   Zn751   2.002   .     S
O744   Zn752   2.002   .     S
O745   Zn752   2.002   .     S
O746   Zn751   2.002   .     S
O747   Zn751   1.970   .     S
O748   Zn752   1.970   .     S
O749   Zn752   1.982   .     S
O750   Zn751   1.982   .     S
H753   C765    1.088   .     S
C761   O781    1.283   .     A
C761   C772    1.421   .     S
C761   O783    1.284   .     A
C762   O782    1.283   .     A
C762   C771    1.421   .     S
C762   O784    1.284   .     A
C763   O787    1.280   .     A
C763   O785    1.277   .     A
C763   C765    1.403   .     S
C764   O786    1.277   .     A
C764   O788    1.280   .     A
C764   C766    1.403   .     S
C766   C689    1.330   1_655 S
C766   H716    1.088   1_655 S
C767   H793    1.084   .     S
C767   C772    1.397   .     A
C767   C997    1.370   1_545 S
C768   H794    1.084   .     S
C768   C771    1.397   .     A
C768   C884    1.370   .     S
C769   C771    1.397   .     A
C769   H777    1.084   .     S
C769   C881    1.370   .     S
C770   C772    1.397   .     A
C770   H778    1.084   .     S
C770   C996    1.370   1_545 S
C773   N780    1.366   .     A
C773   H795    1.082   .     S
C774   H796    1.082   .     S
C774   N779    1.366   .     A
C774   C92     1.416   1_556 S
C775   N779    1.366   .     A
C775   H797    1.082   .     S
C775   C89     1.416   1_556 S
C776   N780    1.366   .     A
C776   H798    1.082   .     S
N779   Zn789   2.009   .     S
N780   Zn790   2.009   .     S
O781   Zn789   2.002   .     S
O782   Zn790   2.002   .     S
O783   Zn790   2.002   .     S
O784   Zn789   2.002   .     S
O785   Zn789   1.970   .     S
O786   Zn790   1.970   .     S
O787   Zn790   1.982   .     S
O788   Zn789   1.982   .     S
H791   C689    1.088   1_655 S
C799   O819    1.283   .     A
C799   C810    1.421   .     S
C799   O821    1.284   .     A
C800   O820    1.283   .     A
C800   C809    1.421   .     S
C800   O822    1.284   .     A
C801   O825    1.280   .     A
C801   O823    1.277   .     A
C801   C803    1.403   .     S
C802   O824    1.277   .     A
C802   O826    1.280   .     A
C802   C804    1.403   .     S
C803   C880    1.330   1_455 S
C803   H905    1.088   1_455 S
C804   C841    1.330   .     S
C804   H868    1.088   .     S
C805   H831    1.084   .     S
C805   C810    1.397   .     A
C806   H832    1.084   .     S
C806   C809    1.397   .     A
C806   C922    1.370   .     S
C807   C809    1.397   .     A
C807   H815    1.084   .     S
C807   C919    1.370   .     S
C808   C810    1.397   .     A
C808   H816    1.084   .     S
C811   N818    1.366   .     A
C811   H833    1.082   .     S
C812   H834    1.082   .     S
C812   N817    1.366   .     A
C812   C130    1.416   1_556 S
C813   N817    1.366   .     A
C813   H835    1.082   .     S
C813   C127    1.416   1_556 S
C814   N818    1.366   .     A
C814   H836    1.082   .     S
N817   Zn827   2.009   .     S
N818   Zn828   2.009   .     S
O819   Zn827   2.002   .     S
O820   Zn828   2.002   .     S
O821   Zn828   2.002   .     S
O822   Zn827   2.002   .     S
O823   Zn827   1.970   .     S
O824   Zn828   1.970   .     S
O825   Zn828   1.982   .     S
O826   Zn827   1.982   .     S
H829   C841    1.088   .     S
H830   C880    1.088   1_455 S
C837   O857    1.283   .     A
C837   C848    1.421   .     S
C837   O859    1.284   .     A
C838   O858    1.283   .     A
C838   C847    1.421   .     S
C838   O860    1.284   .     A
C839   O863    1.280   .     A
C839   O861    1.277   .     A
C839   C841    1.403   .     S
C840   O862    1.277   .     A
C840   O864    1.280   .     A
C840   C842    1.403   .     S
C842   C879    1.330   .     S
C842   H906    1.088   .     S
C843   H869    1.084   .     S
C843   C848    1.397   .     A
C844   H870    1.084   .     S
C844   C847    1.397   .     A
C844   C960    1.370   .     S
C845   C847    1.397   .     A
C845   H853    1.084   .     S
C845   C957    1.370   .     S
C846   C848    1.397   .     A
C846   H854    1.084   .     S
C849   N856    1.366   .     A
C849   H871    1.082   .     S
C850   H872    1.082   .     S
C850   N855    1.366   .     A
C850   C168    1.416   1_556 S
C851   N855    1.366   .     A
C851   H873    1.082   .     S
C851   C165    1.416   1_556 S
C852   N856    1.366   .     A
C852   H874    1.082   .     S
N855   Zn865   2.009   .     S
N856   Zn866   2.009   .     S
O857   Zn865   2.002   .     S
O858   Zn866   2.002   .     S
O859   Zn866   2.002   .     S
O860   Zn865   2.002   .     S
O861   Zn865   1.970   .     S
O862   Zn866   1.970   .     S
O863   Zn866   1.982   .     S
O864   Zn865   1.982   .     S
H867   C879    1.088   .     S
C875   O895    1.283   .     A
C875   C886    1.421   .     S
C875   O897    1.284   .     A
C876   O896    1.283   .     A
C876   C885    1.421   .     S
C876   O898    1.284   .     A
C877   O901    1.280   .     A
C877   O899    1.277   .     A
C877   C879    1.403   .     S
C878   O900    1.277   .     A
C878   O902    1.280   .     A
C878   C880    1.403   .     S
C880   C803    1.330   1_655 S
C880   H830    1.088   1_655 S
C881   H907    1.084   .     S
C881   C886    1.397   .     A
C882   H908    1.084   .     S
C882   C885    1.397   .     A
C882   C998    1.370   .     S
C883   C885    1.397   .     A
C883   H891    1.084   .     S
C883   C995    1.370   .     S
C884   C886    1.397   .     A
C884   H892    1.084   .     S
C887   N894    1.366   .     A
C887   H909    1.082   .     S
C888   H910    1.082   .     S
C888   N893    1.366   .     A
C888   C206    1.416   1_556 S
C889   N893    1.366   .     A
C889   H911    1.082   .     S
C889   C203    1.416   1_556 S
C890   N894    1.366   .     A
C890   H912    1.082   .     S
N893   Zn903   2.009   .     S
N894   Zn904   2.009   .     S
O895   Zn903   2.002   .     S
O896   Zn904   2.002   .     S
O897   Zn904   2.002   .     S
O898   Zn903   2.002   .     S
O899   Zn903   1.970   .     S
O900   Zn904   1.970   .     S
O901   Zn904   1.982   .     S
O902   Zn903   1.982   .     S
H905   C803    1.088   1_655 S
C913   O933    1.283   .     A
C913   C924    1.421   .     S
C913   O935    1.284   .     A
C914   O934    1.283   .     A
C914   C923    1.421   .     S
C914   O936    1.284   .     A
C915   O939    1.280   .     A
C915   O937    1.277   .     A
C915   C917    1.403   .     S
C916   O938    1.277   .     A
C916   O940    1.280   .     A
C916   C918    1.403   .     S
C917   C994    1.330   1_455 S
C917   H1019   1.088   1_455 S
C918   C955    1.330   .     S
C918   H982    1.088   .     S
C919   H945    1.084   .     S
C919   C924    1.397   .     A
C920   H946    1.084   .     S
C920   C923    1.397   .     A
C920   C694    1.370   1_565 S
C921   C923    1.397   .     A
C921   H929    1.084   .     S
C921   C691    1.370   1_565 S
C922   C924    1.397   .     A
C922   H930    1.084   .     S
C925   N932    1.366   .     A
C925   H947    1.082   .     S
C926   H948    1.082   .     S
C926   N931    1.366   .     A
C926   C244    1.416   1_556 S
C927   N931    1.366   .     A
C927   H949    1.082   .     S
C927   C241    1.416   1_556 S
C928   N932    1.366   .     A
C928   H950    1.082   .     S
N931   Zn941   2.009   .     S
N932   Zn942   2.009   .     S
O933   Zn941   2.002   .     S
O934   Zn942   2.002   .     S
O935   Zn942   2.002   .     S
O936   Zn941   2.002   .     S
O937   Zn941   1.970   .     S
O938   Zn942   1.970   .     S
O939   Zn942   1.982   .     S
O940   Zn941   1.982   .     S
H943   C955    1.088   .     S
H944   C994    1.088   1_455 S
C951   O971    1.283   .     A
C951   C962    1.421   .     S
C951   O973    1.284   .     A
C952   O972    1.283   .     A
C952   C961    1.421   .     S
C952   O974    1.284   .     A
C953   O977    1.280   .     A
C953   O975    1.277   .     A
C953   C955    1.403   .     S
C954   O976    1.277   .     A
C954   O978    1.280   .     A
C954   C956    1.403   .     S
C956   C993    1.330   .     S
C956   H1020   1.088   .     S
C957   H983    1.084   .     S
C957   C962    1.397   .     A
C958   H984    1.084   .     S
C958   C961    1.397   .     A
C958   C732    1.370   1_565 S
C959   C961    1.397   .     A
C959   H967    1.084   .     S
C959   C729    1.370   1_565 S
C960   C962    1.397   .     A
C960   H968    1.084   .     S
C963   N970    1.366   .     A
C963   H985    1.082   .     S
C964   H986    1.082   .     S
C964   N969    1.366   .     A
C964   C282    1.416   1_556 S
C965   N969    1.366   .     A
C965   H987    1.082   .     S
C965   C279    1.416   1_556 S
C966   N970    1.366   .     A
C966   H988    1.082   .     S
N969   Zn979   2.009   .     S
N970   Zn980   2.009   .     S
O971   Zn979   2.002   .     S
O972   Zn980   2.002   .     S
O973   Zn980   2.002   .     S
O974   Zn979   2.002   .     S
O975   Zn979   1.970   .     S
O976   Zn980   1.970   .     S
O977   Zn980   1.982   .     S
O978   Zn979   1.982   .     S
H981   C993    1.088   .     S
C989   O1009   1.283   .     A
C989   C1000   1.421   .     S
C989   O1011   1.284   .     A
C990   O1010   1.283   .     A
C990   C999    1.421   .     S
C990   O1012   1.284   .     A
C991   O1015   1.280   .     A
C991   O1013   1.277   .     A
C991   C993    1.403   .     S
C992   O1014   1.277   .     A
C992   O1016   1.280   .     A
C992   C994    1.403   .     S
C994   C917    1.330   1_655 S
C994   H944    1.088   1_655 S
C995   H1021   1.084   .     S
C995   C1000   1.397   .     A
C996   H1022   1.084   .     S
C996   C999    1.397   .     A
C996   C770    1.370   1_565 S
C997   C999    1.397   .     A
C997   H1005   1.084   .     S
C997   C767    1.370   1_565 S
C998   C1000   1.397   .     A
C998   H1006   1.084   .     S
C1001  N1008   1.366   .     A
C1001  H1023   1.082   .     S
C1002  H1024   1.082   .     S
C1002  N1007   1.366   .     A
C1002  C320    1.416   1_556 S
C1003  N1007   1.366   .     A
C1003  H1025   1.082   .     S
C1003  C317    1.416   1_556 S
C1004  N1008   1.366   .     A
C1004  H1026   1.082   .     S
N1007  Zn1017  2.009   .     S
N1008  Zn1018  2.009   .     S
O1009  Zn1017  2.002   .     S
O1010  Zn1018  2.002   .     S
O1011  Zn1018  2.002   .     S
O1012  Zn1017  2.002   .     S
O1013  Zn1017  1.970   .     S
O1014  Zn1018  1.970   .     S
O1015  Zn1018  1.982   .     S
O1016  Zn1017  1.982   .     S
H1019  C917    1.088   1_655 S
