data_str_m3_o2_o5_pcu_sym.112
_audit_creation_date              2020-01-03
_audit_creation_method            'Materials Studio'
_symmetry_space_group_name_H-M    'P1'
_symmetry_Int_Tables_number       1
_symmetry_cell_setting            triclinic
loop_
_symmetry_equiv_pos_as_xyz
  x,y,z
_cell_length_a                    30.0243
_cell_length_b                    28.6144
_cell_length_c                    26.7457
_cell_angle_alpha                 90.0004
_cell_angle_beta                  91.9164
_cell_angle_gamma                 90.0001
loop_
_atom_site_label
_atom_site_type_symbol
_atom_site_fract_x
_atom_site_fract_y
_atom_site_fract_z
_atom_site_U_iso_or_equiv
_atom_site_adp_type
_atom_site_occupancy
C1     C     0.16399   0.24999   0.16656   0.00000  Uiso   1.00
C2     C     0.21571   0.44771   0.14272   0.00000  Uiso   1.00
C3     C     0.24988   0.25000   0.07294   0.00000  Uiso   1.00
C4     C     0.25012   0.25000   0.26039   0.00000  Uiso   1.00
C5     C     0.25000   0.02655   0.16667   0.00000  Uiso   1.00
C6     C     0.25000   0.47350   0.16667   0.00000  Uiso   1.00
C7     C     0.24995   0.24999   0.02180   0.00000  Uiso   1.00
C8     C     0.25005   0.24999   0.31153   0.00000  Uiso   1.00
C9     C     0.04650   0.28903   0.14889   0.00000  Uiso   1.00
C10    C     0.45237   0.21057   0.14931   0.00000  Uiso   1.00
C11    C     0.45351   0.28912   0.18418   0.00000  Uiso   1.00
C12    C     0.33601   0.24999   0.16677   0.00000  Uiso   1.00
C13    C     0.04764   0.21065   0.18418   0.00000  Uiso   1.00
C14    C     0.09249   0.28920   0.14913   0.00000  Uiso   1.00
C15    C     0.40639   0.21051   0.14962   0.00000  Uiso   1.00
C16    C     0.40751   0.28928   0.18396   0.00000  Uiso   1.00
C17    C     0.09362   0.21059   0.18389   0.00000  Uiso   1.00
C18    C     0.11606   0.24994   0.16653   0.00000  Uiso   1.00
C19    C     0.38394   0.24994   0.16679   0.00000  Uiso   1.00
C20    C     0.02406   0.24983   0.16657   0.00000  Uiso   1.00
C21    C     0.47594   0.24983   0.16670   0.00000  Uiso   1.00
C22    C     0.22790   0.10151   0.12909   0.00000  Uiso   1.00
C23    C     0.28328   0.39853   0.19180   0.00000  Uiso   1.00
C24    C     0.27210   0.10152   0.20424   0.00000  Uiso   1.00
C25    C     0.21672   0.39853   0.14153   0.00000  Uiso   1.00
C26    C     0.22899   0.05233   0.12794   0.00000  Uiso   1.00
C27    C     0.28429   0.44772   0.19061   0.00000  Uiso   1.00
C28    C     0.27101   0.05233   0.20539   0.00000  Uiso   1.00
H29    H     0.02844   0.31922   0.13452   0.00000  Uiso   1.00
H30    H     0.38844   0.18002   0.13585   0.00000  Uiso   1.00
H31    H     0.39049   0.31980   0.19777   0.00000  Uiso   1.00
H32    H     0.11158   0.18017   0.19784   0.00000  Uiso   1.00
H33    H     0.21273   0.03467   0.09657   0.00000  Uiso   1.00
H34    H     0.31208   0.46538   0.20916   0.00000  Uiso   1.00
H35    H     0.28728   0.03467   0.23676   0.00000  Uiso   1.00
H36    H     0.18792   0.46538   0.12417   0.00000  Uiso   1.00
H37    H     0.46950   0.18027   0.13509   0.00000  Uiso   1.00
H38    H     0.47156   0.31938   0.19837   0.00000  Uiso   1.00
H39    H     0.03051   0.18042   0.19857   0.00000  Uiso   1.00
H40    H     0.19400   0.15372   0.10402   0.00000  Uiso   1.00
H41    H     0.30575   0.34606   0.22941   0.00000  Uiso   1.00
H42    H     0.30601   0.15372   0.22931   0.00000  Uiso   1.00
H43    H     0.19425   0.34606   0.10393   0.00000  Uiso   1.00
H44    H     0.10952   0.31964   0.13516   0.00000  Uiso   1.00
N45    N     0.25000   0.12624   0.16667   0.00000  Uiso   1.00
N46    N     0.25000   0.37377   0.16667   0.00000  Uiso   1.00
O47    O     0.18453   0.28974   0.16667   0.00000  Uiso   1.00
O48    O     0.31683   0.37676   0.21907   0.00000  Uiso   1.00
O49    O     0.29610   0.12338   0.24208   0.00000  Uiso   1.00
O50    O     0.18317   0.37675   0.11427   0.00000  Uiso   1.00
O51    O     0.31547   0.21026   0.16666   0.00000  Uiso   1.00
O52    O     0.31547   0.28974   0.16666   0.00000  Uiso   1.00
O53    O     0.18453   0.21026   0.16667   0.00000  Uiso   1.00
O54    O     0.25000   0.28973   0.09511   0.00000  Uiso   1.00
O55    O     0.25000   0.21027   0.23822   0.00000  Uiso   1.00
O56    O     0.25000   0.28973   0.23822   0.00000  Uiso   1.00
O57    O     0.25000   0.21027   0.09511   0.00000  Uiso   1.00
O58    O     0.20390   0.12337   0.09125   0.00000  Uiso   1.00
Zn59   Zn    0.25000   0.30307   0.16667   0.00000  Uiso   1.00
Zn60   Zn    0.25000   0.19693   0.16667   0.00000  Uiso   1.00
C61    C     0.66399   0.24999   0.16656   0.00000  Uiso   1.00
C62    C     0.71571   0.44771   0.14272   0.00000  Uiso   1.00
C63    C     0.74988   0.25000   0.07294   0.00000  Uiso   1.00
C64    C     0.75012   0.25000   0.26039   0.00000  Uiso   1.00
C65    C     0.75000   0.02655   0.16667   0.00000  Uiso   1.00
C66    C     0.75000   0.47350   0.16667   0.00000  Uiso   1.00
C67    C     0.74995   0.24999   0.02180   0.00000  Uiso   1.00
C68    C     0.75005   0.24999   0.31153   0.00000  Uiso   1.00
C69    C     0.54650   0.28903   0.14889   0.00000  Uiso   1.00
C70    C     0.95237   0.21057   0.14931   0.00000  Uiso   1.00
C71    C     0.95351   0.28912   0.18418   0.00000  Uiso   1.00
C72    C     0.83601   0.24999   0.16677   0.00000  Uiso   1.00
C73    C     0.54764   0.21065   0.18418   0.00000  Uiso   1.00
C74    C     0.59249   0.28920   0.14913   0.00000  Uiso   1.00
C75    C     0.90639   0.21051   0.14962   0.00000  Uiso   1.00
C76    C     0.90751   0.28928   0.18396   0.00000  Uiso   1.00
C77    C     0.59362   0.21059   0.18389   0.00000  Uiso   1.00
C78    C     0.61606   0.24994   0.16653   0.00000  Uiso   1.00
C79    C     0.88394   0.24994   0.16679   0.00000  Uiso   1.00
C80    C     0.52406   0.24983   0.16657   0.00000  Uiso   1.00
C81    C     0.97594   0.24983   0.16670   0.00000  Uiso   1.00
C82    C     0.72790   0.10151   0.12909   0.00000  Uiso   1.00
C83    C     0.78328   0.39853   0.19180   0.00000  Uiso   1.00
C84    C     0.77210   0.10152   0.20424   0.00000  Uiso   1.00
C85    C     0.71672   0.39853   0.14153   0.00000  Uiso   1.00
C86    C     0.72899   0.05233   0.12794   0.00000  Uiso   1.00
C87    C     0.78429   0.44772   0.19061   0.00000  Uiso   1.00
C88    C     0.77101   0.05233   0.20539   0.00000  Uiso   1.00
H89    H     0.52844   0.31922   0.13452   0.00000  Uiso   1.00
H90    H     0.88844   0.18002   0.13585   0.00000  Uiso   1.00
H91    H     0.89049   0.31980   0.19777   0.00000  Uiso   1.00
H92    H     0.61158   0.18017   0.19784   0.00000  Uiso   1.00
H93    H     0.71273   0.03467   0.09657   0.00000  Uiso   1.00
H94    H     0.81208   0.46538   0.20916   0.00000  Uiso   1.00
H95    H     0.78728   0.03467   0.23676   0.00000  Uiso   1.00
H96    H     0.68792   0.46538   0.12417   0.00000  Uiso   1.00
H97    H     0.96950   0.18027   0.13509   0.00000  Uiso   1.00
H98    H     0.97156   0.31938   0.19837   0.00000  Uiso   1.00
H99    H     0.53051   0.18042   0.19857   0.00000  Uiso   1.00
H100   H     0.69400   0.15372   0.10402   0.00000  Uiso   1.00
H101   H     0.80575   0.34606   0.22941   0.00000  Uiso   1.00
H102   H     0.80601   0.15372   0.22931   0.00000  Uiso   1.00
H103   H     0.69425   0.34606   0.10393   0.00000  Uiso   1.00
H104   H     0.60952   0.31964   0.13516   0.00000  Uiso   1.00
N105   N     0.75000   0.12624   0.16667   0.00000  Uiso   1.00
N106   N     0.75000   0.37377   0.16667   0.00000  Uiso   1.00
O107   O     0.68453   0.28974   0.16667   0.00000  Uiso   1.00
O108   O     0.81683   0.37676   0.21907   0.00000  Uiso   1.00
O109   O     0.79610   0.12338   0.24208   0.00000  Uiso   1.00
O110   O     0.68317   0.37675   0.11427   0.00000  Uiso   1.00
O111   O     0.81547   0.21026   0.16666   0.00000  Uiso   1.00
O112   O     0.81547   0.28974   0.16666   0.00000  Uiso   1.00
O113   O     0.68453   0.21026   0.16667   0.00000  Uiso   1.00
O114   O     0.75000   0.28973   0.09511   0.00000  Uiso   1.00
O115   O     0.75000   0.21027   0.23822   0.00000  Uiso   1.00
O116   O     0.75000   0.28973   0.23822   0.00000  Uiso   1.00
O117   O     0.75000   0.21027   0.09511   0.00000  Uiso   1.00
O118   O     0.70390   0.12337   0.09125   0.00000  Uiso   1.00
Zn119  Zn    0.75000   0.30307   0.16667   0.00000  Uiso   1.00
Zn120  Zn    0.75000   0.19693   0.16667   0.00000  Uiso   1.00
C121   C     0.16399   0.74999   0.16656   0.00000  Uiso   1.00
C122   C     0.21571   0.94771   0.14272   0.00000  Uiso   1.00
C123   C     0.24988   0.75000   0.07294   0.00000  Uiso   1.00
C124   C     0.25012   0.75000   0.26039   0.00000  Uiso   1.00
C125   C     0.25000   0.52655   0.16667   0.00000  Uiso   1.00
C126   C     0.25000   0.97350   0.16667   0.00000  Uiso   1.00
C127   C     0.24995   0.74999   0.02180   0.00000  Uiso   1.00
C128   C     0.25005   0.74999   0.31153   0.00000  Uiso   1.00
C129   C     0.04650   0.78903   0.14889   0.00000  Uiso   1.00
C130   C     0.45237   0.71057   0.14931   0.00000  Uiso   1.00
C131   C     0.45351   0.78912   0.18418   0.00000  Uiso   1.00
C132   C     0.33601   0.74999   0.16677   0.00000  Uiso   1.00
C133   C     0.04764   0.71065   0.18418   0.00000  Uiso   1.00
C134   C     0.09249   0.78920   0.14913   0.00000  Uiso   1.00
C135   C     0.40639   0.71051   0.14962   0.00000  Uiso   1.00
C136   C     0.40751   0.78928   0.18396   0.00000  Uiso   1.00
C137   C     0.09362   0.71059   0.18389   0.00000  Uiso   1.00
C138   C     0.11606   0.74994   0.16653   0.00000  Uiso   1.00
C139   C     0.38394   0.74994   0.16679   0.00000  Uiso   1.00
C140   C     0.02406   0.74983   0.16657   0.00000  Uiso   1.00
C141   C     0.47594   0.74983   0.16670   0.00000  Uiso   1.00
C142   C     0.22790   0.60151   0.12909   0.00000  Uiso   1.00
C143   C     0.28328   0.89853   0.19180   0.00000  Uiso   1.00
C144   C     0.27210   0.60152   0.20424   0.00000  Uiso   1.00
C145   C     0.21672   0.89853   0.14153   0.00000  Uiso   1.00
C146   C     0.22899   0.55233   0.12794   0.00000  Uiso   1.00
C147   C     0.28429   0.94772   0.19061   0.00000  Uiso   1.00
C148   C     0.27101   0.55233   0.20539   0.00000  Uiso   1.00
H149   H     0.02844   0.81922   0.13452   0.00000  Uiso   1.00
H150   H     0.38844   0.68002   0.13585   0.00000  Uiso   1.00
H151   H     0.39049   0.81980   0.19777   0.00000  Uiso   1.00
H152   H     0.11158   0.68017   0.19784   0.00000  Uiso   1.00
H153   H     0.21273   0.53467   0.09657   0.00000  Uiso   1.00
H154   H     0.31208   0.96538   0.20916   0.00000  Uiso   1.00
H155   H     0.28728   0.53467   0.23676   0.00000  Uiso   1.00
H156   H     0.18792   0.96538   0.12417   0.00000  Uiso   1.00
H157   H     0.46950   0.68027   0.13509   0.00000  Uiso   1.00
H158   H     0.47156   0.81938   0.19837   0.00000  Uiso   1.00
H159   H     0.03051   0.68042   0.19857   0.00000  Uiso   1.00
H160   H     0.19400   0.65372   0.10402   0.00000  Uiso   1.00
H161   H     0.30575   0.84606   0.22941   0.00000  Uiso   1.00
H162   H     0.30601   0.65372   0.22931   0.00000  Uiso   1.00
H163   H     0.19425   0.84606   0.10393   0.00000  Uiso   1.00
H164   H     0.10952   0.81964   0.13516   0.00000  Uiso   1.00
N165   N     0.25000   0.62624   0.16667   0.00000  Uiso   1.00
N166   N     0.25000   0.87377   0.16667   0.00000  Uiso   1.00
O167   O     0.18453   0.78974   0.16667   0.00000  Uiso   1.00
O168   O     0.31683   0.87676   0.21907   0.00000  Uiso   1.00
O169   O     0.29610   0.62338   0.24208   0.00000  Uiso   1.00
O170   O     0.18317   0.87675   0.11427   0.00000  Uiso   1.00
O171   O     0.31547   0.71026   0.16666   0.00000  Uiso   1.00
O172   O     0.31547   0.78974   0.16666   0.00000  Uiso   1.00
O173   O     0.18453   0.71026   0.16667   0.00000  Uiso   1.00
O174   O     0.25000   0.78973   0.09511   0.00000  Uiso   1.00
O175   O     0.25000   0.71027   0.23822   0.00000  Uiso   1.00
O176   O     0.25000   0.78973   0.23822   0.00000  Uiso   1.00
O177   O     0.25000   0.71027   0.09511   0.00000  Uiso   1.00
O178   O     0.20390   0.62337   0.09125   0.00000  Uiso   1.00
Zn179  Zn    0.25000   0.80307   0.16667   0.00000  Uiso   1.00
Zn180  Zn    0.25000   0.69693   0.16667   0.00000  Uiso   1.00
C181   C     0.66399   0.74999   0.16656   0.00000  Uiso   1.00
C182   C     0.71571   0.94771   0.14272   0.00000  Uiso   1.00
C183   C     0.74988   0.75000   0.07294   0.00000  Uiso   1.00
C184   C     0.75012   0.75000   0.26039   0.00000  Uiso   1.00
C185   C     0.75000   0.52655   0.16667   0.00000  Uiso   1.00
C186   C     0.75000   0.97350   0.16667   0.00000  Uiso   1.00
C187   C     0.74995   0.74999   0.02180   0.00000  Uiso   1.00
C188   C     0.75005   0.74999   0.31153   0.00000  Uiso   1.00
C189   C     0.54650   0.78903   0.14889   0.00000  Uiso   1.00
C190   C     0.95237   0.71057   0.14931   0.00000  Uiso   1.00
C191   C     0.95351   0.78912   0.18418   0.00000  Uiso   1.00
C192   C     0.83601   0.74999   0.16677   0.00000  Uiso   1.00
C193   C     0.54764   0.71065   0.18418   0.00000  Uiso   1.00
C194   C     0.59249   0.78920   0.14913   0.00000  Uiso   1.00
C195   C     0.90639   0.71051   0.14962   0.00000  Uiso   1.00
C196   C     0.90751   0.78928   0.18396   0.00000  Uiso   1.00
C197   C     0.59362   0.71059   0.18389   0.00000  Uiso   1.00
C198   C     0.61606   0.74994   0.16653   0.00000  Uiso   1.00
C199   C     0.88394   0.74994   0.16679   0.00000  Uiso   1.00
C200   C     0.52406   0.74983   0.16657   0.00000  Uiso   1.00
C201   C     0.97594   0.74983   0.16670   0.00000  Uiso   1.00
C202   C     0.72790   0.60151   0.12909   0.00000  Uiso   1.00
C203   C     0.78328   0.89853   0.19180   0.00000  Uiso   1.00
C204   C     0.77210   0.60152   0.20424   0.00000  Uiso   1.00
C205   C     0.71672   0.89853   0.14153   0.00000  Uiso   1.00
C206   C     0.72899   0.55233   0.12794   0.00000  Uiso   1.00
C207   C     0.78429   0.94772   0.19061   0.00000  Uiso   1.00
C208   C     0.77101   0.55233   0.20539   0.00000  Uiso   1.00
H209   H     0.52844   0.81922   0.13452   0.00000  Uiso   1.00
H210   H     0.88844   0.68002   0.13585   0.00000  Uiso   1.00
H211   H     0.89049   0.81980   0.19777   0.00000  Uiso   1.00
H212   H     0.61158   0.68017   0.19784   0.00000  Uiso   1.00
H213   H     0.71273   0.53467   0.09657   0.00000  Uiso   1.00
H214   H     0.81208   0.96538   0.20916   0.00000  Uiso   1.00
H215   H     0.78728   0.53467   0.23676   0.00000  Uiso   1.00
H216   H     0.68792   0.96538   0.12417   0.00000  Uiso   1.00
H217   H     0.96950   0.68027   0.13509   0.00000  Uiso   1.00
H218   H     0.97156   0.81938   0.19837   0.00000  Uiso   1.00
H219   H     0.53051   0.68042   0.19857   0.00000  Uiso   1.00
H220   H     0.69400   0.65372   0.10402   0.00000  Uiso   1.00
H221   H     0.80575   0.84606   0.22941   0.00000  Uiso   1.00
H222   H     0.80601   0.65372   0.22931   0.00000  Uiso   1.00
H223   H     0.69425   0.84606   0.10393   0.00000  Uiso   1.00
H224   H     0.60952   0.81964   0.13516   0.00000  Uiso   1.00
N225   N     0.75000   0.62624   0.16667   0.00000  Uiso   1.00
N226   N     0.75000   0.87377   0.16667   0.00000  Uiso   1.00
O227   O     0.68453   0.78974   0.16667   0.00000  Uiso   1.00
O228   O     0.81683   0.87676   0.21907   0.00000  Uiso   1.00
O229   O     0.79610   0.62338   0.24208   0.00000  Uiso   1.00
O230   O     0.68317   0.87675   0.11427   0.00000  Uiso   1.00
O231   O     0.81547   0.71026   0.16666   0.00000  Uiso   1.00
O232   O     0.81547   0.78974   0.16666   0.00000  Uiso   1.00
O233   O     0.68453   0.71026   0.16667   0.00000  Uiso   1.00
O234   O     0.75000   0.78973   0.09511   0.00000  Uiso   1.00
O235   O     0.75000   0.71027   0.23822   0.00000  Uiso   1.00
O236   O     0.75000   0.78973   0.23822   0.00000  Uiso   1.00
O237   O     0.75000   0.71027   0.09511   0.00000  Uiso   1.00
O238   O     0.70390   0.62337   0.09125   0.00000  Uiso   1.00
Zn239  Zn    0.75000   0.80307   0.16667   0.00000  Uiso   1.00
Zn240  Zn    0.75000   0.69693   0.16667   0.00000  Uiso   1.00
C241   C     0.16399   0.24999   0.49989   0.00000  Uiso   1.00
C242   C     0.21571   0.44771   0.47605   0.00000  Uiso   1.00
C243   C     0.24988   0.25000   0.40628   0.00000  Uiso   1.00
C244   C     0.25012   0.25000   0.59372   0.00000  Uiso   1.00
C245   C     0.25000   0.02655   0.50000   0.00000  Uiso   1.00
C246   C     0.25000   0.47350   0.50000   0.00000  Uiso   1.00
C247   C     0.24995   0.24999   0.35514   0.00000  Uiso   1.00
C248   C     0.25005   0.24999   0.64486   0.00000  Uiso   1.00
C249   C     0.04650   0.28903   0.48222   0.00000  Uiso   1.00
C250   C     0.45237   0.21057   0.48265   0.00000  Uiso   1.00
C251   C     0.45351   0.28912   0.51751   0.00000  Uiso   1.00
C252   C     0.33601   0.24999   0.50011   0.00000  Uiso   1.00
C253   C     0.04764   0.21065   0.51751   0.00000  Uiso   1.00
C254   C     0.09249   0.28920   0.48247   0.00000  Uiso   1.00
C255   C     0.40639   0.21051   0.48296   0.00000  Uiso   1.00
C256   C     0.40751   0.28928   0.51729   0.00000  Uiso   1.00
C257   C     0.09362   0.21059   0.51723   0.00000  Uiso   1.00
C258   C     0.11606   0.24994   0.49986   0.00000  Uiso   1.00
C259   C     0.38394   0.24994   0.50012   0.00000  Uiso   1.00
C260   C     0.02406   0.24983   0.49991   0.00000  Uiso   1.00
C261   C     0.47594   0.24983   0.50003   0.00000  Uiso   1.00
C262   C     0.22790   0.10151   0.46243   0.00000  Uiso   1.00
C263   C     0.28328   0.39853   0.52513   0.00000  Uiso   1.00
C264   C     0.27210   0.10152   0.53757   0.00000  Uiso   1.00
C265   C     0.21672   0.39853   0.47487   0.00000  Uiso   1.00
C266   C     0.22899   0.05233   0.46128   0.00000  Uiso   1.00
C267   C     0.28429   0.44772   0.52395   0.00000  Uiso   1.00
C268   C     0.27101   0.05233   0.53872   0.00000  Uiso   1.00
H269   H     0.02844   0.31922   0.46786   0.00000  Uiso   1.00
H270   H     0.38844   0.18002   0.46918   0.00000  Uiso   1.00
H271   H     0.39049   0.31980   0.53110   0.00000  Uiso   1.00
H272   H     0.11158   0.18017   0.53118   0.00000  Uiso   1.00
H273   H     0.21273   0.03467   0.42991   0.00000  Uiso   1.00
H274   H     0.31208   0.46538   0.54250   0.00000  Uiso   1.00
H275   H     0.28728   0.03467   0.57009   0.00000  Uiso   1.00
H276   H     0.18792   0.46538   0.45750   0.00000  Uiso   1.00
H277   H     0.46950   0.18027   0.46842   0.00000  Uiso   1.00
H278   H     0.47156   0.31938   0.53170   0.00000  Uiso   1.00
H279   H     0.03051   0.18042   0.53190   0.00000  Uiso   1.00
H280   H     0.19400   0.15372   0.43735   0.00000  Uiso   1.00
H281   H     0.30575   0.34606   0.56274   0.00000  Uiso   1.00
H282   H     0.30601   0.15372   0.56264   0.00000  Uiso   1.00
H283   H     0.19425   0.34606   0.43726   0.00000  Uiso   1.00
H284   H     0.10952   0.31964   0.46849   0.00000  Uiso   1.00
N285   N     0.25000   0.12624   0.50000   0.00000  Uiso   1.00
N286   N     0.25000   0.37377   0.50000   0.00000  Uiso   1.00
O287   O     0.18453   0.28974   0.50000   0.00000  Uiso   1.00
O288   O     0.31683   0.37676   0.55240   0.00000  Uiso   1.00
O289   O     0.29610   0.12338   0.57541   0.00000  Uiso   1.00
O290   O     0.18317   0.37675   0.44760   0.00000  Uiso   1.00
O291   O     0.31547   0.21026   0.50000   0.00000  Uiso   1.00
O292   O     0.31547   0.28974   0.50000   0.00000  Uiso   1.00
O293   O     0.18453   0.21026   0.50000   0.00000  Uiso   1.00
O294   O     0.25000   0.28973   0.42845   0.00000  Uiso   1.00
O295   O     0.25000   0.21027   0.57155   0.00000  Uiso   1.00
O296   O     0.25000   0.28973   0.57155   0.00000  Uiso   1.00
O297   O     0.25000   0.21027   0.42845   0.00000  Uiso   1.00
O298   O     0.20390   0.12337   0.42459   0.00000  Uiso   1.00
Zn299  Zn    0.25000   0.30307   0.50000   0.00000  Uiso   1.00
Zn300  Zn    0.25000   0.19693   0.50000   0.00000  Uiso   1.00
C301   C     0.66399   0.24999   0.49989   0.00000  Uiso   1.00
C302   C     0.71571   0.44771   0.47605   0.00000  Uiso   1.00
C303   C     0.74988   0.25000   0.40628   0.00000  Uiso   1.00
C304   C     0.75012   0.25000   0.59372   0.00000  Uiso   1.00
C305   C     0.75000   0.02655   0.50000   0.00000  Uiso   1.00
C306   C     0.75000   0.47350   0.50000   0.00000  Uiso   1.00
C307   C     0.74995   0.24999   0.35514   0.00000  Uiso   1.00
C308   C     0.75005   0.24999   0.64486   0.00000  Uiso   1.00
C309   C     0.54650   0.28903   0.48222   0.00000  Uiso   1.00
C310   C     0.95237   0.21057   0.48265   0.00000  Uiso   1.00
C311   C     0.95351   0.28912   0.51751   0.00000  Uiso   1.00
C312   C     0.83601   0.24999   0.50011   0.00000  Uiso   1.00
C313   C     0.54764   0.21065   0.51751   0.00000  Uiso   1.00
C314   C     0.59249   0.28920   0.48247   0.00000  Uiso   1.00
C315   C     0.90639   0.21051   0.48296   0.00000  Uiso   1.00
C316   C     0.90751   0.28928   0.51729   0.00000  Uiso   1.00
C317   C     0.59362   0.21059   0.51723   0.00000  Uiso   1.00
C318   C     0.61606   0.24994   0.49986   0.00000  Uiso   1.00
C319   C     0.88394   0.24994   0.50012   0.00000  Uiso   1.00
C320   C     0.52406   0.24983   0.49991   0.00000  Uiso   1.00
C321   C     0.97594   0.24983   0.50003   0.00000  Uiso   1.00
C322   C     0.72790   0.10151   0.46243   0.00000  Uiso   1.00
C323   C     0.78328   0.39853   0.52513   0.00000  Uiso   1.00
C324   C     0.77210   0.10152   0.53757   0.00000  Uiso   1.00
C325   C     0.71672   0.39853   0.47487   0.00000  Uiso   1.00
C326   C     0.72899   0.05233   0.46128   0.00000  Uiso   1.00
C327   C     0.78429   0.44772   0.52395   0.00000  Uiso   1.00
C328   C     0.77101   0.05233   0.53872   0.00000  Uiso   1.00
H329   H     0.52844   0.31922   0.46786   0.00000  Uiso   1.00
H330   H     0.88844   0.18002   0.46918   0.00000  Uiso   1.00
H331   H     0.89049   0.31980   0.53110   0.00000  Uiso   1.00
H332   H     0.61158   0.18017   0.53118   0.00000  Uiso   1.00
H333   H     0.71273   0.03467   0.42991   0.00000  Uiso   1.00
H334   H     0.81208   0.46538   0.54250   0.00000  Uiso   1.00
H335   H     0.78728   0.03467   0.57009   0.00000  Uiso   1.00
H336   H     0.68792   0.46538   0.45750   0.00000  Uiso   1.00
H337   H     0.96950   0.18027   0.46842   0.00000  Uiso   1.00
H338   H     0.97156   0.31938   0.53170   0.00000  Uiso   1.00
H339   H     0.53051   0.18042   0.53190   0.00000  Uiso   1.00
H340   H     0.69400   0.15372   0.43735   0.00000  Uiso   1.00
H341   H     0.80575   0.34606   0.56274   0.00000  Uiso   1.00
H342   H     0.80601   0.15372   0.56264   0.00000  Uiso   1.00
H343   H     0.69425   0.34606   0.43726   0.00000  Uiso   1.00
H344   H     0.60952   0.31964   0.46849   0.00000  Uiso   1.00
N345   N     0.75000   0.12624   0.50000   0.00000  Uiso   1.00
N346   N     0.75000   0.37377   0.50000   0.00000  Uiso   1.00
O347   O     0.68453   0.28974   0.50000   0.00000  Uiso   1.00
O348   O     0.81683   0.37676   0.55240   0.00000  Uiso   1.00
O349   O     0.79610   0.12338   0.57541   0.00000  Uiso   1.00
O350   O     0.68317   0.37675   0.44760   0.00000  Uiso   1.00
O351   O     0.81547   0.21026   0.50000   0.00000  Uiso   1.00
O352   O     0.81547   0.28974   0.50000   0.00000  Uiso   1.00
O353   O     0.68453   0.21026   0.50000   0.00000  Uiso   1.00
O354   O     0.75000   0.28973   0.42845   0.00000  Uiso   1.00
O355   O     0.75000   0.21027   0.57155   0.00000  Uiso   1.00
O356   O     0.75000   0.28973   0.57155   0.00000  Uiso   1.00
O357   O     0.75000   0.21027   0.42845   0.00000  Uiso   1.00
O358   O     0.70390   0.12337   0.42459   0.00000  Uiso   1.00
Zn359  Zn    0.75000   0.30307   0.50000   0.00000  Uiso   1.00
Zn360  Zn    0.75000   0.19693   0.50000   0.00000  Uiso   1.00
C361   C     0.16399   0.74999   0.49989   0.00000  Uiso   1.00
C362   C     0.21571   0.94771   0.47605   0.00000  Uiso   1.00
C363   C     0.24988   0.75000   0.40628   0.00000  Uiso   1.00
C364   C     0.25012   0.75000   0.59372   0.00000  Uiso   1.00
C365   C     0.25000   0.52655   0.50000   0.00000  Uiso   1.00
C366   C     0.25000   0.97350   0.50000   0.00000  Uiso   1.00
C367   C     0.24995   0.74999   0.35514   0.00000  Uiso   1.00
C368   C     0.25005   0.74999   0.64486   0.00000  Uiso   1.00
C369   C     0.04650   0.78903   0.48222   0.00000  Uiso   1.00
C370   C     0.45237   0.71057   0.48265   0.00000  Uiso   1.00
C371   C     0.45351   0.78912   0.51751   0.00000  Uiso   1.00
C372   C     0.33601   0.74999   0.50011   0.00000  Uiso   1.00
C373   C     0.04764   0.71065   0.51751   0.00000  Uiso   1.00
C374   C     0.09249   0.78920   0.48247   0.00000  Uiso   1.00
C375   C     0.40639   0.71051   0.48296   0.00000  Uiso   1.00
C376   C     0.40751   0.78928   0.51729   0.00000  Uiso   1.00
C377   C     0.09362   0.71059   0.51723   0.00000  Uiso   1.00
C378   C     0.11606   0.74994   0.49986   0.00000  Uiso   1.00
C379   C     0.38394   0.74994   0.50012   0.00000  Uiso   1.00
C380   C     0.02406   0.74983   0.49991   0.00000  Uiso   1.00
C381   C     0.47594   0.74983   0.50003   0.00000  Uiso   1.00
C382   C     0.22790   0.60151   0.46243   0.00000  Uiso   1.00
C383   C     0.28328   0.89853   0.52513   0.00000  Uiso   1.00
C384   C     0.27210   0.60152   0.53757   0.00000  Uiso   1.00
C385   C     0.21672   0.89853   0.47487   0.00000  Uiso   1.00
C386   C     0.22899   0.55233   0.46128   0.00000  Uiso   1.00
C387   C     0.28429   0.94772   0.52395   0.00000  Uiso   1.00
C388   C     0.27101   0.55233   0.53872   0.00000  Uiso   1.00
H389   H     0.02844   0.81922   0.46786   0.00000  Uiso   1.00
H390   H     0.38844   0.68002   0.46918   0.00000  Uiso   1.00
H391   H     0.39049   0.81980   0.53110   0.00000  Uiso   1.00
H392   H     0.11158   0.68017   0.53118   0.00000  Uiso   1.00
H393   H     0.21273   0.53467   0.42991   0.00000  Uiso   1.00
H394   H     0.31208   0.96538   0.54250   0.00000  Uiso   1.00
H395   H     0.28728   0.53467   0.57009   0.00000  Uiso   1.00
H396   H     0.18792   0.96538   0.45750   0.00000  Uiso   1.00
H397   H     0.46950   0.68027   0.46842   0.00000  Uiso   1.00
H398   H     0.47156   0.81938   0.53170   0.00000  Uiso   1.00
H399   H     0.03051   0.68042   0.53190   0.00000  Uiso   1.00
H400   H     0.19400   0.65372   0.43735   0.00000  Uiso   1.00
H401   H     0.30575   0.84606   0.56274   0.00000  Uiso   1.00
H402   H     0.30601   0.65372   0.56264   0.00000  Uiso   1.00
H403   H     0.19425   0.84606   0.43726   0.00000  Uiso   1.00
H404   H     0.10952   0.81964   0.46849   0.00000  Uiso   1.00
N405   N     0.25000   0.62624   0.50000   0.00000  Uiso   1.00
N406   N     0.25000   0.87377   0.50000   0.00000  Uiso   1.00
O407   O     0.18453   0.78974   0.50000   0.00000  Uiso   1.00
O408   O     0.31683   0.87676   0.55240   0.00000  Uiso   1.00
O409   O     0.29610   0.62338   0.57541   0.00000  Uiso   1.00
O410   O     0.18317   0.87675   0.44760   0.00000  Uiso   1.00
O411   O     0.31547   0.71026   0.50000   0.00000  Uiso   1.00
O412   O     0.31547   0.78974   0.50000   0.00000  Uiso   1.00
O413   O     0.18453   0.71026   0.50000   0.00000  Uiso   1.00
O414   O     0.25000   0.78973   0.42845   0.00000  Uiso   1.00
O415   O     0.25000   0.71027   0.57155   0.00000  Uiso   1.00
O416   O     0.25000   0.78973   0.57155   0.00000  Uiso   1.00
O417   O     0.25000   0.71027   0.42845   0.00000  Uiso   1.00
O418   O     0.20390   0.62337   0.42459   0.00000  Uiso   1.00
Zn419  Zn    0.25000   0.80307   0.50000   0.00000  Uiso   1.00
Zn420  Zn    0.25000   0.69693   0.50000   0.00000  Uiso   1.00
C421   C     0.66399   0.74999   0.49989   0.00000  Uiso   1.00
C422   C     0.71571   0.94771   0.47605   0.00000  Uiso   1.00
C423   C     0.74988   0.75000   0.40628   0.00000  Uiso   1.00
C424   C     0.75012   0.75000   0.59372   0.00000  Uiso   1.00
C425   C     0.75000   0.52655   0.50000   0.00000  Uiso   1.00
C426   C     0.75000   0.97350   0.50000   0.00000  Uiso   1.00
C427   C     0.74995   0.74999   0.35514   0.00000  Uiso   1.00
C428   C     0.75005   0.74999   0.64486   0.00000  Uiso   1.00
C429   C     0.54650   0.78903   0.48222   0.00000  Uiso   1.00
C430   C     0.95237   0.71057   0.48265   0.00000  Uiso   1.00
C431   C     0.95351   0.78912   0.51751   0.00000  Uiso   1.00
C432   C     0.83601   0.74999   0.50011   0.00000  Uiso   1.00
C433   C     0.54764   0.71065   0.51751   0.00000  Uiso   1.00
C434   C     0.59249   0.78920   0.48247   0.00000  Uiso   1.00
C435   C     0.90639   0.71051   0.48296   0.00000  Uiso   1.00
C436   C     0.90751   0.78928   0.51729   0.00000  Uiso   1.00
C437   C     0.59362   0.71059   0.51723   0.00000  Uiso   1.00
C438   C     0.61606   0.74994   0.49986   0.00000  Uiso   1.00
C439   C     0.88394   0.74994   0.50012   0.00000  Uiso   1.00
C440   C     0.52406   0.74983   0.49991   0.00000  Uiso   1.00
C441   C     0.97594   0.74983   0.50003   0.00000  Uiso   1.00
C442   C     0.72790   0.60151   0.46243   0.00000  Uiso   1.00
C443   C     0.78328   0.89853   0.52513   0.00000  Uiso   1.00
C444   C     0.77210   0.60152   0.53757   0.00000  Uiso   1.00
C445   C     0.71672   0.89853   0.47487   0.00000  Uiso   1.00
C446   C     0.72899   0.55233   0.46128   0.00000  Uiso   1.00
C447   C     0.78429   0.94772   0.52395   0.00000  Uiso   1.00
C448   C     0.77101   0.55233   0.53872   0.00000  Uiso   1.00
H449   H     0.52844   0.81922   0.46786   0.00000  Uiso   1.00
H450   H     0.88844   0.68002   0.46918   0.00000  Uiso   1.00
H451   H     0.89049   0.81980   0.53110   0.00000  Uiso   1.00
H452   H     0.61158   0.68017   0.53118   0.00000  Uiso   1.00
H453   H     0.71273   0.53467   0.42991   0.00000  Uiso   1.00
H454   H     0.81208   0.96538   0.54250   0.00000  Uiso   1.00
H455   H     0.78728   0.53467   0.57009   0.00000  Uiso   1.00
H456   H     0.68792   0.96538   0.45750   0.00000  Uiso   1.00
H457   H     0.96950   0.68027   0.46842   0.00000  Uiso   1.00
H458   H     0.97156   0.81938   0.53170   0.00000  Uiso   1.00
H459   H     0.53051   0.68042   0.53190   0.00000  Uiso   1.00
H460   H     0.69400   0.65372   0.43735   0.00000  Uiso   1.00
H461   H     0.80575   0.84606   0.56274   0.00000  Uiso   1.00
H462   H     0.80601   0.65372   0.56264   0.00000  Uiso   1.00
H463   H     0.69425   0.84606   0.43726   0.00000  Uiso   1.00
H464   H     0.60952   0.81964   0.46849   0.00000  Uiso   1.00
N465   N     0.75000   0.62624   0.50000   0.00000  Uiso   1.00
N466   N     0.75000   0.87377   0.50000   0.00000  Uiso   1.00
O467   O     0.68453   0.78974   0.50000   0.00000  Uiso   1.00
O468   O     0.81683   0.87676   0.55240   0.00000  Uiso   1.00
O469   O     0.79610   0.62338   0.57541   0.00000  Uiso   1.00
O470   O     0.68317   0.87675   0.44760   0.00000  Uiso   1.00
O471   O     0.81547   0.71026   0.50000   0.00000  Uiso   1.00
O472   O     0.81547   0.78974   0.50000   0.00000  Uiso   1.00
O473   O     0.68453   0.71026   0.50000   0.00000  Uiso   1.00
O474   O     0.75000   0.78973   0.42845   0.00000  Uiso   1.00
O475   O     0.75000   0.71027   0.57155   0.00000  Uiso   1.00
O476   O     0.75000   0.78973   0.57155   0.00000  Uiso   1.00
O477   O     0.75000   0.71027   0.42845   0.00000  Uiso   1.00
O478   O     0.70390   0.62337   0.42459   0.00000  Uiso   1.00
Zn479  Zn    0.75000   0.80307   0.50000   0.00000  Uiso   1.00
Zn480  Zn    0.75000   0.69693   0.50000   0.00000  Uiso   1.00
C481   C     0.16399   0.24999   0.83322   0.00000  Uiso   1.00
C482   C     0.21571   0.44771   0.80939   0.00000  Uiso   1.00
C483   C     0.24988   0.25000   0.73961   0.00000  Uiso   1.00
C484   C     0.25012   0.25000   0.92705   0.00000  Uiso   1.00
C485   C     0.25000   0.02655   0.83333   0.00000  Uiso   1.00
C486   C     0.25000   0.47350   0.83333   0.00000  Uiso   1.00
C487   C     0.24995   0.24999   0.68847   0.00000  Uiso   1.00
C488   C     0.25005   0.24999   0.97820   0.00000  Uiso   1.00
C489   C     0.04650   0.28903   0.81556   0.00000  Uiso   1.00
C490   C     0.45237   0.21057   0.81598   0.00000  Uiso   1.00
C491   C     0.45351   0.28912   0.85084   0.00000  Uiso   1.00
C492   C     0.33601   0.24999   0.83344   0.00000  Uiso   1.00
C493   C     0.04764   0.21065   0.85085   0.00000  Uiso   1.00
C494   C     0.09249   0.28920   0.81580   0.00000  Uiso   1.00
C495   C     0.40639   0.21051   0.81629   0.00000  Uiso   1.00
C496   C     0.40751   0.28928   0.85062   0.00000  Uiso   1.00
C497   C     0.09362   0.21059   0.85056   0.00000  Uiso   1.00
C498   C     0.11606   0.24994   0.83320   0.00000  Uiso   1.00
C499   C     0.38394   0.24994   0.83345   0.00000  Uiso   1.00
C500   C     0.02406   0.24983   0.83324   0.00000  Uiso   1.00
C501   C     0.47594   0.24983   0.83337   0.00000  Uiso   1.00
C502   C     0.22790   0.10151   0.79576   0.00000  Uiso   1.00
C503   C     0.28328   0.39853   0.85847   0.00000  Uiso   1.00
C504   C     0.27210   0.10152   0.87090   0.00000  Uiso   1.00
C505   C     0.21672   0.39853   0.80820   0.00000  Uiso   1.00
C506   C     0.22899   0.05233   0.79461   0.00000  Uiso   1.00
C507   C     0.28429   0.44772   0.85728   0.00000  Uiso   1.00
C508   C     0.27101   0.05233   0.87206   0.00000  Uiso   1.00
H509   H     0.02844   0.31922   0.80119   0.00000  Uiso   1.00
H510   H     0.38844   0.18002   0.80251   0.00000  Uiso   1.00
H511   H     0.39049   0.31980   0.86444   0.00000  Uiso   1.00
H512   H     0.11158   0.18017   0.86451   0.00000  Uiso   1.00
H513   H     0.21273   0.03467   0.76324   0.00000  Uiso   1.00
H514   H     0.31208   0.46538   0.87583   0.00000  Uiso   1.00
H515   H     0.28728   0.03467   0.90342   0.00000  Uiso   1.00
H516   H     0.18792   0.46538   0.79084   0.00000  Uiso   1.00
H517   H     0.46950   0.18027   0.80176   0.00000  Uiso   1.00
H518   H     0.47156   0.31938   0.86504   0.00000  Uiso   1.00
H519   H     0.03051   0.18042   0.86523   0.00000  Uiso   1.00
H520   H     0.19400   0.15372   0.77069   0.00000  Uiso   1.00
H521   H     0.30575   0.34606   0.89607   0.00000  Uiso   1.00
H522   H     0.30601   0.15372   0.89598   0.00000  Uiso   1.00
H523   H     0.19425   0.34606   0.77059   0.00000  Uiso   1.00
H524   H     0.10952   0.31964   0.80183   0.00000  Uiso   1.00
N525   N     0.25000   0.12624   0.83333   0.00000  Uiso   1.00
N526   N     0.25000   0.37377   0.83333   0.00000  Uiso   1.00
O527   O     0.18453   0.28974   0.83334   0.00000  Uiso   1.00
O528   O     0.31683   0.37676   0.88573   0.00000  Uiso   1.00
O529   O     0.29610   0.12338   0.90875   0.00000  Uiso   1.00
O530   O     0.18317   0.37675   0.78093   0.00000  Uiso   1.00
O531   O     0.31547   0.21026   0.83333   0.00000  Uiso   1.00
O532   O     0.31547   0.28974   0.83333   0.00000  Uiso   1.00
O533   O     0.18453   0.21026   0.83334   0.00000  Uiso   1.00
O534   O     0.25000   0.28973   0.76178   0.00000  Uiso   1.00
O535   O     0.25000   0.21027   0.90489   0.00000  Uiso   1.00
O536   O     0.25000   0.28973   0.90489   0.00000  Uiso   1.00
O537   O     0.25000   0.21027   0.76178   0.00000  Uiso   1.00
O538   O     0.20390   0.12337   0.75792   0.00000  Uiso   1.00
Zn539  Zn    0.25000   0.30307   0.83333   0.00000  Uiso   1.00
Zn540  Zn    0.25000   0.19693   0.83333   0.00000  Uiso   1.00
C541   C     0.66399   0.24999   0.83322   0.00000  Uiso   1.00
C542   C     0.71571   0.44771   0.80939   0.00000  Uiso   1.00
C543   C     0.74988   0.25000   0.73961   0.00000  Uiso   1.00
C544   C     0.75012   0.25000   0.92705   0.00000  Uiso   1.00
C545   C     0.75000   0.02655   0.83333   0.00000  Uiso   1.00
C546   C     0.75000   0.47350   0.83333   0.00000  Uiso   1.00
C547   C     0.74995   0.24999   0.68847   0.00000  Uiso   1.00
C548   C     0.75005   0.24999   0.97820   0.00000  Uiso   1.00
C549   C     0.54650   0.28903   0.81556   0.00000  Uiso   1.00
C550   C     0.95237   0.21057   0.81598   0.00000  Uiso   1.00
C551   C     0.95351   0.28912   0.85084   0.00000  Uiso   1.00
C552   C     0.83601   0.24999   0.83344   0.00000  Uiso   1.00
C553   C     0.54764   0.21065   0.85085   0.00000  Uiso   1.00
C554   C     0.59249   0.28920   0.81580   0.00000  Uiso   1.00
C555   C     0.90639   0.21051   0.81629   0.00000  Uiso   1.00
C556   C     0.90751   0.28928   0.85062   0.00000  Uiso   1.00
C557   C     0.59362   0.21059   0.85056   0.00000  Uiso   1.00
C558   C     0.61606   0.24994   0.83320   0.00000  Uiso   1.00
C559   C     0.88394   0.24994   0.83345   0.00000  Uiso   1.00
C560   C     0.52406   0.24983   0.83324   0.00000  Uiso   1.00
C561   C     0.97594   0.24983   0.83337   0.00000  Uiso   1.00
C562   C     0.72790   0.10151   0.79576   0.00000  Uiso   1.00
C563   C     0.78328   0.39853   0.85847   0.00000  Uiso   1.00
C564   C     0.77210   0.10152   0.87090   0.00000  Uiso   1.00
C565   C     0.71672   0.39853   0.80820   0.00000  Uiso   1.00
C566   C     0.72899   0.05233   0.79461   0.00000  Uiso   1.00
C567   C     0.78429   0.44772   0.85728   0.00000  Uiso   1.00
C568   C     0.77101   0.05233   0.87206   0.00000  Uiso   1.00
H569   H     0.52844   0.31922   0.80119   0.00000  Uiso   1.00
H570   H     0.88844   0.18002   0.80251   0.00000  Uiso   1.00
H571   H     0.89049   0.31980   0.86444   0.00000  Uiso   1.00
H572   H     0.61158   0.18017   0.86451   0.00000  Uiso   1.00
H573   H     0.71273   0.03467   0.76324   0.00000  Uiso   1.00
H574   H     0.81208   0.46538   0.87583   0.00000  Uiso   1.00
H575   H     0.78728   0.03467   0.90342   0.00000  Uiso   1.00
H576   H     0.68792   0.46538   0.79084   0.00000  Uiso   1.00
H577   H     0.96950   0.18027   0.80176   0.00000  Uiso   1.00
H578   H     0.97156   0.31938   0.86504   0.00000  Uiso   1.00
H579   H     0.53051   0.18042   0.86523   0.00000  Uiso   1.00
H580   H     0.69400   0.15372   0.77069   0.00000  Uiso   1.00
H581   H     0.80575   0.34606   0.89607   0.00000  Uiso   1.00
H582   H     0.80601   0.15372   0.89598   0.00000  Uiso   1.00
H583   H     0.69425   0.34606   0.77059   0.00000  Uiso   1.00
H584   H     0.60952   0.31964   0.80183   0.00000  Uiso   1.00
N585   N     0.75000   0.12624   0.83333   0.00000  Uiso   1.00
N586   N     0.75000   0.37377   0.83333   0.00000  Uiso   1.00
O587   O     0.68453   0.28974   0.83334   0.00000  Uiso   1.00
O588   O     0.81683   0.37676   0.88573   0.00000  Uiso   1.00
O589   O     0.79610   0.12338   0.90875   0.00000  Uiso   1.00
O590   O     0.68317   0.37675   0.78093   0.00000  Uiso   1.00
O591   O     0.81547   0.21026   0.83333   0.00000  Uiso   1.00
O592   O     0.81547   0.28974   0.83333   0.00000  Uiso   1.00
O593   O     0.68453   0.21026   0.83334   0.00000  Uiso   1.00
O594   O     0.75000   0.28973   0.76178   0.00000  Uiso   1.00
O595   O     0.75000   0.21027   0.90489   0.00000  Uiso   1.00
O596   O     0.75000   0.28973   0.90489   0.00000  Uiso   1.00
O597   O     0.75000   0.21027   0.76178   0.00000  Uiso   1.00
O598   O     0.70390   0.12337   0.75792   0.00000  Uiso   1.00
Zn599  Zn    0.75000   0.30307   0.83333   0.00000  Uiso   1.00
Zn600  Zn    0.75000   0.19693   0.83333   0.00000  Uiso   1.00
C601   C     0.16399   0.74999   0.83322   0.00000  Uiso   1.00
C602   C     0.21571   0.94771   0.80939   0.00000  Uiso   1.00
C603   C     0.24988   0.75000   0.73961   0.00000  Uiso   1.00
C604   C     0.25012   0.75000   0.92705   0.00000  Uiso   1.00
C605   C     0.25000   0.52655   0.83333   0.00000  Uiso   1.00
C606   C     0.25000   0.97350   0.83333   0.00000  Uiso   1.00
C607   C     0.24995   0.74999   0.68847   0.00000  Uiso   1.00
C608   C     0.25005   0.74999   0.97820   0.00000  Uiso   1.00
C609   C     0.04650   0.78903   0.81556   0.00000  Uiso   1.00
C610   C     0.45237   0.71057   0.81598   0.00000  Uiso   1.00
C611   C     0.45351   0.78912   0.85084   0.00000  Uiso   1.00
C612   C     0.33601   0.74999   0.83344   0.00000  Uiso   1.00
C613   C     0.04764   0.71065   0.85085   0.00000  Uiso   1.00
C614   C     0.09249   0.78920   0.81580   0.00000  Uiso   1.00
C615   C     0.40639   0.71051   0.81629   0.00000  Uiso   1.00
C616   C     0.40751   0.78928   0.85062   0.00000  Uiso   1.00
C617   C     0.09362   0.71059   0.85056   0.00000  Uiso   1.00
C618   C     0.11606   0.74994   0.83320   0.00000  Uiso   1.00
C619   C     0.38394   0.74994   0.83345   0.00000  Uiso   1.00
C620   C     0.02406   0.74983   0.83324   0.00000  Uiso   1.00
C621   C     0.47594   0.74983   0.83337   0.00000  Uiso   1.00
C622   C     0.22790   0.60151   0.79576   0.00000  Uiso   1.00
C623   C     0.28328   0.89853   0.85847   0.00000  Uiso   1.00
C624   C     0.27210   0.60152   0.87090   0.00000  Uiso   1.00
C625   C     0.21672   0.89853   0.80820   0.00000  Uiso   1.00
C626   C     0.22899   0.55233   0.79461   0.00000  Uiso   1.00
C627   C     0.28429   0.94772   0.85728   0.00000  Uiso   1.00
C628   C     0.27101   0.55233   0.87206   0.00000  Uiso   1.00
H629   H     0.02844   0.81922   0.80119   0.00000  Uiso   1.00
H630   H     0.38844   0.68002   0.80251   0.00000  Uiso   1.00
H631   H     0.39049   0.81980   0.86444   0.00000  Uiso   1.00
H632   H     0.11158   0.68017   0.86451   0.00000  Uiso   1.00
H633   H     0.21273   0.53467   0.76324   0.00000  Uiso   1.00
H634   H     0.31208   0.96538   0.87583   0.00000  Uiso   1.00
H635   H     0.28728   0.53467   0.90342   0.00000  Uiso   1.00
H636   H     0.18792   0.96538   0.79084   0.00000  Uiso   1.00
H637   H     0.46950   0.68027   0.80176   0.00000  Uiso   1.00
H638   H     0.47156   0.81938   0.86504   0.00000  Uiso   1.00
H639   H     0.03051   0.68042   0.86523   0.00000  Uiso   1.00
H640   H     0.19400   0.65372   0.77069   0.00000  Uiso   1.00
H641   H     0.30575   0.84606   0.89607   0.00000  Uiso   1.00
H642   H     0.30601   0.65372   0.89598   0.00000  Uiso   1.00
H643   H     0.19425   0.84606   0.77059   0.00000  Uiso   1.00
H644   H     0.10952   0.81964   0.80183   0.00000  Uiso   1.00
N645   N     0.25000   0.62624   0.83333   0.00000  Uiso   1.00
N646   N     0.25000   0.87377   0.83333   0.00000  Uiso   1.00
O647   O     0.18453   0.78974   0.83334   0.00000  Uiso   1.00
O648   O     0.31683   0.87676   0.88573   0.00000  Uiso   1.00
O649   O     0.29610   0.62338   0.90875   0.00000  Uiso   1.00
O650   O     0.18317   0.87675   0.78093   0.00000  Uiso   1.00
O651   O     0.31547   0.71026   0.83333   0.00000  Uiso   1.00
O652   O     0.31547   0.78974   0.83333   0.00000  Uiso   1.00
O653   O     0.18453   0.71026   0.83334   0.00000  Uiso   1.00
O654   O     0.25000   0.78973   0.76178   0.00000  Uiso   1.00
O655   O     0.25000   0.71027   0.90489   0.00000  Uiso   1.00
O656   O     0.25000   0.78973   0.90489   0.00000  Uiso   1.00
O657   O     0.25000   0.71027   0.76178   0.00000  Uiso   1.00
O658   O     0.20390   0.62337   0.75792   0.00000  Uiso   1.00
Zn659  Zn    0.25000   0.80307   0.83333   0.00000  Uiso   1.00
Zn660  Zn    0.25000   0.69693   0.83333   0.00000  Uiso   1.00
C661   C     0.66399   0.74999   0.83322   0.00000  Uiso   1.00
C662   C     0.71571   0.94771   0.80939   0.00000  Uiso   1.00
C663   C     0.74988   0.75000   0.73961   0.00000  Uiso   1.00
C664   C     0.75012   0.75000   0.92705   0.00000  Uiso   1.00
C665   C     0.75000   0.52655   0.83333   0.00000  Uiso   1.00
C666   C     0.75000   0.97350   0.83333   0.00000  Uiso   1.00
C667   C     0.74995   0.74999   0.68847   0.00000  Uiso   1.00
C668   C     0.75005   0.74999   0.97820   0.00000  Uiso   1.00
C669   C     0.54650   0.78903   0.81556   0.00000  Uiso   1.00
C670   C     0.95237   0.71057   0.81598   0.00000  Uiso   1.00
C671   C     0.95351   0.78912   0.85084   0.00000  Uiso   1.00
C672   C     0.83601   0.74999   0.83344   0.00000  Uiso   1.00
C673   C     0.54764   0.71065   0.85085   0.00000  Uiso   1.00
C674   C     0.59249   0.78920   0.81580   0.00000  Uiso   1.00
C675   C     0.90639   0.71051   0.81629   0.00000  Uiso   1.00
C676   C     0.90751   0.78928   0.85062   0.00000  Uiso   1.00
C677   C     0.59362   0.71059   0.85056   0.00000  Uiso   1.00
C678   C     0.61606   0.74994   0.83320   0.00000  Uiso   1.00
C679   C     0.88394   0.74994   0.83345   0.00000  Uiso   1.00
C680   C     0.52406   0.74983   0.83324   0.00000  Uiso   1.00
C681   C     0.97594   0.74983   0.83337   0.00000  Uiso   1.00
C682   C     0.72790   0.60151   0.79576   0.00000  Uiso   1.00
C683   C     0.78328   0.89853   0.85847   0.00000  Uiso   1.00
C684   C     0.77210   0.60152   0.87090   0.00000  Uiso   1.00
C685   C     0.71672   0.89853   0.80820   0.00000  Uiso   1.00
C686   C     0.72899   0.55233   0.79461   0.00000  Uiso   1.00
C687   C     0.78429   0.94772   0.85728   0.00000  Uiso   1.00
C688   C     0.77101   0.55233   0.87206   0.00000  Uiso   1.00
H689   H     0.52844   0.81922   0.80119   0.00000  Uiso   1.00
H690   H     0.88844   0.68002   0.80251   0.00000  Uiso   1.00
H691   H     0.89049   0.81980   0.86444   0.00000  Uiso   1.00
H692   H     0.61158   0.68017   0.86451   0.00000  Uiso   1.00
H693   H     0.71273   0.53467   0.76324   0.00000  Uiso   1.00
H694   H     0.81208   0.96538   0.87583   0.00000  Uiso   1.00
H695   H     0.78728   0.53467   0.90342   0.00000  Uiso   1.00
H696   H     0.68792   0.96538   0.79084   0.00000  Uiso   1.00
H697   H     0.96950   0.68027   0.80176   0.00000  Uiso   1.00
H698   H     0.97156   0.81938   0.86504   0.00000  Uiso   1.00
H699   H     0.53051   0.68042   0.86523   0.00000  Uiso   1.00
H700   H     0.69400   0.65372   0.77069   0.00000  Uiso   1.00
H701   H     0.80575   0.84606   0.89607   0.00000  Uiso   1.00
H702   H     0.80601   0.65372   0.89598   0.00000  Uiso   1.00
H703   H     0.69425   0.84606   0.77059   0.00000  Uiso   1.00
H704   H     0.60952   0.81964   0.80183   0.00000  Uiso   1.00
N705   N     0.75000   0.62624   0.83333   0.00000  Uiso   1.00
N706   N     0.75000   0.87377   0.83333   0.00000  Uiso   1.00
O707   O     0.68453   0.78974   0.83334   0.00000  Uiso   1.00
O708   O     0.81683   0.87676   0.88573   0.00000  Uiso   1.00
O709   O     0.79610   0.62338   0.90875   0.00000  Uiso   1.00
O710   O     0.68317   0.87675   0.78093   0.00000  Uiso   1.00
O711   O     0.81547   0.71026   0.83333   0.00000  Uiso   1.00
O712   O     0.81547   0.78974   0.83333   0.00000  Uiso   1.00
O713   O     0.68453   0.71026   0.83334   0.00000  Uiso   1.00
O714   O     0.75000   0.78973   0.76178   0.00000  Uiso   1.00
O715   O     0.75000   0.71027   0.90489   0.00000  Uiso   1.00
O716   O     0.75000   0.78973   0.90489   0.00000  Uiso   1.00
O717   O     0.75000   0.71027   0.76178   0.00000  Uiso   1.00
O718   O     0.70390   0.62337   0.75792   0.00000  Uiso   1.00
Zn719  Zn    0.75000   0.80307   0.83333   0.00000  Uiso   1.00
Zn720  Zn    0.75000   0.69693   0.83333   0.00000  Uiso   1.00
loop_
_geom_bond_atom_site_label_1
_geom_bond_atom_site_label_2
_geom_bond_distance
_geom_bond_site_symmetry_2
_ccdc_geom_bond_type
C1     C18     1.439   .     S
C1     O53     1.293   .     A
C1     O47     1.294   .     A
C2     C6      1.404   .     A
C2     C25     1.408   .     A
C2     H36     1.082   .     S
C3     O57     1.282   .     A
C3     C7      1.368   .     S
C3     O54     1.282   .     A
C4     C8      1.368   .     S
C4     O56     1.282   .     A
C4     O55     1.282   .     A
C5     C28     1.404   .     A
C5     C26     1.404   .     A
C5     C126    1.518   1_545 S
C6     C27     1.404   .     A
C6     C125    1.518   .     S
C7     C488    1.166   1_554 S
C8     C247    1.166   .     S
C9     C14     1.381   .     A
C9     C20     1.399   .     A
C9     H29     1.083   .     S
C10    H37     1.083   .     S
C10    C21     1.399   .     A
C10    C15     1.381   .     A
C11    H38     1.083   .     S
C11    C16     1.381   .     A
C11    C21     1.399   .     A
C12    C19     1.439   .     S
C12    O52     1.294   .     A
C12    O51     1.293   .     A
C13    C17     1.381   .     A
C13    H39     1.083   .     S
C13    C20     1.399   .     A
C14    C18     1.399   .     A
C14    H44     1.083   .     S
C15    C19     1.399   .     A
C15    H30     1.083   .     S
C16    H31     1.083   .     S
C16    C19     1.399   .     A
C17    C18     1.399   .     A
C17    H32     1.083   .     S
C20    C81     1.445   1_455 S
C21    C80     1.445   .     S
C22    O58     1.373   .     S
C22    N45     1.381   .     A
C22    C26     1.408   .     A
C23    N46     1.381   .     A
C23    O48     1.373   .     S
C23    C27     1.408   .     A
C24    N45     1.381   .     A
C24    O49     1.373   .     S
C24    C28     1.408   .     A
C25    O50     1.373   .     S
C25    N46     1.381   .     A
C26    H33     1.082   .     S
C27    H34     1.082   .     S
C28    H35     1.082   .     S
H40    O58     0.983   .     S
H41    O48     0.982   .     S
H42    O49     0.983   .     S
H43    O50     0.982   .     S
N45    Zn60    2.023   .     S
N46    Zn59    2.023   .     S
O47    Zn59    2.002   .     S
O51    Zn60    2.002   .     S
O52    Zn59    2.002   .     S
O53    Zn60    2.002   .     S
O54    Zn59    1.951   .     S
O55    Zn60    1.951   .     S
O56    Zn59    1.951   .     S
O57    Zn60    1.951   .     S
C61    C78     1.439   .     S
C61    O113    1.293   .     A
C61    O107    1.294   .     A
C62    C66     1.404   .     A
C62    C85     1.408   .     A
C62    H96     1.082   .     S
C63    O117    1.282   .     A
C63    C67     1.368   .     S
C63    O114    1.282   .     A
C64    C68     1.368   .     S
C64    O116    1.282   .     A
C64    O115    1.282   .     A
C65    C88     1.404   .     A
C65    C86     1.404   .     A
C65    C186    1.518   1_545 S
C66    C87     1.404   .     A
C66    C185    1.518   .     S
C67    C548    1.166   1_554 S
C68    C307    1.166   .     S
C69    C74     1.381   .     A
C69    C80     1.399   .     A
C69    H89     1.083   .     S
C70    H97     1.083   .     S
C70    C81     1.399   .     A
C70    C75     1.381   .     A
C71    H98     1.083   .     S
C71    C76     1.381   .     A
C71    C81     1.399   .     A
C72    C79     1.439   .     S
C72    O112    1.294   .     A
C72    O111    1.293   .     A
C73    C77     1.381   .     A
C73    H99     1.083   .     S
C73    C80     1.399   .     A
C74    C78     1.399   .     A
C74    H104    1.083   .     S
C75    C79     1.399   .     A
C75    H90     1.083   .     S
C76    H91     1.083   .     S
C76    C79     1.399   .     A
C77    C78     1.399   .     A
C77    H92     1.083   .     S
C81    C20     1.445   1_655 S
C82    O118    1.373   .     S
C82    N105    1.381   .     A
C82    C86     1.408   .     A
C83    N106    1.381   .     A
C83    O108    1.373   .     S
C83    C87     1.408   .     A
C84    N105    1.381   .     A
C84    O109    1.373   .     S
C84    C88     1.408   .     A
C85    O110    1.373   .     S
C85    N106    1.381   .     A
C86    H93     1.082   .     S
C87    H94     1.082   .     S
C88    H95     1.082   .     S
H100   O118    0.983   .     S
H101   O108    0.982   .     S
H102   O109    0.983   .     S
H103   O110    0.982   .     S
N105   Zn120   2.023   .     S
N106   Zn119   2.023   .     S
O107   Zn119   2.002   .     S
O111   Zn120   2.002   .     S
O112   Zn119   2.002   .     S
O113   Zn120   2.002   .     S
O114   Zn119   1.951   .     S
O115   Zn120   1.951   .     S
O116   Zn119   1.951   .     S
O117   Zn120   1.951   .     S
C121   C138    1.439   .     S
C121   O173    1.293   .     A
C121   O167    1.294   .     A
C122   C126    1.404   .     A
C122   C145    1.408   .     A
C122   H156    1.082   .     S
C123   O177    1.282   .     A
C123   C127    1.368   .     S
C123   O174    1.282   .     A
C124   C128    1.368   .     S
C124   O176    1.282   .     A
C124   O175    1.282   .     A
C125   C148    1.404   .     A
C125   C146    1.404   .     A
C126   C147    1.404   .     A
C126   C5      1.518   1_565 S
C127   C608    1.166   1_554 S
C128   C367    1.166   .     S
C129   C134    1.381   .     A
C129   C140    1.399   .     A
C129   H149    1.083   .     S
C130   H157    1.083   .     S
C130   C141    1.399   .     A
C130   C135    1.381   .     A
C131   H158    1.083   .     S
C131   C136    1.381   .     A
C131   C141    1.399   .     A
C132   C139    1.439   .     S
C132   O172    1.294   .     A
C132   O171    1.293   .     A
C133   C137    1.381   .     A
C133   H159    1.083   .     S
C133   C140    1.399   .     A
C134   C138    1.399   .     A
C134   H164    1.083   .     S
C135   C139    1.399   .     A
C135   H150    1.083   .     S
C136   H151    1.083   .     S
C136   C139    1.399   .     A
C137   C138    1.399   .     A
C137   H152    1.083   .     S
C140   C201    1.445   1_455 S
C141   C200    1.445   .     S
C142   O178    1.373   .     S
C142   N165    1.381   .     A
C142   C146    1.408   .     A
C143   N166    1.381   .     A
C143   O168    1.373   .     S
C143   C147    1.408   .     A
C144   N165    1.381   .     A
C144   O169    1.373   .     S
C144   C148    1.408   .     A
C145   O170    1.373   .     S
C145   N166    1.381   .     A
C146   H153    1.082   .     S
C147   H154    1.082   .     S
C148   H155    1.082   .     S
H160   O178    0.983   .     S
H161   O168    0.982   .     S
H162   O169    0.983   .     S
H163   O170    0.982   .     S
N165   Zn180   2.023   .     S
N166   Zn179   2.023   .     S
O167   Zn179   2.002   .     S
O171   Zn180   2.002   .     S
O172   Zn179   2.002   .     S
O173   Zn180   2.002   .     S
O174   Zn179   1.951   .     S
O175   Zn180   1.951   .     S
O176   Zn179   1.951   .     S
O177   Zn180   1.951   .     S
C181   C198    1.439   .     S
C181   O233    1.293   .     A
C181   O227    1.294   .     A
C182   C186    1.404   .     A
C182   C205    1.408   .     A
C182   H216    1.082   .     S
C183   O237    1.282   .     A
C183   C187    1.368   .     S
C183   O234    1.282   .     A
C184   C188    1.368   .     S
C184   O236    1.282   .     A
C184   O235    1.282   .     A
C185   C208    1.404   .     A
C185   C206    1.404   .     A
C186   C207    1.404   .     A
C186   C65     1.518   1_565 S
C187   C668    1.166   1_554 S
C188   C427    1.166   .     S
C189   C194    1.381   .     A
C189   C200    1.399   .     A
C189   H209    1.083   .     S
C190   H217    1.083   .     S
C190   C201    1.399   .     A
C190   C195    1.381   .     A
C191   H218    1.083   .     S
C191   C196    1.381   .     A
C191   C201    1.399   .     A
C192   C199    1.439   .     S
C192   O232    1.294   .     A
C192   O231    1.293   .     A
C193   C197    1.381   .     A
C193   H219    1.083   .     S
C193   C200    1.399   .     A
C194   C198    1.399   .     A
C194   H224    1.083   .     S
C195   C199    1.399   .     A
C195   H210    1.083   .     S
C196   H211    1.083   .     S
C196   C199    1.399   .     A
C197   C198    1.399   .     A
C197   H212    1.083   .     S
C201   C140    1.445   1_655 S
C202   O238    1.373   .     S
C202   N225    1.381   .     A
C202   C206    1.408   .     A
C203   N226    1.381   .     A
C203   O228    1.373   .     S
C203   C207    1.408   .     A
C204   N225    1.381   .     A
C204   O229    1.373   .     S
C204   C208    1.408   .     A
C205   O230    1.373   .     S
C205   N226    1.381   .     A
C206   H213    1.082   .     S
C207   H214    1.082   .     S
C208   H215    1.082   .     S
H220   O238    0.983   .     S
H221   O228    0.982   .     S
H222   O229    0.983   .     S
H223   O230    0.982   .     S
N225   Zn240   2.023   .     S
N226   Zn239   2.023   .     S
O227   Zn239   2.002   .     S
O231   Zn240   2.002   .     S
O232   Zn239   2.002   .     S
O233   Zn240   2.002   .     S
O234   Zn239   1.951   .     S
O235   Zn240   1.951   .     S
O236   Zn239   1.951   .     S
O237   Zn240   1.951   .     S
C241   C258    1.439   .     S
C241   O293    1.293   .     A
C241   O287    1.294   .     A
C242   C246    1.404   .     A
C242   C265    1.408   .     A
C242   H276    1.082   .     S
C243   O297    1.282   .     A
C243   C247    1.368   .     S
C243   O294    1.282   .     A
C244   C248    1.368   .     S
C244   O296    1.282   .     A
C244   O295    1.282   .     A
C245   C268    1.404   .     A
C245   C266    1.404   .     A
C245   C366    1.518   1_545 S
C246   C267    1.404   .     A
C246   C365    1.518   .     S
C248   C487    1.166   .     S
C249   C254    1.381   .     A
C249   C260    1.399   .     A
C249   H269    1.083   .     S
C250   H277    1.083   .     S
C250   C261    1.399   .     A
C250   C255    1.381   .     A
C251   H278    1.083   .     S
C251   C256    1.381   .     A
C251   C261    1.399   .     A
C252   C259    1.439   .     S
C252   O292    1.294   .     A
C252   O291    1.293   .     A
C253   C257    1.381   .     A
C253   H279    1.083   .     S
C253   C260    1.399   .     A
C254   C258    1.399   .     A
C254   H284    1.083   .     S
C255   C259    1.399   .     A
C255   H270    1.083   .     S
C256   H271    1.083   .     S
C256   C259    1.399   .     A
C257   C258    1.399   .     A
C257   H272    1.083   .     S
C260   C321    1.445   1_455 S
C261   C320    1.445   .     S
C262   O298    1.373   .     S
C262   N285    1.381   .     A
C262   C266    1.408   .     A
C263   N286    1.381   .     A
C263   O288    1.373   .     S
C263   C267    1.408   .     A
C264   N285    1.381   .     A
C264   O289    1.373   .     S
C264   C268    1.408   .     A
C265   O290    1.373   .     S
C265   N286    1.381   .     A
C266   H273    1.082   .     S
C267   H274    1.082   .     S
C268   H275    1.082   .     S
H280   O298    0.983   .     S
H281   O288    0.982   .     S
H282   O289    0.983   .     S
H283   O290    0.982   .     S
N285   Zn300   2.023   .     S
N286   Zn299   2.023   .     S
O287   Zn299   2.002   .     S
O291   Zn300   2.002   .     S
O292   Zn299   2.002   .     S
O293   Zn300   2.002   .     S
O294   Zn299   1.951   .     S
O295   Zn300   1.951   .     S
O296   Zn299   1.951   .     S
O297   Zn300   1.951   .     S
C301   C318    1.439   .     S
C301   O353    1.293   .     A
C301   O347    1.294   .     A
C302   C306    1.404   .     A
C302   C325    1.408   .     A
C302   H336    1.082   .     S
C303   O357    1.282   .     A
C303   C307    1.368   .     S
C303   O354    1.282   .     A
C304   C308    1.368   .     S
C304   O356    1.282   .     A
C304   O355    1.282   .     A
C305   C328    1.404   .     A
C305   C326    1.404   .     A
C305   C426    1.518   1_545 S
C306   C327    1.404   .     A
C306   C425    1.518   .     S
C308   C547    1.166   .     S
C309   C314    1.381   .     A
C309   C320    1.399   .     A
C309   H329    1.083   .     S
C310   H337    1.083   .     S
C310   C321    1.399   .     A
C310   C315    1.381   .     A
C311   H338    1.083   .     S
C311   C316    1.381   .     A
C311   C321    1.399   .     A
C312   C319    1.439   .     S
C312   O352    1.294   .     A
C312   O351    1.293   .     A
C313   C317    1.381   .     A
C313   H339    1.083   .     S
C313   C320    1.399   .     A
C314   C318    1.399   .     A
C314   H344    1.083   .     S
C315   C319    1.399   .     A
C315   H330    1.083   .     S
C316   H331    1.083   .     S
C316   C319    1.399   .     A
C317   C318    1.399   .     A
C317   H332    1.083   .     S
C321   C260    1.445   1_655 S
C322   O358    1.373   .     S
C322   N345    1.381   .     A
C322   C326    1.408   .     A
C323   N346    1.381   .     A
C323   O348    1.373   .     S
C323   C327    1.408   .     A
C324   N345    1.381   .     A
C324   O349    1.373   .     S
C324   C328    1.408   .     A
C325   O350    1.373   .     S
C325   N346    1.381   .     A
C326   H333    1.082   .     S
C327   H334    1.082   .     S
C328   H335    1.082   .     S
H340   O358    0.983   .     S
H341   O348    0.982   .     S
H342   O349    0.983   .     S
H343   O350    0.982   .     S
N345   Zn360   2.023   .     S
N346   Zn359   2.023   .     S
O347   Zn359   2.002   .     S
O351   Zn360   2.002   .     S
O352   Zn359   2.002   .     S
O353   Zn360   2.002   .     S
O354   Zn359   1.951   .     S
O355   Zn360   1.951   .     S
O356   Zn359   1.951   .     S
O357   Zn360   1.951   .     S
C361   C378    1.439   .     S
C361   O413    1.293   .     A
C361   O407    1.294   .     A
C362   C366    1.404   .     A
C362   C385    1.408   .     A
C362   H396    1.082   .     S
C363   O417    1.282   .     A
C363   C367    1.368   .     S
C363   O414    1.282   .     A
C364   C368    1.368   .     S
C364   O416    1.282   .     A
C364   O415    1.282   .     A
C365   C388    1.404   .     A
C365   C386    1.404   .     A
C366   C387    1.404   .     A
C366   C245    1.518   1_565 S
C368   C607    1.166   .     S
C369   C374    1.381   .     A
C369   C380    1.399   .     A
C369   H389    1.083   .     S
C370   H397    1.083   .     S
C370   C381    1.399   .     A
C370   C375    1.381   .     A
C371   H398    1.083   .     S
C371   C376    1.381   .     A
C371   C381    1.399   .     A
C372   C379    1.439   .     S
C372   O412    1.294   .     A
C372   O411    1.293   .     A
C373   C377    1.381   .     A
C373   H399    1.083   .     S
C373   C380    1.399   .     A
C374   C378    1.399   .     A
C374   H404    1.083   .     S
C375   C379    1.399   .     A
C375   H390    1.083   .     S
C376   H391    1.083   .     S
C376   C379    1.399   .     A
C377   C378    1.399   .     A
C377   H392    1.083   .     S
C380   C441    1.445   1_455 S
C381   C440    1.445   .     S
C382   O418    1.373   .     S
C382   N405    1.381   .     A
C382   C386    1.408   .     A
C383   N406    1.381   .     A
C383   O408    1.373   .     S
C383   C387    1.408   .     A
C384   N405    1.381   .     A
C384   O409    1.373   .     S
C384   C388    1.408   .     A
C385   O410    1.373   .     S
C385   N406    1.381   .     A
C386   H393    1.082   .     S
C387   H394    1.082   .     S
C388   H395    1.082   .     S
H400   O418    0.983   .     S
H401   O408    0.982   .     S
H402   O409    0.983   .     S
H403   O410    0.982   .     S
N405   Zn420   2.023   .     S
N406   Zn419   2.023   .     S
O407   Zn419   2.002   .     S
O411   Zn420   2.002   .     S
O412   Zn419   2.002   .     S
O413   Zn420   2.002   .     S
O414   Zn419   1.951   .     S
O415   Zn420   1.951   .     S
O416   Zn419   1.951   .     S
O417   Zn420   1.951   .     S
C421   C438    1.439   .     S
C421   O473    1.293   .     A
C421   O467    1.294   .     A
C422   C426    1.404   .     A
C422   C445    1.408   .     A
C422   H456    1.082   .     S
C423   O477    1.282   .     A
C423   C427    1.368   .     S
C423   O474    1.282   .     A
C424   C428    1.368   .     S
C424   O476    1.282   .     A
C424   O475    1.282   .     A
C425   C448    1.404   .     A
C425   C446    1.404   .     A
C426   C447    1.404   .     A
C426   C305    1.518   1_565 S
C428   C667    1.166   .     S
C429   C434    1.381   .     A
C429   C440    1.399   .     A
C429   H449    1.083   .     S
C430   H457    1.083   .     S
C430   C441    1.399   .     A
C430   C435    1.381   .     A
C431   H458    1.083   .     S
C431   C436    1.381   .     A
C431   C441    1.399   .     A
C432   C439    1.439   .     S
C432   O472    1.294   .     A
C432   O471    1.293   .     A
C433   C437    1.381   .     A
C433   H459    1.083   .     S
C433   C440    1.399   .     A
C434   C438    1.399   .     A
C434   H464    1.083   .     S
C435   C439    1.399   .     A
C435   H450    1.083   .     S
C436   H451    1.083   .     S
C436   C439    1.399   .     A
C437   C438    1.399   .     A
C437   H452    1.083   .     S
C441   C380    1.445   1_655 S
C442   O478    1.373   .     S
C442   N465    1.381   .     A
C442   C446    1.408   .     A
C443   N466    1.381   .     A
C443   O468    1.373   .     S
C443   C447    1.408   .     A
C444   N465    1.381   .     A
C444   O469    1.373   .     S
C444   C448    1.408   .     A
C445   O470    1.373   .     S
C445   N466    1.381   .     A
C446   H453    1.082   .     S
C447   H454    1.082   .     S
C448   H455    1.082   .     S
H460   O478    0.983   .     S
H461   O468    0.982   .     S
H462   O469    0.983   .     S
H463   O470    0.982   .     S
N465   Zn480   2.023   .     S
N466   Zn479   2.023   .     S
O467   Zn479   2.002   .     S
O471   Zn480   2.002   .     S
O472   Zn479   2.002   .     S
O473   Zn480   2.002   .     S
O474   Zn479   1.951   .     S
O475   Zn480   1.951   .     S
O476   Zn479   1.951   .     S
O477   Zn480   1.951   .     S
C481   C498    1.439   .     S
C481   O533    1.293   .     A
C481   O527    1.294   .     A
C482   C486    1.404   .     A
C482   C505    1.408   .     A
C482   H516    1.082   .     S
C483   O537    1.282   .     A
C483   C487    1.368   .     S
C483   O534    1.282   .     A
C484   C488    1.368   .     S
C484   O536    1.282   .     A
C484   O535    1.282   .     A
C485   C508    1.404   .     A
C485   C506    1.404   .     A
C485   C606    1.518   1_545 S
C486   C507    1.404   .     A
C486   C605    1.518   .     S
C488   C7      1.166   1_556 S
C489   C494    1.381   .     A
C489   C500    1.399   .     A
C489   H509    1.083   .     S
C490   H517    1.083   .     S
C490   C501    1.399   .     A
C490   C495    1.381   .     A
C491   H518    1.083   .     S
C491   C496    1.381   .     A
C491   C501    1.399   .     A
C492   C499    1.439   .     S
C492   O532    1.294   .     A
C492   O531    1.293   .     A
C493   C497    1.381   .     A
C493   H519    1.083   .     S
C493   C500    1.399   .     A
C494   C498    1.399   .     A
C494   H524    1.083   .     S
C495   C499    1.399   .     A
C495   H510    1.083   .     S
C496   H511    1.083   .     S
C496   C499    1.399   .     A
C497   C498    1.399   .     A
C497   H512    1.083   .     S
C500   C561    1.445   1_455 S
C501   C560    1.445   .     S
C502   O538    1.373   .     S
C502   N525    1.381   .     A
C502   C506    1.408   .     A
C503   N526    1.381   .     A
C503   O528    1.373   .     S
C503   C507    1.408   .     A
C504   N525    1.381   .     A
C504   O529    1.373   .     S
C504   C508    1.408   .     A
C505   O530    1.373   .     S
C505   N526    1.381   .     A
C506   H513    1.082   .     S
C507   H514    1.082   .     S
C508   H515    1.082   .     S
H520   O538    0.983   .     S
H521   O528    0.982   .     S
H522   O529    0.983   .     S
H523   O530    0.982   .     S
N525   Zn540   2.023   .     S
N526   Zn539   2.023   .     S
O527   Zn539   2.002   .     S
O531   Zn540   2.002   .     S
O532   Zn539   2.002   .     S
O533   Zn540   2.002   .     S
O534   Zn539   1.951   .     S
O535   Zn540   1.951   .     S
O536   Zn539   1.951   .     S
O537   Zn540   1.951   .     S
C541   C558    1.439   .     S
C541   O593    1.293   .     A
C541   O587    1.294   .     A
C542   C546    1.404   .     A
C542   C565    1.408   .     A
C542   H576    1.082   .     S
C543   O597    1.282   .     A
C543   C547    1.368   .     S
C543   O594    1.282   .     A
C544   C548    1.368   .     S
C544   O596    1.282   .     A
C544   O595    1.282   .     A
C545   C568    1.404   .     A
C545   C566    1.404   .     A
C545   C666    1.518   1_545 S
C546   C567    1.404   .     A
C546   C665    1.518   .     S
C548   C67     1.166   1_556 S
C549   C554    1.381   .     A
C549   C560    1.399   .     A
C549   H569    1.083   .     S
C550   H577    1.083   .     S
C550   C561    1.399   .     A
C550   C555    1.381   .     A
C551   H578    1.083   .     S
C551   C556    1.381   .     A
C551   C561    1.399   .     A
C552   C559    1.439   .     S
C552   O592    1.294   .     A
C552   O591    1.293   .     A
C553   C557    1.381   .     A
C553   H579    1.083   .     S
C553   C560    1.399   .     A
C554   C558    1.399   .     A
C554   H584    1.083   .     S
C555   C559    1.399   .     A
C555   H570    1.083   .     S
C556   H571    1.083   .     S
C556   C559    1.399   .     A
C557   C558    1.399   .     A
C557   H572    1.083   .     S
C561   C500    1.445   1_655 S
C562   O598    1.373   .     S
C562   N585    1.381   .     A
C562   C566    1.408   .     A
C563   N586    1.381   .     A
C563   O588    1.373   .     S
C563   C567    1.408   .     A
C564   N585    1.381   .     A
C564   O589    1.373   .     S
C564   C568    1.408   .     A
C565   O590    1.373   .     S
C565   N586    1.381   .     A
C566   H573    1.082   .     S
C567   H574    1.082   .     S
C568   H575    1.082   .     S
H580   O598    0.983   .     S
H581   O588    0.982   .     S
H582   O589    0.983   .     S
H583   O590    0.982   .     S
N585   Zn600   2.023   .     S
N586   Zn599   2.023   .     S
O587   Zn599   2.002   .     S
O591   Zn600   2.002   .     S
O592   Zn599   2.002   .     S
O593   Zn600   2.002   .     S
O594   Zn599   1.951   .     S
O595   Zn600   1.951   .     S
O596   Zn599   1.951   .     S
O597   Zn600   1.951   .     S
C601   C618    1.439   .     S
C601   O653    1.293   .     A
C601   O647    1.294   .     A
C602   C606    1.404   .     A
C602   C625    1.408   .     A
C602   H636    1.082   .     S
C603   O657    1.282   .     A
C603   C607    1.368   .     S
C603   O654    1.282   .     A
C604   C608    1.368   .     S
C604   O656    1.282   .     A
C604   O655    1.282   .     A
C605   C628    1.404   .     A
C605   C626    1.404   .     A
C606   C627    1.404   .     A
C606   C485    1.518   1_565 S
C608   C127    1.166   1_556 S
C609   C614    1.381   .     A
C609   C620    1.399   .     A
C609   H629    1.083   .     S
C610   H637    1.083   .     S
C610   C621    1.399   .     A
C610   C615    1.381   .     A
C611   H638    1.083   .     S
C611   C616    1.381   .     A
C611   C621    1.399   .     A
C612   C619    1.439   .     S
C612   O652    1.294   .     A
C612   O651    1.293   .     A
C613   C617    1.381   .     A
C613   H639    1.083   .     S
C613   C620    1.399   .     A
C614   C618    1.399   .     A
C614   H644    1.083   .     S
C615   C619    1.399   .     A
C615   H630    1.083   .     S
C616   H631    1.083   .     S
C616   C619    1.399   .     A
C617   C618    1.399   .     A
C617   H632    1.083   .     S
C620   C681    1.445   1_455 S
C621   C680    1.445   .     S
C622   O658    1.373   .     S
C622   N645    1.381   .     A
C622   C626    1.408   .     A
C623   N646    1.381   .     A
C623   O648    1.373   .     S
C623   C627    1.408   .     A
C624   N645    1.381   .     A
C624   O649    1.373   .     S
C624   C628    1.408   .     A
C625   O650    1.373   .     S
C625   N646    1.381   .     A
C626   H633    1.082   .     S
C627   H634    1.082   .     S
C628   H635    1.082   .     S
H640   O658    0.983   .     S
H641   O648    0.982   .     S
H642   O649    0.983   .     S
H643   O650    0.982   .     S
N645   Zn660   2.023   .     S
N646   Zn659   2.023   .     S
O647   Zn659   2.002   .     S
O651   Zn660   2.002   .     S
O652   Zn659   2.002   .     S
O653   Zn660   2.002   .     S
O654   Zn659   1.951   .     S
O655   Zn660   1.951   .     S
O656   Zn659   1.951   .     S
O657   Zn660   1.951   .     S
C661   C678    1.439   .     S
C661   O713    1.293   .     A
C661   O707    1.294   .     A
C662   C666    1.404   .     A
C662   C685    1.408   .     A
C662   H696    1.082   .     S
C663   O717    1.282   .     A
C663   C667    1.368   .     S
C663   O714    1.282   .     A
C664   C668    1.368   .     S
C664   O716    1.282   .     A
C664   O715    1.282   .     A
C665   C688    1.404   .     A
C665   C686    1.404   .     A
C666   C687    1.404   .     A
C666   C545    1.518   1_565 S
C668   C187    1.166   1_556 S
C669   C674    1.381   .     A
C669   C680    1.399   .     A
C669   H689    1.083   .     S
C670   H697    1.083   .     S
C670   C681    1.399   .     A
C670   C675    1.381   .     A
C671   H698    1.083   .     S
C671   C676    1.381   .     A
C671   C681    1.399   .     A
C672   C679    1.439   .     S
C672   O712    1.294   .     A
C672   O711    1.293   .     A
C673   C677    1.381   .     A
C673   H699    1.083   .     S
C673   C680    1.399   .     A
C674   C678    1.399   .     A
C674   H704    1.083   .     S
C675   C679    1.399   .     A
C675   H690    1.083   .     S
C676   H691    1.083   .     S
C676   C679    1.399   .     A
C677   C678    1.399   .     A
C677   H692    1.083   .     S
C681   C620    1.445   1_655 S
C682   O718    1.373   .     S
C682   N705    1.381   .     A
C682   C686    1.408   .     A
C683   N706    1.381   .     A
C683   O708    1.373   .     S
C683   C687    1.408   .     A
C684   N705    1.381   .     A
C684   O709    1.373   .     S
C684   C688    1.408   .     A
C685   O710    1.373   .     S
C685   N706    1.381   .     A
C686   H693    1.082   .     S
C687   H694    1.082   .     S
C688   H695    1.082   .     S
H700   O718    0.983   .     S
H701   O708    0.982   .     S
H702   O709    0.983   .     S
H703   O710    0.982   .     S
N705   Zn720   2.023   .     S
N706   Zn719   2.023   .     S
O707   Zn719   2.002   .     S
O711   Zn720   2.002   .     S
O712   Zn719   2.002   .     S
O713   Zn720   2.002   .     S
O714   Zn719   1.951   .     S
O715   Zn720   1.951   .     S
O716   Zn719   1.951   .     S
O717   Zn720   1.951   .     S
