data_str_m3_o1_o17_pcu_sym.38
_audit_creation_date              2020-01-03
_audit_creation_method            'Materials Studio'
_symmetry_space_group_name_H-M    'P1'
_symmetry_Int_Tables_number       1
_symmetry_cell_setting            triclinic
loop_
_symmetry_equiv_pos_as_xyz
  x,y,z
_cell_length_a                    32.1462
_cell_length_b                    29.6915
_cell_length_c                    29.9028
_cell_angle_alpha                 90.1339
_cell_angle_beta                  91.3070
_cell_angle_gamma                 90.4038
loop_
_atom_site_label
_atom_site_type_symbol
_atom_site_fract_x
_atom_site_fract_y
_atom_site_fract_z
_atom_site_U_iso_or_equiv
_atom_site_adp_type
_atom_site_occupancy
Br1    Br    0.07915   0.15110   0.37020   0.00000  Uiso   1.00
Br2    Br    0.10544   0.27748   0.17898   0.00000  Uiso   1.00
Br3    Br    0.10646   0.05458   0.17799   0.00000  Uiso   1.00
Br4    Br    0.22688   0.27875   0.32201   0.00000  Uiso   1.00
Br5    Br    0.25419   0.18223   0.12980   0.00000  Uiso   1.00
Br6    Br    0.04010   0.20397   0.45112   0.00000  Uiso   1.00
Br7    Br    0.29323   0.12936   0.04888   0.00000  Uiso   1.00
Br8    Br    0.04294   0.06790   0.27454   0.00000  Uiso   1.00
Br9    Br    0.29040   0.26543   0.22546   0.00000  Uiso   1.00
Br10   Br    0.28822   0.07062   0.21688   0.00000  Uiso   1.00
Br11   Br    0.04511   0.26272   0.28312   0.00000  Uiso   1.00
Br12   Br    0.22789   0.05585   0.32102   0.00000  Uiso   1.00
C13    C     0.08681   0.16651   0.25436   0.00000  Uiso   1.00
C14    C     0.04224   0.16622   0.25871   0.00000  Uiso   1.00
C15    C     0.19171   0.02419   0.27941   0.00000  Uiso   1.00
C16    C     0.14163   0.30914   0.22058   0.00000  Uiso   1.00
C17    C     0.14173   0.02367   0.22048   0.00000  Uiso   1.00
C18    C     0.19160   0.30967   0.27951   0.00000  Uiso   1.00
C19    C     0.16702   0.16661   0.16371   0.00000  Uiso   1.00
C20    C     0.16632   0.16673   0.33629   0.00000  Uiso   1.00
C21    C     0.20489   0.16629   0.40752   0.00000  Uiso   1.00
C22    C     0.12844   0.16704   0.09248   0.00000  Uiso   1.00
C23    C     0.16665   0.16706   0.38392   0.00000  Uiso   1.00
C24    C     0.24652   0.16682   0.24564   0.00000  Uiso   1.00
C25    C     0.16668   0.16627   0.11608   0.00000  Uiso   1.00
C26    C     0.12840   0.16714   0.40546   0.00000  Uiso   1.00
C27    C     0.20493   0.16619   0.09454   0.00000  Uiso   1.00
C28    C     0.12797   0.17166   0.45221   0.00000  Uiso   1.00
C29    C     0.20536   0.16166   0.04779   0.00000  Uiso   1.00
C30    C     0.16638   0.16720   0.47650   0.00000  Uiso   1.00
C31    C     0.16695   0.16613   0.02350   0.00000  Uiso   1.00
C32    C     0.20437   0.16375   0.45391   0.00000  Uiso   1.00
C33    C     0.12896   0.16958   0.04609   0.00000  Uiso   1.00
C34    C     0.09109   0.17980   0.47597   0.00000  Uiso   1.00
C35    C     0.09183   0.17688   0.02214   0.00000  Uiso   1.00
C36    C     0.24224   0.15352   0.02403   0.00000  Uiso   1.00
C37    C     0.24150   0.15644   0.47786   0.00000  Uiso   1.00
C38    C     0.02029   0.12510   0.25475   0.00000  Uiso   1.00
C39    C     0.31304   0.20824   0.24524   0.00000  Uiso   1.00
C40    C     0.31230   0.12577   0.24144   0.00000  Uiso   1.00
C41    C     0.02103   0.20756   0.25856   0.00000  Uiso   1.00
C42    C     0.29110   0.16711   0.24129   0.00000  Uiso   1.00
H43    H     0.06306   0.18250   0.03943   0.00000  Uiso   1.00
H44    H     0.27027   0.15082   0.46057   0.00000  Uiso   1.00
H45    H     0.23975   0.17090   0.35409   0.00000  Uiso   1.00
H46    H     0.09358   0.16247   0.14592   0.00000  Uiso   1.00
N47    N     0.16667   0.28573   0.25000   0.00000  Uiso   1.00
N48    N     0.16667   0.04760   0.25000   0.00000  Uiso   1.00
O49    O     0.10559   0.20487   0.24999   0.00000  Uiso   1.00
O50    O     0.09027   0.16727   0.11336   0.00000  Uiso   1.00
O51    O     0.22774   0.12846   0.25000   0.00000  Uiso   1.00
O52    O     0.22774   0.20487   0.25000   0.00000  Uiso   1.00
O53    O     0.10559   0.12846   0.24999   0.00000  Uiso   1.00
O54    O     0.16666   0.20489   0.18392   0.00000  Uiso   1.00
O55    O     0.16667   0.12844   0.31607   0.00000  Uiso   1.00
O56    O     0.16667   0.20489   0.31607   0.00000  Uiso   1.00
O57    O     0.16666   0.12844   0.18392   0.00000  Uiso   1.00
O58    O     0.24306   0.16605   0.38664   0.00000  Uiso   1.00
Zn59   Zn    0.16667   0.21771   0.25000   0.00000  Uiso   1.00
Zn60   Zn    0.16667   0.11563   0.25000   0.00000  Uiso   1.00
Br61   Br    0.41248   0.15110   0.37020   0.00000  Uiso   1.00
Br62   Br    0.43877   0.27748   0.17898   0.00000  Uiso   1.00
Br63   Br    0.43979   0.05458   0.17799   0.00000  Uiso   1.00
Br64   Br    0.56021   0.27875   0.32201   0.00000  Uiso   1.00
Br65   Br    0.58752   0.18223   0.12980   0.00000  Uiso   1.00
Br66   Br    0.37344   0.20397   0.45112   0.00000  Uiso   1.00
Br67   Br    0.62656   0.12936   0.04888   0.00000  Uiso   1.00
Br68   Br    0.37627   0.06790   0.27454   0.00000  Uiso   1.00
Br69   Br    0.62373   0.26543   0.22546   0.00000  Uiso   1.00
Br70   Br    0.62155   0.07062   0.21688   0.00000  Uiso   1.00
Br71   Br    0.37845   0.26272   0.28312   0.00000  Uiso   1.00
Br72   Br    0.56123   0.05585   0.32102   0.00000  Uiso   1.00
C73    C     0.42014   0.16651   0.25436   0.00000  Uiso   1.00
C74    C     0.37557   0.16622   0.25871   0.00000  Uiso   1.00
C75    C     0.52504   0.02419   0.27941   0.00000  Uiso   1.00
C76    C     0.47496   0.30914   0.22058   0.00000  Uiso   1.00
C77    C     0.47507   0.02367   0.22048   0.00000  Uiso   1.00
C78    C     0.52493   0.30967   0.27951   0.00000  Uiso   1.00
C79    C     0.50035   0.16661   0.16371   0.00000  Uiso   1.00
C80    C     0.49965   0.16673   0.33629   0.00000  Uiso   1.00
C81    C     0.53822   0.16629   0.40752   0.00000  Uiso   1.00
C82    C     0.46178   0.16704   0.09248   0.00000  Uiso   1.00
C83    C     0.49998   0.16706   0.38392   0.00000  Uiso   1.00
C84    C     0.57986   0.16682   0.24564   0.00000  Uiso   1.00
C85    C     0.50002   0.16627   0.11608   0.00000  Uiso   1.00
C86    C     0.46173   0.16714   0.40546   0.00000  Uiso   1.00
C87    C     0.53827   0.16619   0.09454   0.00000  Uiso   1.00
C88    C     0.46131   0.17166   0.45221   0.00000  Uiso   1.00
C89    C     0.53869   0.16166   0.04779   0.00000  Uiso   1.00
C90    C     0.49971   0.16720   0.47650   0.00000  Uiso   1.00
C91    C     0.50029   0.16613   0.02350   0.00000  Uiso   1.00
C92    C     0.53770   0.16375   0.45391   0.00000  Uiso   1.00
C93    C     0.46229   0.16958   0.04609   0.00000  Uiso   1.00
C94    C     0.42443   0.17980   0.47597   0.00000  Uiso   1.00
C95    C     0.42516   0.17688   0.02214   0.00000  Uiso   1.00
C96    C     0.57557   0.15352   0.02403   0.00000  Uiso   1.00
C97    C     0.57484   0.15644   0.47786   0.00000  Uiso   1.00
C98    C     0.35363   0.12510   0.25475   0.00000  Uiso   1.00
C99    C     0.64637   0.20824   0.24524   0.00000  Uiso   1.00
C100   C     0.64564   0.12577   0.24144   0.00000  Uiso   1.00
C101   C     0.35436   0.20756   0.25856   0.00000  Uiso   1.00
C102   C     0.62443   0.16711   0.24129   0.00000  Uiso   1.00
H103   H     0.39639   0.18250   0.03943   0.00000  Uiso   1.00
H104   H     0.60361   0.15082   0.46057   0.00000  Uiso   1.00
H105   H     0.57308   0.17090   0.35409   0.00000  Uiso   1.00
H106   H     0.42692   0.16247   0.14592   0.00000  Uiso   1.00
N107   N     0.50000   0.28573   0.25000   0.00000  Uiso   1.00
N108   N     0.50000   0.04760   0.25000   0.00000  Uiso   1.00
O109   O     0.43892   0.20487   0.24999   0.00000  Uiso   1.00
O110   O     0.42361   0.16727   0.11336   0.00000  Uiso   1.00
O111   O     0.56108   0.12846   0.25000   0.00000  Uiso   1.00
O112   O     0.56108   0.20487   0.25000   0.00000  Uiso   1.00
O113   O     0.43892   0.12846   0.24999   0.00000  Uiso   1.00
O114   O     0.49999   0.20489   0.18392   0.00000  Uiso   1.00
O115   O     0.50001   0.12844   0.31607   0.00000  Uiso   1.00
O116   O     0.50001   0.20489   0.31607   0.00000  Uiso   1.00
O117   O     0.49999   0.12844   0.18392   0.00000  Uiso   1.00
O118   O     0.57639   0.16605   0.38664   0.00000  Uiso   1.00
Zn119  Zn    0.50000   0.21771   0.25000   0.00000  Uiso   1.00
Zn120  Zn    0.50000   0.11563   0.25000   0.00000  Uiso   1.00
Br121  Br    0.74581   0.15110   0.37020   0.00000  Uiso   1.00
Br122  Br    0.77211   0.27748   0.17898   0.00000  Uiso   1.00
Br123  Br    0.77312   0.05458   0.17799   0.00000  Uiso   1.00
Br124  Br    0.89354   0.27875   0.32201   0.00000  Uiso   1.00
Br125  Br    0.92085   0.18223   0.12980   0.00000  Uiso   1.00
Br126  Br    0.70677   0.20397   0.45112   0.00000  Uiso   1.00
Br127  Br    0.95989   0.12936   0.04888   0.00000  Uiso   1.00
Br128  Br    0.70960   0.06790   0.27454   0.00000  Uiso   1.00
Br129  Br    0.95706   0.26543   0.22546   0.00000  Uiso   1.00
Br130  Br    0.95489   0.07062   0.21688   0.00000  Uiso   1.00
Br131  Br    0.71178   0.26272   0.28312   0.00000  Uiso   1.00
Br132  Br    0.89456   0.05585   0.32102   0.00000  Uiso   1.00
C133   C     0.75348   0.16651   0.25436   0.00000  Uiso   1.00
C134   C     0.70890   0.16622   0.25871   0.00000  Uiso   1.00
C135   C     0.85837   0.02419   0.27941   0.00000  Uiso   1.00
C136   C     0.80829   0.30914   0.22058   0.00000  Uiso   1.00
C137   C     0.80840   0.02367   0.22048   0.00000  Uiso   1.00
C138   C     0.85827   0.30967   0.27951   0.00000  Uiso   1.00
C139   C     0.83368   0.16661   0.16371   0.00000  Uiso   1.00
C140   C     0.83298   0.16673   0.33629   0.00000  Uiso   1.00
C141   C     0.87156   0.16629   0.40752   0.00000  Uiso   1.00
C142   C     0.79511   0.16704   0.09248   0.00000  Uiso   1.00
C143   C     0.83332   0.16706   0.38392   0.00000  Uiso   1.00
C144   C     0.91319   0.16682   0.24564   0.00000  Uiso   1.00
C145   C     0.83335   0.16627   0.11608   0.00000  Uiso   1.00
C146   C     0.79507   0.16714   0.40546   0.00000  Uiso   1.00
C147   C     0.87160   0.16619   0.09454   0.00000  Uiso   1.00
C148   C     0.79464   0.17166   0.45221   0.00000  Uiso   1.00
C149   C     0.87202   0.16166   0.04779   0.00000  Uiso   1.00
C150   C     0.83304   0.16720   0.47650   0.00000  Uiso   1.00
C151   C     0.83362   0.16613   0.02350   0.00000  Uiso   1.00
C152   C     0.87104   0.16375   0.45391   0.00000  Uiso   1.00
C153   C     0.79563   0.16958   0.04609   0.00000  Uiso   1.00
C154   C     0.75776   0.17980   0.47597   0.00000  Uiso   1.00
C155   C     0.75850   0.17688   0.02214   0.00000  Uiso   1.00
C156   C     0.90890   0.15352   0.02403   0.00000  Uiso   1.00
C157   C     0.90817   0.15644   0.47786   0.00000  Uiso   1.00
C158   C     0.68696   0.12510   0.25475   0.00000  Uiso   1.00
C159   C     0.97971   0.20824   0.24524   0.00000  Uiso   1.00
C160   C     0.97897   0.12577   0.24144   0.00000  Uiso   1.00
C161   C     0.68770   0.20756   0.25856   0.00000  Uiso   1.00
C162   C     0.95776   0.16711   0.24129   0.00000  Uiso   1.00
H163   H     0.72972   0.18250   0.03943   0.00000  Uiso   1.00
H164   H     0.93694   0.15082   0.46057   0.00000  Uiso   1.00
H165   H     0.90642   0.17090   0.35409   0.00000  Uiso   1.00
H166   H     0.76025   0.16247   0.14592   0.00000  Uiso   1.00
N167   N     0.83333   0.28573   0.25000   0.00000  Uiso   1.00
N168   N     0.83333   0.04760   0.25000   0.00000  Uiso   1.00
O169   O     0.77226   0.20487   0.24999   0.00000  Uiso   1.00
O170   O     0.75694   0.16727   0.11336   0.00000  Uiso   1.00
O171   O     0.89441   0.12846   0.25000   0.00000  Uiso   1.00
O172   O     0.89441   0.20487   0.25000   0.00000  Uiso   1.00
O173   O     0.77226   0.12846   0.24999   0.00000  Uiso   1.00
O174   O     0.83333   0.20489   0.18392   0.00000  Uiso   1.00
O175   O     0.83334   0.12844   0.31607   0.00000  Uiso   1.00
O176   O     0.83334   0.20489   0.31607   0.00000  Uiso   1.00
O177   O     0.83333   0.12844   0.18392   0.00000  Uiso   1.00
O178   O     0.90973   0.16605   0.38664   0.00000  Uiso   1.00
Zn179  Zn    0.83333   0.21771   0.25000   0.00000  Uiso   1.00
Zn180  Zn    0.83333   0.11563   0.25000   0.00000  Uiso   1.00
Br181  Br    0.07915   0.48443   0.37020   0.00000  Uiso   1.00
Br182  Br    0.10544   0.61081   0.17898   0.00000  Uiso   1.00
Br183  Br    0.10646   0.38792   0.17799   0.00000  Uiso   1.00
Br184  Br    0.22688   0.61208   0.32201   0.00000  Uiso   1.00
Br185  Br    0.25419   0.51557   0.12980   0.00000  Uiso   1.00
Br186  Br    0.04010   0.53730   0.45112   0.00000  Uiso   1.00
Br187  Br    0.29323   0.46269   0.04888   0.00000  Uiso   1.00
Br188  Br    0.04294   0.40123   0.27454   0.00000  Uiso   1.00
Br189  Br    0.29040   0.59877   0.22546   0.00000  Uiso   1.00
Br190  Br    0.28822   0.40395   0.21688   0.00000  Uiso   1.00
Br191  Br    0.04511   0.59605   0.28312   0.00000  Uiso   1.00
Br192  Br    0.22789   0.38919   0.32102   0.00000  Uiso   1.00
C193   C     0.08681   0.49985   0.25436   0.00000  Uiso   1.00
C194   C     0.04224   0.49955   0.25871   0.00000  Uiso   1.00
C195   C     0.19171   0.35752   0.27941   0.00000  Uiso   1.00
C196   C     0.14163   0.64248   0.22058   0.00000  Uiso   1.00
C197   C     0.14173   0.35700   0.22048   0.00000  Uiso   1.00
C198   C     0.19160   0.64300   0.27951   0.00000  Uiso   1.00
C199   C     0.16702   0.49994   0.16371   0.00000  Uiso   1.00
C200   C     0.16632   0.50006   0.33629   0.00000  Uiso   1.00
C201   C     0.20489   0.49962   0.40752   0.00000  Uiso   1.00
C202   C     0.12844   0.50037   0.09248   0.00000  Uiso   1.00
C203   C     0.16665   0.50039   0.38392   0.00000  Uiso   1.00
C204   C     0.24652   0.50015   0.24564   0.00000  Uiso   1.00
C205   C     0.16668   0.49961   0.11608   0.00000  Uiso   1.00
C206   C     0.12840   0.50047   0.40546   0.00000  Uiso   1.00
C207   C     0.20493   0.49953   0.09454   0.00000  Uiso   1.00
C208   C     0.12797   0.50500   0.45221   0.00000  Uiso   1.00
C209   C     0.20536   0.49500   0.04779   0.00000  Uiso   1.00
C210   C     0.16638   0.50053   0.47650   0.00000  Uiso   1.00
C211   C     0.16695   0.49946   0.02350   0.00000  Uiso   1.00
C212   C     0.20437   0.49708   0.45391   0.00000  Uiso   1.00
C213   C     0.12896   0.50291   0.04609   0.00000  Uiso   1.00
C214   C     0.09109   0.51313   0.47597   0.00000  Uiso   1.00
C215   C     0.09183   0.51021   0.02214   0.00000  Uiso   1.00
C216   C     0.24224   0.48686   0.02403   0.00000  Uiso   1.00
C217   C     0.24150   0.48978   0.47786   0.00000  Uiso   1.00
C218   C     0.02029   0.45843   0.25475   0.00000  Uiso   1.00
C219   C     0.31304   0.54157   0.24524   0.00000  Uiso   1.00
C220   C     0.31230   0.45910   0.24144   0.00000  Uiso   1.00
C221   C     0.02103   0.54090   0.25856   0.00000  Uiso   1.00
C222   C     0.29110   0.50045   0.24129   0.00000  Uiso   1.00
H223   H     0.06306   0.51584   0.03943   0.00000  Uiso   1.00
H224   H     0.27027   0.48415   0.46057   0.00000  Uiso   1.00
H225   H     0.23975   0.50423   0.35409   0.00000  Uiso   1.00
H226   H     0.09358   0.49580   0.14592   0.00000  Uiso   1.00
N227   N     0.16667   0.61907   0.25000   0.00000  Uiso   1.00
N228   N     0.16667   0.38093   0.25000   0.00000  Uiso   1.00
O229   O     0.10559   0.53821   0.24999   0.00000  Uiso   1.00
O230   O     0.09027   0.50061   0.11336   0.00000  Uiso   1.00
O231   O     0.22774   0.46179   0.25000   0.00000  Uiso   1.00
O232   O     0.22774   0.53821   0.25000   0.00000  Uiso   1.00
O233   O     0.10559   0.46179   0.24999   0.00000  Uiso   1.00
O234   O     0.16666   0.53823   0.18392   0.00000  Uiso   1.00
O235   O     0.16667   0.46177   0.31607   0.00000  Uiso   1.00
O236   O     0.16667   0.53823   0.31607   0.00000  Uiso   1.00
O237   O     0.16666   0.46177   0.18392   0.00000  Uiso   1.00
O238   O     0.24306   0.49939   0.38664   0.00000  Uiso   1.00
Zn239  Zn    0.16667   0.55104   0.25000   0.00000  Uiso   1.00
Zn240  Zn    0.16667   0.44896   0.25000   0.00000  Uiso   1.00
Br241  Br    0.41248   0.48443   0.37020   0.00000  Uiso   1.00
Br242  Br    0.43877   0.61081   0.17898   0.00000  Uiso   1.00
Br243  Br    0.43979   0.38792   0.17799   0.00000  Uiso   1.00
Br244  Br    0.56021   0.61208   0.32201   0.00000  Uiso   1.00
Br245  Br    0.58752   0.51557   0.12980   0.00000  Uiso   1.00
Br246  Br    0.37344   0.53730   0.45112   0.00000  Uiso   1.00
Br247  Br    0.62656   0.46269   0.04888   0.00000  Uiso   1.00
Br248  Br    0.37627   0.40123   0.27454   0.00000  Uiso   1.00
Br249  Br    0.62373   0.59877   0.22546   0.00000  Uiso   1.00
Br250  Br    0.62155   0.40395   0.21688   0.00000  Uiso   1.00
Br251  Br    0.37845   0.59605   0.28312   0.00000  Uiso   1.00
Br252  Br    0.56123   0.38919   0.32102   0.00000  Uiso   1.00
C253   C     0.42014   0.49985   0.25436   0.00000  Uiso   1.00
C254   C     0.37557   0.49955   0.25871   0.00000  Uiso   1.00
C255   C     0.52504   0.35752   0.27941   0.00000  Uiso   1.00
C256   C     0.47496   0.64248   0.22058   0.00000  Uiso   1.00
C257   C     0.47507   0.35700   0.22048   0.00000  Uiso   1.00
C258   C     0.52493   0.64300   0.27951   0.00000  Uiso   1.00
C259   C     0.50035   0.49994   0.16371   0.00000  Uiso   1.00
C260   C     0.49965   0.50006   0.33629   0.00000  Uiso   1.00
C261   C     0.53822   0.49962   0.40752   0.00000  Uiso   1.00
C262   C     0.46178   0.50037   0.09248   0.00000  Uiso   1.00
C263   C     0.49998   0.50039   0.38392   0.00000  Uiso   1.00
C264   C     0.57986   0.50015   0.24564   0.00000  Uiso   1.00
C265   C     0.50002   0.49961   0.11608   0.00000  Uiso   1.00
C266   C     0.46173   0.50047   0.40546   0.00000  Uiso   1.00
C267   C     0.53827   0.49953   0.09454   0.00000  Uiso   1.00
C268   C     0.46131   0.50500   0.45221   0.00000  Uiso   1.00
C269   C     0.53869   0.49500   0.04779   0.00000  Uiso   1.00
C270   C     0.49971   0.50053   0.47650   0.00000  Uiso   1.00
C271   C     0.50029   0.49946   0.02350   0.00000  Uiso   1.00
C272   C     0.53770   0.49708   0.45391   0.00000  Uiso   1.00
C273   C     0.46229   0.50291   0.04609   0.00000  Uiso   1.00
C274   C     0.42443   0.51313   0.47597   0.00000  Uiso   1.00
C275   C     0.42516   0.51021   0.02214   0.00000  Uiso   1.00
C276   C     0.57557   0.48686   0.02403   0.00000  Uiso   1.00
C277   C     0.57484   0.48978   0.47786   0.00000  Uiso   1.00
C278   C     0.35363   0.45843   0.25475   0.00000  Uiso   1.00
C279   C     0.64637   0.54157   0.24524   0.00000  Uiso   1.00
C280   C     0.64564   0.45910   0.24144   0.00000  Uiso   1.00
C281   C     0.35436   0.54090   0.25856   0.00000  Uiso   1.00
C282   C     0.62443   0.50045   0.24129   0.00000  Uiso   1.00
H283   H     0.39639   0.51584   0.03943   0.00000  Uiso   1.00
H284   H     0.60361   0.48415   0.46057   0.00000  Uiso   1.00
H285   H     0.57308   0.50423   0.35409   0.00000  Uiso   1.00
H286   H     0.42692   0.49580   0.14592   0.00000  Uiso   1.00
N287   N     0.50000   0.61907   0.25000   0.00000  Uiso   1.00
N288   N     0.50000   0.38093   0.25000   0.00000  Uiso   1.00
O289   O     0.43892   0.53821   0.24999   0.00000  Uiso   1.00
O290   O     0.42361   0.50061   0.11336   0.00000  Uiso   1.00
O291   O     0.56108   0.46179   0.25000   0.00000  Uiso   1.00
O292   O     0.56108   0.53821   0.25000   0.00000  Uiso   1.00
O293   O     0.43892   0.46179   0.24999   0.00000  Uiso   1.00
O294   O     0.49999   0.53823   0.18392   0.00000  Uiso   1.00
O295   O     0.50001   0.46177   0.31607   0.00000  Uiso   1.00
O296   O     0.50001   0.53823   0.31607   0.00000  Uiso   1.00
O297   O     0.49999   0.46177   0.18392   0.00000  Uiso   1.00
O298   O     0.57639   0.49939   0.38664   0.00000  Uiso   1.00
Zn299  Zn    0.50000   0.55104   0.25000   0.00000  Uiso   1.00
Zn300  Zn    0.50000   0.44896   0.25000   0.00000  Uiso   1.00
Br301  Br    0.74581   0.48443   0.37020   0.00000  Uiso   1.00
Br302  Br    0.77211   0.61081   0.17898   0.00000  Uiso   1.00
Br303  Br    0.77312   0.38792   0.17799   0.00000  Uiso   1.00
Br304  Br    0.89354   0.61208   0.32201   0.00000  Uiso   1.00
Br305  Br    0.92085   0.51557   0.12980   0.00000  Uiso   1.00
Br306  Br    0.70677   0.53730   0.45112   0.00000  Uiso   1.00
Br307  Br    0.95989   0.46269   0.04888   0.00000  Uiso   1.00
Br308  Br    0.70960   0.40123   0.27454   0.00000  Uiso   1.00
Br309  Br    0.95706   0.59877   0.22546   0.00000  Uiso   1.00
Br310  Br    0.95489   0.40395   0.21688   0.00000  Uiso   1.00
Br311  Br    0.71178   0.59605   0.28312   0.00000  Uiso   1.00
Br312  Br    0.89456   0.38919   0.32102   0.00000  Uiso   1.00
C313   C     0.75348   0.49985   0.25436   0.00000  Uiso   1.00
C314   C     0.70890   0.49955   0.25871   0.00000  Uiso   1.00
C315   C     0.85837   0.35752   0.27941   0.00000  Uiso   1.00
C316   C     0.80829   0.64248   0.22058   0.00000  Uiso   1.00
C317   C     0.80840   0.35700   0.22048   0.00000  Uiso   1.00
C318   C     0.85827   0.64300   0.27951   0.00000  Uiso   1.00
C319   C     0.83368   0.49994   0.16371   0.00000  Uiso   1.00
C320   C     0.83298   0.50006   0.33629   0.00000  Uiso   1.00
C321   C     0.87156   0.49962   0.40752   0.00000  Uiso   1.00
C322   C     0.79511   0.50037   0.09248   0.00000  Uiso   1.00
C323   C     0.83332   0.50039   0.38392   0.00000  Uiso   1.00
C324   C     0.91319   0.50015   0.24564   0.00000  Uiso   1.00
C325   C     0.83335   0.49961   0.11608   0.00000  Uiso   1.00
C326   C     0.79507   0.50047   0.40546   0.00000  Uiso   1.00
C327   C     0.87160   0.49953   0.09454   0.00000  Uiso   1.00
C328   C     0.79464   0.50500   0.45221   0.00000  Uiso   1.00
C329   C     0.87202   0.49500   0.04779   0.00000  Uiso   1.00
C330   C     0.83304   0.50053   0.47650   0.00000  Uiso   1.00
C331   C     0.83362   0.49946   0.02350   0.00000  Uiso   1.00
C332   C     0.87104   0.49708   0.45391   0.00000  Uiso   1.00
C333   C     0.79563   0.50291   0.04609   0.00000  Uiso   1.00
C334   C     0.75776   0.51313   0.47597   0.00000  Uiso   1.00
C335   C     0.75850   0.51021   0.02214   0.00000  Uiso   1.00
C336   C     0.90890   0.48686   0.02403   0.00000  Uiso   1.00
C337   C     0.90817   0.48978   0.47786   0.00000  Uiso   1.00
C338   C     0.68696   0.45843   0.25475   0.00000  Uiso   1.00
C339   C     0.97971   0.54157   0.24524   0.00000  Uiso   1.00
C340   C     0.97897   0.45910   0.24144   0.00000  Uiso   1.00
C341   C     0.68770   0.54090   0.25856   0.00000  Uiso   1.00
C342   C     0.95776   0.50045   0.24129   0.00000  Uiso   1.00
H343   H     0.72972   0.51584   0.03943   0.00000  Uiso   1.00
H344   H     0.93694   0.48415   0.46057   0.00000  Uiso   1.00
H345   H     0.90642   0.50423   0.35409   0.00000  Uiso   1.00
H346   H     0.76025   0.49580   0.14592   0.00000  Uiso   1.00
N347   N     0.83333   0.61907   0.25000   0.00000  Uiso   1.00
N348   N     0.83333   0.38093   0.25000   0.00000  Uiso   1.00
O349   O     0.77226   0.53821   0.24999   0.00000  Uiso   1.00
O350   O     0.75694   0.50061   0.11336   0.00000  Uiso   1.00
O351   O     0.89441   0.46179   0.25000   0.00000  Uiso   1.00
O352   O     0.89441   0.53821   0.25000   0.00000  Uiso   1.00
O353   O     0.77226   0.46179   0.24999   0.00000  Uiso   1.00
O354   O     0.83333   0.53823   0.18392   0.00000  Uiso   1.00
O355   O     0.83334   0.46177   0.31607   0.00000  Uiso   1.00
O356   O     0.83334   0.53823   0.31607   0.00000  Uiso   1.00
O357   O     0.83333   0.46177   0.18392   0.00000  Uiso   1.00
O358   O     0.90973   0.49939   0.38664   0.00000  Uiso   1.00
Zn359  Zn    0.83333   0.55104   0.25000   0.00000  Uiso   1.00
Zn360  Zn    0.83333   0.44896   0.25000   0.00000  Uiso   1.00
Br361  Br    0.07915   0.81777   0.37020   0.00000  Uiso   1.00
Br362  Br    0.10544   0.94415   0.17898   0.00000  Uiso   1.00
Br363  Br    0.10646   0.72125   0.17799   0.00000  Uiso   1.00
Br364  Br    0.22688   0.94542   0.32201   0.00000  Uiso   1.00
Br365  Br    0.25419   0.84890   0.12980   0.00000  Uiso   1.00
Br366  Br    0.04010   0.87063   0.45112   0.00000  Uiso   1.00
Br367  Br    0.29323   0.79602   0.04888   0.00000  Uiso   1.00
Br368  Br    0.04294   0.73457   0.27454   0.00000  Uiso   1.00
Br369  Br    0.29040   0.93210   0.22546   0.00000  Uiso   1.00
Br370  Br    0.28822   0.73728   0.21688   0.00000  Uiso   1.00
Br371  Br    0.04511   0.92938   0.28312   0.00000  Uiso   1.00
Br372  Br    0.22789   0.72252   0.32102   0.00000  Uiso   1.00
C373   C     0.08681   0.83318   0.25436   0.00000  Uiso   1.00
C374   C     0.04224   0.83289   0.25871   0.00000  Uiso   1.00
C375   C     0.19171   0.69085   0.27941   0.00000  Uiso   1.00
C376   C     0.14163   0.97581   0.22058   0.00000  Uiso   1.00
C377   C     0.14173   0.69033   0.22048   0.00000  Uiso   1.00
C378   C     0.19160   0.97633   0.27951   0.00000  Uiso   1.00
C379   C     0.16702   0.83327   0.16371   0.00000  Uiso   1.00
C380   C     0.16632   0.83339   0.33629   0.00000  Uiso   1.00
C381   C     0.20489   0.83296   0.40752   0.00000  Uiso   1.00
C382   C     0.12844   0.83370   0.09248   0.00000  Uiso   1.00
C383   C     0.16665   0.83373   0.38392   0.00000  Uiso   1.00
C384   C     0.24652   0.83349   0.24564   0.00000  Uiso   1.00
C385   C     0.16668   0.83294   0.11608   0.00000  Uiso   1.00
C386   C     0.12840   0.83381   0.40546   0.00000  Uiso   1.00
C387   C     0.20493   0.83286   0.09454   0.00000  Uiso   1.00
C388   C     0.12797   0.83833   0.45221   0.00000  Uiso   1.00
C389   C     0.20536   0.82833   0.04779   0.00000  Uiso   1.00
C390   C     0.16638   0.83386   0.47650   0.00000  Uiso   1.00
C391   C     0.16695   0.83280   0.02350   0.00000  Uiso   1.00
C392   C     0.20437   0.83041   0.45391   0.00000  Uiso   1.00
C393   C     0.12896   0.83624   0.04609   0.00000  Uiso   1.00
C394   C     0.09109   0.84647   0.47597   0.00000  Uiso   1.00
C395   C     0.09183   0.84355   0.02214   0.00000  Uiso   1.00
C396   C     0.24224   0.82019   0.02403   0.00000  Uiso   1.00
C397   C     0.24150   0.82311   0.47786   0.00000  Uiso   1.00
C398   C     0.02029   0.79176   0.25475   0.00000  Uiso   1.00
C399   C     0.31304   0.87490   0.24524   0.00000  Uiso   1.00
C400   C     0.31230   0.79244   0.24144   0.00000  Uiso   1.00
C401   C     0.02103   0.87423   0.25856   0.00000  Uiso   1.00
C402   C     0.29110   0.83378   0.24129   0.00000  Uiso   1.00
H403   H     0.06306   0.84917   0.03943   0.00000  Uiso   1.00
H404   H     0.27027   0.81749   0.46057   0.00000  Uiso   1.00
H405   H     0.23975   0.83756   0.35409   0.00000  Uiso   1.00
H406   H     0.09358   0.82913   0.14592   0.00000  Uiso   1.00
N407   N     0.16667   0.95240   0.25000   0.00000  Uiso   1.00
N408   N     0.16667   0.71427   0.25000   0.00000  Uiso   1.00
O409   O     0.10559   0.87154   0.24999   0.00000  Uiso   1.00
O410   O     0.09027   0.83394   0.11336   0.00000  Uiso   1.00
O411   O     0.22774   0.79513   0.25000   0.00000  Uiso   1.00
O412   O     0.22774   0.87154   0.25000   0.00000  Uiso   1.00
O413   O     0.10559   0.79513   0.24999   0.00000  Uiso   1.00
O414   O     0.16666   0.87156   0.18392   0.00000  Uiso   1.00
O415   O     0.16667   0.79511   0.31607   0.00000  Uiso   1.00
O416   O     0.16667   0.87156   0.31607   0.00000  Uiso   1.00
O417   O     0.16666   0.79511   0.18392   0.00000  Uiso   1.00
O418   O     0.24306   0.83272   0.38664   0.00000  Uiso   1.00
Zn419  Zn    0.16667   0.88437   0.25000   0.00000  Uiso   1.00
Zn420  Zn    0.16667   0.78229   0.25000   0.00000  Uiso   1.00
Br421  Br    0.41248   0.81777   0.37020   0.00000  Uiso   1.00
Br422  Br    0.43877   0.94415   0.17898   0.00000  Uiso   1.00
Br423  Br    0.43979   0.72125   0.17799   0.00000  Uiso   1.00
Br424  Br    0.56021   0.94542   0.32201   0.00000  Uiso   1.00
Br425  Br    0.58752   0.84890   0.12980   0.00000  Uiso   1.00
Br426  Br    0.37344   0.87063   0.45112   0.00000  Uiso   1.00
Br427  Br    0.62656   0.79602   0.04888   0.00000  Uiso   1.00
Br428  Br    0.37627   0.73457   0.27454   0.00000  Uiso   1.00
Br429  Br    0.62373   0.93210   0.22546   0.00000  Uiso   1.00
Br430  Br    0.62155   0.73728   0.21688   0.00000  Uiso   1.00
Br431  Br    0.37845   0.92938   0.28312   0.00000  Uiso   1.00
Br432  Br    0.56123   0.72252   0.32102   0.00000  Uiso   1.00
C433   C     0.42014   0.83318   0.25436   0.00000  Uiso   1.00
C434   C     0.37557   0.83289   0.25871   0.00000  Uiso   1.00
C435   C     0.52504   0.69085   0.27941   0.00000  Uiso   1.00
C436   C     0.47496   0.97581   0.22058   0.00000  Uiso   1.00
C437   C     0.47507   0.69033   0.22048   0.00000  Uiso   1.00
C438   C     0.52493   0.97633   0.27951   0.00000  Uiso   1.00
C439   C     0.50035   0.83327   0.16371   0.00000  Uiso   1.00
C440   C     0.49965   0.83339   0.33629   0.00000  Uiso   1.00
C441   C     0.53822   0.83296   0.40752   0.00000  Uiso   1.00
C442   C     0.46178   0.83370   0.09248   0.00000  Uiso   1.00
C443   C     0.49998   0.83373   0.38392   0.00000  Uiso   1.00
C444   C     0.57986   0.83349   0.24564   0.00000  Uiso   1.00
C445   C     0.50002   0.83294   0.11608   0.00000  Uiso   1.00
C446   C     0.46173   0.83381   0.40546   0.00000  Uiso   1.00
C447   C     0.53827   0.83286   0.09454   0.00000  Uiso   1.00
C448   C     0.46131   0.83833   0.45221   0.00000  Uiso   1.00
C449   C     0.53869   0.82833   0.04779   0.00000  Uiso   1.00
C450   C     0.49971   0.83386   0.47650   0.00000  Uiso   1.00
C451   C     0.50029   0.83280   0.02350   0.00000  Uiso   1.00
C452   C     0.53770   0.83041   0.45391   0.00000  Uiso   1.00
C453   C     0.46229   0.83624   0.04609   0.00000  Uiso   1.00
C454   C     0.42443   0.84647   0.47597   0.00000  Uiso   1.00
C455   C     0.42516   0.84355   0.02214   0.00000  Uiso   1.00
C456   C     0.57557   0.82019   0.02403   0.00000  Uiso   1.00
C457   C     0.57484   0.82311   0.47786   0.00000  Uiso   1.00
C458   C     0.35363   0.79176   0.25475   0.00000  Uiso   1.00
C459   C     0.64637   0.87490   0.24524   0.00000  Uiso   1.00
C460   C     0.64564   0.79244   0.24144   0.00000  Uiso   1.00
C461   C     0.35436   0.87423   0.25856   0.00000  Uiso   1.00
C462   C     0.62443   0.83378   0.24129   0.00000  Uiso   1.00
H463   H     0.39639   0.84917   0.03943   0.00000  Uiso   1.00
H464   H     0.60361   0.81749   0.46057   0.00000  Uiso   1.00
H465   H     0.57308   0.83756   0.35409   0.00000  Uiso   1.00
H466   H     0.42692   0.82913   0.14592   0.00000  Uiso   1.00
N467   N     0.50000   0.95240   0.25000   0.00000  Uiso   1.00
N468   N     0.50000   0.71427   0.25000   0.00000  Uiso   1.00
O469   O     0.43892   0.87154   0.24999   0.00000  Uiso   1.00
O470   O     0.42361   0.83394   0.11336   0.00000  Uiso   1.00
O471   O     0.56108   0.79513   0.25000   0.00000  Uiso   1.00
O472   O     0.56108   0.87154   0.25000   0.00000  Uiso   1.00
O473   O     0.43892   0.79513   0.24999   0.00000  Uiso   1.00
O474   O     0.49999   0.87156   0.18392   0.00000  Uiso   1.00
O475   O     0.50001   0.79511   0.31607   0.00000  Uiso   1.00
O476   O     0.50001   0.87156   0.31607   0.00000  Uiso   1.00
O477   O     0.49999   0.79511   0.18392   0.00000  Uiso   1.00
O478   O     0.57639   0.83272   0.38664   0.00000  Uiso   1.00
Zn479  Zn    0.50000   0.88437   0.25000   0.00000  Uiso   1.00
Zn480  Zn    0.50000   0.78229   0.25000   0.00000  Uiso   1.00
Br481  Br    0.74581   0.81777   0.37020   0.00000  Uiso   1.00
Br482  Br    0.77211   0.94415   0.17898   0.00000  Uiso   1.00
Br483  Br    0.77312   0.72125   0.17799   0.00000  Uiso   1.00
Br484  Br    0.89354   0.94542   0.32201   0.00000  Uiso   1.00
Br485  Br    0.92085   0.84890   0.12980   0.00000  Uiso   1.00
Br486  Br    0.70677   0.87063   0.45112   0.00000  Uiso   1.00
Br487  Br    0.95989   0.79602   0.04888   0.00000  Uiso   1.00
Br488  Br    0.70960   0.73457   0.27454   0.00000  Uiso   1.00
Br489  Br    0.95706   0.93210   0.22546   0.00000  Uiso   1.00
Br490  Br    0.95489   0.73728   0.21688   0.00000  Uiso   1.00
Br491  Br    0.71178   0.92938   0.28312   0.00000  Uiso   1.00
Br492  Br    0.89456   0.72252   0.32102   0.00000  Uiso   1.00
C493   C     0.75348   0.83318   0.25436   0.00000  Uiso   1.00
C494   C     0.70890   0.83289   0.25871   0.00000  Uiso   1.00
C495   C     0.85837   0.69085   0.27941   0.00000  Uiso   1.00
C496   C     0.80829   0.97581   0.22058   0.00000  Uiso   1.00
C497   C     0.80840   0.69033   0.22048   0.00000  Uiso   1.00
C498   C     0.85827   0.97633   0.27951   0.00000  Uiso   1.00
C499   C     0.83368   0.83327   0.16371   0.00000  Uiso   1.00
C500   C     0.83298   0.83339   0.33629   0.00000  Uiso   1.00
C501   C     0.87156   0.83296   0.40752   0.00000  Uiso   1.00
C502   C     0.79511   0.83370   0.09248   0.00000  Uiso   1.00
C503   C     0.83332   0.83373   0.38392   0.00000  Uiso   1.00
C504   C     0.91319   0.83349   0.24564   0.00000  Uiso   1.00
C505   C     0.83335   0.83294   0.11608   0.00000  Uiso   1.00
C506   C     0.79507   0.83381   0.40546   0.00000  Uiso   1.00
C507   C     0.87160   0.83286   0.09454   0.00000  Uiso   1.00
C508   C     0.79464   0.83833   0.45221   0.00000  Uiso   1.00
C509   C     0.87202   0.82833   0.04779   0.00000  Uiso   1.00
C510   C     0.83304   0.83386   0.47650   0.00000  Uiso   1.00
C511   C     0.83362   0.83280   0.02350   0.00000  Uiso   1.00
C512   C     0.87104   0.83041   0.45391   0.00000  Uiso   1.00
C513   C     0.79563   0.83624   0.04609   0.00000  Uiso   1.00
C514   C     0.75776   0.84647   0.47597   0.00000  Uiso   1.00
C515   C     0.75850   0.84355   0.02214   0.00000  Uiso   1.00
C516   C     0.90890   0.82019   0.02403   0.00000  Uiso   1.00
C517   C     0.90817   0.82311   0.47786   0.00000  Uiso   1.00
C518   C     0.68696   0.79176   0.25475   0.00000  Uiso   1.00
C519   C     0.97971   0.87490   0.24524   0.00000  Uiso   1.00
C520   C     0.97897   0.79244   0.24144   0.00000  Uiso   1.00
C521   C     0.68770   0.87423   0.25856   0.00000  Uiso   1.00
C522   C     0.95776   0.83378   0.24129   0.00000  Uiso   1.00
H523   H     0.72972   0.84917   0.03943   0.00000  Uiso   1.00
H524   H     0.93694   0.81749   0.46057   0.00000  Uiso   1.00
H525   H     0.90642   0.83756   0.35409   0.00000  Uiso   1.00
H526   H     0.76025   0.82913   0.14592   0.00000  Uiso   1.00
N527   N     0.83333   0.95240   0.25000   0.00000  Uiso   1.00
N528   N     0.83333   0.71427   0.25000   0.00000  Uiso   1.00
O529   O     0.77226   0.87154   0.24999   0.00000  Uiso   1.00
O530   O     0.75694   0.83394   0.11336   0.00000  Uiso   1.00
O531   O     0.89441   0.79513   0.25000   0.00000  Uiso   1.00
O532   O     0.89441   0.87154   0.25000   0.00000  Uiso   1.00
O533   O     0.77226   0.79513   0.24999   0.00000  Uiso   1.00
O534   O     0.83333   0.87156   0.18392   0.00000  Uiso   1.00
O535   O     0.83334   0.79511   0.31607   0.00000  Uiso   1.00
O536   O     0.83334   0.87156   0.31607   0.00000  Uiso   1.00
O537   O     0.83333   0.79511   0.18392   0.00000  Uiso   1.00
O538   O     0.90973   0.83272   0.38664   0.00000  Uiso   1.00
Zn539  Zn    0.83333   0.88437   0.25000   0.00000  Uiso   1.00
Zn540  Zn    0.83333   0.78229   0.25000   0.00000  Uiso   1.00
Br541  Br    0.07915   0.15110   0.87020   0.00000  Uiso   1.00
Br542  Br    0.10544   0.27748   0.67898   0.00000  Uiso   1.00
Br543  Br    0.10646   0.05458   0.67799   0.00000  Uiso   1.00
Br544  Br    0.22688   0.27875   0.82201   0.00000  Uiso   1.00
Br545  Br    0.25419   0.18223   0.62980   0.00000  Uiso   1.00
Br546  Br    0.04010   0.20397   0.95112   0.00000  Uiso   1.00
Br547  Br    0.29323   0.12936   0.54888   0.00000  Uiso   1.00
Br548  Br    0.04294   0.06790   0.77454   0.00000  Uiso   1.00
Br549  Br    0.29040   0.26543   0.72546   0.00000  Uiso   1.00
Br550  Br    0.28822   0.07062   0.71688   0.00000  Uiso   1.00
Br551  Br    0.04511   0.26272   0.78312   0.00000  Uiso   1.00
Br552  Br    0.22789   0.05585   0.82102   0.00000  Uiso   1.00
C553   C     0.08681   0.16651   0.75436   0.00000  Uiso   1.00
C554   C     0.04224   0.16622   0.75871   0.00000  Uiso   1.00
C555   C     0.19171   0.02419   0.77941   0.00000  Uiso   1.00
C556   C     0.14163   0.30914   0.72058   0.00000  Uiso   1.00
C557   C     0.14173   0.02367   0.72048   0.00000  Uiso   1.00
C558   C     0.19160   0.30967   0.77951   0.00000  Uiso   1.00
C559   C     0.16702   0.16661   0.66371   0.00000  Uiso   1.00
C560   C     0.16632   0.16673   0.83629   0.00000  Uiso   1.00
C561   C     0.20489   0.16629   0.90752   0.00000  Uiso   1.00
C562   C     0.12844   0.16704   0.59248   0.00000  Uiso   1.00
C563   C     0.16665   0.16706   0.88392   0.00000  Uiso   1.00
C564   C     0.24652   0.16682   0.74564   0.00000  Uiso   1.00
C565   C     0.16668   0.16627   0.61608   0.00000  Uiso   1.00
C566   C     0.12840   0.16714   0.90546   0.00000  Uiso   1.00
C567   C     0.20493   0.16619   0.59454   0.00000  Uiso   1.00
C568   C     0.12797   0.17166   0.95221   0.00000  Uiso   1.00
C569   C     0.20536   0.16166   0.54779   0.00000  Uiso   1.00
C570   C     0.16638   0.16720   0.97650   0.00000  Uiso   1.00
C571   C     0.16695   0.16613   0.52350   0.00000  Uiso   1.00
C572   C     0.20437   0.16375   0.95391   0.00000  Uiso   1.00
C573   C     0.12896   0.16958   0.54609   0.00000  Uiso   1.00
C574   C     0.09109   0.17980   0.97597   0.00000  Uiso   1.00
C575   C     0.09183   0.17688   0.52214   0.00000  Uiso   1.00
C576   C     0.24224   0.15352   0.52403   0.00000  Uiso   1.00
C577   C     0.24150   0.15644   0.97786   0.00000  Uiso   1.00
C578   C     0.02029   0.12510   0.75475   0.00000  Uiso   1.00
C579   C     0.31304   0.20824   0.74524   0.00000  Uiso   1.00
C580   C     0.31230   0.12577   0.74144   0.00000  Uiso   1.00
C581   C     0.02103   0.20756   0.75856   0.00000  Uiso   1.00
C582   C     0.29110   0.16711   0.74129   0.00000  Uiso   1.00
H583   H     0.06306   0.18250   0.53943   0.00000  Uiso   1.00
H584   H     0.27027   0.15082   0.96057   0.00000  Uiso   1.00
H585   H     0.23975   0.17090   0.85409   0.00000  Uiso   1.00
H586   H     0.09358   0.16247   0.64592   0.00000  Uiso   1.00
N587   N     0.16667   0.28573   0.75000   0.00000  Uiso   1.00
N588   N     0.16667   0.04760   0.75000   0.00000  Uiso   1.00
O589   O     0.10559   0.20487   0.74999   0.00000  Uiso   1.00
O590   O     0.09027   0.16727   0.61336   0.00000  Uiso   1.00
O591   O     0.22774   0.12846   0.75000   0.00000  Uiso   1.00
O592   O     0.22774   0.20487   0.75000   0.00000  Uiso   1.00
O593   O     0.10559   0.12846   0.74999   0.00000  Uiso   1.00
O594   O     0.16666   0.20489   0.68392   0.00000  Uiso   1.00
O595   O     0.16667   0.12844   0.81607   0.00000  Uiso   1.00
O596   O     0.16667   0.20489   0.81607   0.00000  Uiso   1.00
O597   O     0.16666   0.12844   0.68392   0.00000  Uiso   1.00
O598   O     0.24306   0.16605   0.88664   0.00000  Uiso   1.00
Zn599  Zn    0.16667   0.21771   0.75000   0.00000  Uiso   1.00
Zn600  Zn    0.16667   0.11563   0.75000   0.00000  Uiso   1.00
Br601  Br    0.41248   0.15110   0.87020   0.00000  Uiso   1.00
Br602  Br    0.43877   0.27748   0.67898   0.00000  Uiso   1.00
Br603  Br    0.43979   0.05458   0.67799   0.00000  Uiso   1.00
Br604  Br    0.56021   0.27875   0.82201   0.00000  Uiso   1.00
Br605  Br    0.58752   0.18223   0.62980   0.00000  Uiso   1.00
Br606  Br    0.37344   0.20397   0.95112   0.00000  Uiso   1.00
Br607  Br    0.62656   0.12936   0.54888   0.00000  Uiso   1.00
Br608  Br    0.37627   0.06790   0.77454   0.00000  Uiso   1.00
Br609  Br    0.62373   0.26543   0.72546   0.00000  Uiso   1.00
Br610  Br    0.62155   0.07062   0.71688   0.00000  Uiso   1.00
Br611  Br    0.37845   0.26272   0.78312   0.00000  Uiso   1.00
Br612  Br    0.56123   0.05585   0.82102   0.00000  Uiso   1.00
C613   C     0.42014   0.16651   0.75436   0.00000  Uiso   1.00
C614   C     0.37557   0.16622   0.75871   0.00000  Uiso   1.00
C615   C     0.52504   0.02419   0.77941   0.00000  Uiso   1.00
C616   C     0.47496   0.30914   0.72058   0.00000  Uiso   1.00
C617   C     0.47507   0.02367   0.72048   0.00000  Uiso   1.00
C618   C     0.52493   0.30967   0.77951   0.00000  Uiso   1.00
C619   C     0.50035   0.16661   0.66371   0.00000  Uiso   1.00
C620   C     0.49965   0.16673   0.83629   0.00000  Uiso   1.00
C621   C     0.53822   0.16629   0.90752   0.00000  Uiso   1.00
C622   C     0.46178   0.16704   0.59248   0.00000  Uiso   1.00
C623   C     0.49998   0.16706   0.88392   0.00000  Uiso   1.00
C624   C     0.57986   0.16682   0.74564   0.00000  Uiso   1.00
C625   C     0.50002   0.16627   0.61608   0.00000  Uiso   1.00
C626   C     0.46173   0.16714   0.90546   0.00000  Uiso   1.00
C627   C     0.53827   0.16619   0.59454   0.00000  Uiso   1.00
C628   C     0.46131   0.17166   0.95221   0.00000  Uiso   1.00
C629   C     0.53869   0.16166   0.54779   0.00000  Uiso   1.00
C630   C     0.49971   0.16720   0.97650   0.00000  Uiso   1.00
C631   C     0.50029   0.16613   0.52350   0.00000  Uiso   1.00
C632   C     0.53770   0.16375   0.95391   0.00000  Uiso   1.00
C633   C     0.46229   0.16958   0.54609   0.00000  Uiso   1.00
C634   C     0.42443   0.17980   0.97597   0.00000  Uiso   1.00
C635   C     0.42516   0.17688   0.52214   0.00000  Uiso   1.00
C636   C     0.57557   0.15352   0.52403   0.00000  Uiso   1.00
C637   C     0.57484   0.15644   0.97786   0.00000  Uiso   1.00
C638   C     0.35363   0.12510   0.75475   0.00000  Uiso   1.00
C639   C     0.64637   0.20824   0.74524   0.00000  Uiso   1.00
C640   C     0.64564   0.12577   0.74144   0.00000  Uiso   1.00
C641   C     0.35436   0.20756   0.75856   0.00000  Uiso   1.00
C642   C     0.62443   0.16711   0.74129   0.00000  Uiso   1.00
H643   H     0.39639   0.18250   0.53943   0.00000  Uiso   1.00
H644   H     0.60361   0.15082   0.96057   0.00000  Uiso   1.00
H645   H     0.57308   0.17090   0.85409   0.00000  Uiso   1.00
H646   H     0.42692   0.16247   0.64592   0.00000  Uiso   1.00
N647   N     0.50000   0.28573   0.75000   0.00000  Uiso   1.00
N648   N     0.50000   0.04760   0.75000   0.00000  Uiso   1.00
O649   O     0.43892   0.20487   0.74999   0.00000  Uiso   1.00
O650   O     0.42361   0.16727   0.61336   0.00000  Uiso   1.00
O651   O     0.56108   0.12846   0.75000   0.00000  Uiso   1.00
O652   O     0.56108   0.20487   0.75000   0.00000  Uiso   1.00
O653   O     0.43892   0.12846   0.74999   0.00000  Uiso   1.00
O654   O     0.49999   0.20489   0.68392   0.00000  Uiso   1.00
O655   O     0.50001   0.12844   0.81607   0.00000  Uiso   1.00
O656   O     0.50001   0.20489   0.81607   0.00000  Uiso   1.00
O657   O     0.49999   0.12844   0.68392   0.00000  Uiso   1.00
O658   O     0.57639   0.16605   0.88664   0.00000  Uiso   1.00
Zn659  Zn    0.50000   0.21771   0.75000   0.00000  Uiso   1.00
Zn660  Zn    0.50000   0.11563   0.75000   0.00000  Uiso   1.00
Br661  Br    0.74581   0.15110   0.87020   0.00000  Uiso   1.00
Br662  Br    0.77211   0.27748   0.67898   0.00000  Uiso   1.00
Br663  Br    0.77312   0.05458   0.67799   0.00000  Uiso   1.00
Br664  Br    0.89354   0.27875   0.82201   0.00000  Uiso   1.00
Br665  Br    0.92085   0.18223   0.62980   0.00000  Uiso   1.00
Br666  Br    0.70677   0.20397   0.95112   0.00000  Uiso   1.00
Br667  Br    0.95989   0.12936   0.54888   0.00000  Uiso   1.00
Br668  Br    0.70960   0.06790   0.77454   0.00000  Uiso   1.00
Br669  Br    0.95706   0.26543   0.72546   0.00000  Uiso   1.00
Br670  Br    0.95489   0.07062   0.71688   0.00000  Uiso   1.00
Br671  Br    0.71178   0.26272   0.78312   0.00000  Uiso   1.00
Br672  Br    0.89456   0.05585   0.82102   0.00000  Uiso   1.00
C673   C     0.75348   0.16651   0.75436   0.00000  Uiso   1.00
C674   C     0.70890   0.16622   0.75871   0.00000  Uiso   1.00
C675   C     0.85837   0.02419   0.77941   0.00000  Uiso   1.00
C676   C     0.80829   0.30914   0.72058   0.00000  Uiso   1.00
C677   C     0.80840   0.02367   0.72048   0.00000  Uiso   1.00
C678   C     0.85827   0.30967   0.77951   0.00000  Uiso   1.00
C679   C     0.83368   0.16661   0.66371   0.00000  Uiso   1.00
C680   C     0.83298   0.16673   0.83629   0.00000  Uiso   1.00
C681   C     0.87156   0.16629   0.90752   0.00000  Uiso   1.00
C682   C     0.79511   0.16704   0.59248   0.00000  Uiso   1.00
C683   C     0.83332   0.16706   0.88392   0.00000  Uiso   1.00
C684   C     0.91319   0.16682   0.74564   0.00000  Uiso   1.00
C685   C     0.83335   0.16627   0.61608   0.00000  Uiso   1.00
C686   C     0.79507   0.16714   0.90546   0.00000  Uiso   1.00
C687   C     0.87160   0.16619   0.59454   0.00000  Uiso   1.00
C688   C     0.79464   0.17166   0.95221   0.00000  Uiso   1.00
C689   C     0.87202   0.16166   0.54779   0.00000  Uiso   1.00
C690   C     0.83304   0.16720   0.97650   0.00000  Uiso   1.00
C691   C     0.83362   0.16613   0.52350   0.00000  Uiso   1.00
C692   C     0.87104   0.16375   0.95391   0.00000  Uiso   1.00
C693   C     0.79563   0.16958   0.54609   0.00000  Uiso   1.00
C694   C     0.75776   0.17980   0.97597   0.00000  Uiso   1.00
C695   C     0.75850   0.17688   0.52214   0.00000  Uiso   1.00
C696   C     0.90890   0.15352   0.52403   0.00000  Uiso   1.00
C697   C     0.90817   0.15644   0.97786   0.00000  Uiso   1.00
C698   C     0.68696   0.12510   0.75475   0.00000  Uiso   1.00
C699   C     0.97971   0.20824   0.74524   0.00000  Uiso   1.00
C700   C     0.97897   0.12577   0.74144   0.00000  Uiso   1.00
C701   C     0.68770   0.20756   0.75856   0.00000  Uiso   1.00
C702   C     0.95776   0.16711   0.74129   0.00000  Uiso   1.00
H703   H     0.72972   0.18250   0.53943   0.00000  Uiso   1.00
H704   H     0.93694   0.15082   0.96057   0.00000  Uiso   1.00
H705   H     0.90642   0.17090   0.85409   0.00000  Uiso   1.00
H706   H     0.76025   0.16247   0.64592   0.00000  Uiso   1.00
N707   N     0.83333   0.28573   0.75000   0.00000  Uiso   1.00
N708   N     0.83333   0.04760   0.75000   0.00000  Uiso   1.00
O709   O     0.77226   0.20487   0.74999   0.00000  Uiso   1.00
O710   O     0.75694   0.16727   0.61336   0.00000  Uiso   1.00
O711   O     0.89441   0.12846   0.75000   0.00000  Uiso   1.00
O712   O     0.89441   0.20487   0.75000   0.00000  Uiso   1.00
O713   O     0.77226   0.12846   0.74999   0.00000  Uiso   1.00
O714   O     0.83333   0.20489   0.68392   0.00000  Uiso   1.00
O715   O     0.83334   0.12844   0.81607   0.00000  Uiso   1.00
O716   O     0.83334   0.20489   0.81607   0.00000  Uiso   1.00
O717   O     0.83333   0.12844   0.68392   0.00000  Uiso   1.00
O718   O     0.90973   0.16605   0.88664   0.00000  Uiso   1.00
Zn719  Zn    0.83333   0.21771   0.75000   0.00000  Uiso   1.00
Zn720  Zn    0.83333   0.11563   0.75000   0.00000  Uiso   1.00
Br721  Br    0.07915   0.48443   0.87020   0.00000  Uiso   1.00
Br722  Br    0.10544   0.61081   0.67898   0.00000  Uiso   1.00
Br723  Br    0.10646   0.38792   0.67799   0.00000  Uiso   1.00
Br724  Br    0.22688   0.61208   0.82201   0.00000  Uiso   1.00
Br725  Br    0.25419   0.51557   0.62980   0.00000  Uiso   1.00
Br726  Br    0.04010   0.53730   0.95112   0.00000  Uiso   1.00
Br727  Br    0.29323   0.46269   0.54888   0.00000  Uiso   1.00
Br728  Br    0.04294   0.40123   0.77454   0.00000  Uiso   1.00
Br729  Br    0.29040   0.59877   0.72546   0.00000  Uiso   1.00
Br730  Br    0.28822   0.40395   0.71688   0.00000  Uiso   1.00
Br731  Br    0.04511   0.59605   0.78312   0.00000  Uiso   1.00
Br732  Br    0.22789   0.38919   0.82102   0.00000  Uiso   1.00
C733   C     0.08681   0.49985   0.75436   0.00000  Uiso   1.00
C734   C     0.04224   0.49955   0.75871   0.00000  Uiso   1.00
C735   C     0.19171   0.35752   0.77941   0.00000  Uiso   1.00
C736   C     0.14163   0.64248   0.72058   0.00000  Uiso   1.00
C737   C     0.14173   0.35700   0.72048   0.00000  Uiso   1.00
C738   C     0.19160   0.64300   0.77951   0.00000  Uiso   1.00
C739   C     0.16702   0.49994   0.66371   0.00000  Uiso   1.00
C740   C     0.16632   0.50006   0.83629   0.00000  Uiso   1.00
C741   C     0.20489   0.49962   0.90752   0.00000  Uiso   1.00
C742   C     0.12844   0.50037   0.59248   0.00000  Uiso   1.00
C743   C     0.16665   0.50039   0.88392   0.00000  Uiso   1.00
C744   C     0.24652   0.50015   0.74564   0.00000  Uiso   1.00
C745   C     0.16668   0.49961   0.61608   0.00000  Uiso   1.00
C746   C     0.12840   0.50047   0.90546   0.00000  Uiso   1.00
C747   C     0.20493   0.49953   0.59454   0.00000  Uiso   1.00
C748   C     0.12797   0.50500   0.95221   0.00000  Uiso   1.00
C749   C     0.20536   0.49500   0.54779   0.00000  Uiso   1.00
C750   C     0.16638   0.50053   0.97650   0.00000  Uiso   1.00
C751   C     0.16695   0.49946   0.52350   0.00000  Uiso   1.00
C752   C     0.20437   0.49708   0.95391   0.00000  Uiso   1.00
C753   C     0.12896   0.50291   0.54609   0.00000  Uiso   1.00
C754   C     0.09109   0.51313   0.97597   0.00000  Uiso   1.00
C755   C     0.09183   0.51021   0.52214   0.00000  Uiso   1.00
C756   C     0.24224   0.48686   0.52403   0.00000  Uiso   1.00
C757   C     0.24150   0.48978   0.97786   0.00000  Uiso   1.00
C758   C     0.02029   0.45843   0.75475   0.00000  Uiso   1.00
C759   C     0.31304   0.54157   0.74524   0.00000  Uiso   1.00
C760   C     0.31230   0.45910   0.74144   0.00000  Uiso   1.00
C761   C     0.02103   0.54090   0.75856   0.00000  Uiso   1.00
C762   C     0.29110   0.50045   0.74129   0.00000  Uiso   1.00
H763   H     0.06306   0.51584   0.53943   0.00000  Uiso   1.00
H764   H     0.27027   0.48415   0.96057   0.00000  Uiso   1.00
H765   H     0.23975   0.50423   0.85409   0.00000  Uiso   1.00
H766   H     0.09358   0.49580   0.64592   0.00000  Uiso   1.00
N767   N     0.16667   0.61907   0.75000   0.00000  Uiso   1.00
N768   N     0.16667   0.38093   0.75000   0.00000  Uiso   1.00
O769   O     0.10559   0.53821   0.74999   0.00000  Uiso   1.00
O770   O     0.09027   0.50061   0.61336   0.00000  Uiso   1.00
O771   O     0.22774   0.46179   0.75000   0.00000  Uiso   1.00
O772   O     0.22774   0.53821   0.75000   0.00000  Uiso   1.00
O773   O     0.10559   0.46179   0.74999   0.00000  Uiso   1.00
O774   O     0.16666   0.53823   0.68392   0.00000  Uiso   1.00
O775   O     0.16667   0.46177   0.81607   0.00000  Uiso   1.00
O776   O     0.16667   0.53823   0.81607   0.00000  Uiso   1.00
O777   O     0.16666   0.46177   0.68392   0.00000  Uiso   1.00
O778   O     0.24306   0.49939   0.88664   0.00000  Uiso   1.00
Zn779  Zn    0.16667   0.55104   0.75000   0.00000  Uiso   1.00
Zn780  Zn    0.16667   0.44896   0.75000   0.00000  Uiso   1.00
Br781  Br    0.41248   0.48443   0.87020   0.00000  Uiso   1.00
Br782  Br    0.43877   0.61081   0.67898   0.00000  Uiso   1.00
Br783  Br    0.43979   0.38792   0.67799   0.00000  Uiso   1.00
Br784  Br    0.56021   0.61208   0.82201   0.00000  Uiso   1.00
Br785  Br    0.58752   0.51557   0.62980   0.00000  Uiso   1.00
Br786  Br    0.37344   0.53730   0.95112   0.00000  Uiso   1.00
Br787  Br    0.62656   0.46269   0.54888   0.00000  Uiso   1.00
Br788  Br    0.37627   0.40123   0.77454   0.00000  Uiso   1.00
Br789  Br    0.62373   0.59877   0.72546   0.00000  Uiso   1.00
Br790  Br    0.62155   0.40395   0.71688   0.00000  Uiso   1.00
Br791  Br    0.37845   0.59605   0.78312   0.00000  Uiso   1.00
Br792  Br    0.56123   0.38919   0.82102   0.00000  Uiso   1.00
C793   C     0.42014   0.49985   0.75436   0.00000  Uiso   1.00
C794   C     0.37557   0.49955   0.75871   0.00000  Uiso   1.00
C795   C     0.52504   0.35752   0.77941   0.00000  Uiso   1.00
C796   C     0.47496   0.64248   0.72058   0.00000  Uiso   1.00
C797   C     0.47507   0.35700   0.72048   0.00000  Uiso   1.00
C798   C     0.52493   0.64300   0.77951   0.00000  Uiso   1.00
C799   C     0.50035   0.49994   0.66371   0.00000  Uiso   1.00
C800   C     0.49965   0.50006   0.83629   0.00000  Uiso   1.00
C801   C     0.53822   0.49962   0.90752   0.00000  Uiso   1.00
C802   C     0.46178   0.50037   0.59248   0.00000  Uiso   1.00
C803   C     0.49998   0.50039   0.88392   0.00000  Uiso   1.00
C804   C     0.57986   0.50015   0.74564   0.00000  Uiso   1.00
C805   C     0.50002   0.49961   0.61608   0.00000  Uiso   1.00
C806   C     0.46173   0.50047   0.90546   0.00000  Uiso   1.00
C807   C     0.53827   0.49953   0.59454   0.00000  Uiso   1.00
C808   C     0.46131   0.50500   0.95221   0.00000  Uiso   1.00
C809   C     0.53869   0.49500   0.54779   0.00000  Uiso   1.00
C810   C     0.49971   0.50053   0.97650   0.00000  Uiso   1.00
C811   C     0.50029   0.49946   0.52350   0.00000  Uiso   1.00
C812   C     0.53770   0.49708   0.95391   0.00000  Uiso   1.00
C813   C     0.46229   0.50291   0.54609   0.00000  Uiso   1.00
C814   C     0.42443   0.51313   0.97597   0.00000  Uiso   1.00
C815   C     0.42516   0.51021   0.52214   0.00000  Uiso   1.00
C816   C     0.57557   0.48686   0.52403   0.00000  Uiso   1.00
C817   C     0.57484   0.48978   0.97786   0.00000  Uiso   1.00
C818   C     0.35363   0.45843   0.75475   0.00000  Uiso   1.00
C819   C     0.64637   0.54157   0.74524   0.00000  Uiso   1.00
C820   C     0.64564   0.45910   0.74144   0.00000  Uiso   1.00
C821   C     0.35436   0.54090   0.75856   0.00000  Uiso   1.00
C822   C     0.62443   0.50045   0.74129   0.00000  Uiso   1.00
H823   H     0.39639   0.51584   0.53943   0.00000  Uiso   1.00
H824   H     0.60361   0.48415   0.96057   0.00000  Uiso   1.00
H825   H     0.57308   0.50423   0.85409   0.00000  Uiso   1.00
H826   H     0.42692   0.49580   0.64592   0.00000  Uiso   1.00
N827   N     0.50000   0.61907   0.75000   0.00000  Uiso   1.00
N828   N     0.50000   0.38093   0.75000   0.00000  Uiso   1.00
O829   O     0.43892   0.53821   0.74999   0.00000  Uiso   1.00
O830   O     0.42361   0.50061   0.61336   0.00000  Uiso   1.00
O831   O     0.56108   0.46179   0.75000   0.00000  Uiso   1.00
O832   O     0.56108   0.53821   0.75000   0.00000  Uiso   1.00
O833   O     0.43892   0.46179   0.74999   0.00000  Uiso   1.00
O834   O     0.49999   0.53823   0.68392   0.00000  Uiso   1.00
O835   O     0.50001   0.46177   0.81607   0.00000  Uiso   1.00
O836   O     0.50001   0.53823   0.81607   0.00000  Uiso   1.00
O837   O     0.49999   0.46177   0.68392   0.00000  Uiso   1.00
O838   O     0.57639   0.49939   0.88664   0.00000  Uiso   1.00
Zn839  Zn    0.50000   0.55104   0.75000   0.00000  Uiso   1.00
Zn840  Zn    0.50000   0.44896   0.75000   0.00000  Uiso   1.00
Br841  Br    0.74581   0.48443   0.87020   0.00000  Uiso   1.00
Br842  Br    0.77211   0.61081   0.67898   0.00000  Uiso   1.00
Br843  Br    0.77312   0.38792   0.67799   0.00000  Uiso   1.00
Br844  Br    0.89354   0.61208   0.82201   0.00000  Uiso   1.00
Br845  Br    0.92085   0.51557   0.62980   0.00000  Uiso   1.00
Br846  Br    0.70677   0.53730   0.95112   0.00000  Uiso   1.00
Br847  Br    0.95989   0.46269   0.54888   0.00000  Uiso   1.00
Br848  Br    0.70960   0.40123   0.77454   0.00000  Uiso   1.00
Br849  Br    0.95706   0.59877   0.72546   0.00000  Uiso   1.00
Br850  Br    0.95489   0.40395   0.71688   0.00000  Uiso   1.00
Br851  Br    0.71178   0.59605   0.78312   0.00000  Uiso   1.00
Br852  Br    0.89456   0.38919   0.82102   0.00000  Uiso   1.00
C853   C     0.75348   0.49985   0.75436   0.00000  Uiso   1.00
C854   C     0.70890   0.49955   0.75871   0.00000  Uiso   1.00
C855   C     0.85837   0.35752   0.77941   0.00000  Uiso   1.00
C856   C     0.80829   0.64248   0.72058   0.00000  Uiso   1.00
C857   C     0.80840   0.35700   0.72048   0.00000  Uiso   1.00
C858   C     0.85827   0.64300   0.77951   0.00000  Uiso   1.00
C859   C     0.83368   0.49994   0.66371   0.00000  Uiso   1.00
C860   C     0.83298   0.50006   0.83629   0.00000  Uiso   1.00
C861   C     0.87156   0.49962   0.90752   0.00000  Uiso   1.00
C862   C     0.79511   0.50037   0.59248   0.00000  Uiso   1.00
C863   C     0.83332   0.50039   0.88392   0.00000  Uiso   1.00
C864   C     0.91319   0.50015   0.74564   0.00000  Uiso   1.00
C865   C     0.83335   0.49961   0.61608   0.00000  Uiso   1.00
C866   C     0.79507   0.50047   0.90546   0.00000  Uiso   1.00
C867   C     0.87160   0.49953   0.59454   0.00000  Uiso   1.00
C868   C     0.79464   0.50500   0.95221   0.00000  Uiso   1.00
C869   C     0.87202   0.49500   0.54779   0.00000  Uiso   1.00
C870   C     0.83304   0.50053   0.97650   0.00000  Uiso   1.00
C871   C     0.83362   0.49946   0.52350   0.00000  Uiso   1.00
C872   C     0.87104   0.49708   0.95391   0.00000  Uiso   1.00
C873   C     0.79563   0.50291   0.54609   0.00000  Uiso   1.00
C874   C     0.75776   0.51313   0.97597   0.00000  Uiso   1.00
C875   C     0.75850   0.51021   0.52214   0.00000  Uiso   1.00
C876   C     0.90890   0.48686   0.52403   0.00000  Uiso   1.00
C877   C     0.90817   0.48978   0.97786   0.00000  Uiso   1.00
C878   C     0.68696   0.45843   0.75475   0.00000  Uiso   1.00
C879   C     0.97971   0.54157   0.74524   0.00000  Uiso   1.00
C880   C     0.97897   0.45910   0.74144   0.00000  Uiso   1.00
C881   C     0.68770   0.54090   0.75856   0.00000  Uiso   1.00
C882   C     0.95776   0.50045   0.74129   0.00000  Uiso   1.00
H883   H     0.72972   0.51584   0.53943   0.00000  Uiso   1.00
H884   H     0.93694   0.48415   0.96057   0.00000  Uiso   1.00
H885   H     0.90642   0.50423   0.85409   0.00000  Uiso   1.00
H886   H     0.76025   0.49580   0.64592   0.00000  Uiso   1.00
N887   N     0.83333   0.61907   0.75000   0.00000  Uiso   1.00
N888   N     0.83333   0.38093   0.75000   0.00000  Uiso   1.00
O889   O     0.77226   0.53821   0.74999   0.00000  Uiso   1.00
O890   O     0.75694   0.50061   0.61336   0.00000  Uiso   1.00
O891   O     0.89441   0.46179   0.75000   0.00000  Uiso   1.00
O892   O     0.89441   0.53821   0.75000   0.00000  Uiso   1.00
O893   O     0.77226   0.46179   0.74999   0.00000  Uiso   1.00
O894   O     0.83333   0.53823   0.68392   0.00000  Uiso   1.00
O895   O     0.83334   0.46177   0.81607   0.00000  Uiso   1.00
O896   O     0.83334   0.53823   0.81607   0.00000  Uiso   1.00
O897   O     0.83333   0.46177   0.68392   0.00000  Uiso   1.00
O898   O     0.90973   0.49939   0.88664   0.00000  Uiso   1.00
Zn899  Zn    0.83333   0.55104   0.75000   0.00000  Uiso   1.00
Zn900  Zn    0.83333   0.44896   0.75000   0.00000  Uiso   1.00
Br901  Br    0.07915   0.81777   0.87020   0.00000  Uiso   1.00
Br902  Br    0.10544   0.94415   0.67898   0.00000  Uiso   1.00
Br903  Br    0.10646   0.72125   0.67799   0.00000  Uiso   1.00
Br904  Br    0.22688   0.94542   0.82201   0.00000  Uiso   1.00
Br905  Br    0.25419   0.84890   0.62980   0.00000  Uiso   1.00
Br906  Br    0.04010   0.87063   0.95112   0.00000  Uiso   1.00
Br907  Br    0.29323   0.79602   0.54888   0.00000  Uiso   1.00
Br908  Br    0.04294   0.73457   0.77454   0.00000  Uiso   1.00
Br909  Br    0.29040   0.93210   0.72546   0.00000  Uiso   1.00
Br910  Br    0.28822   0.73728   0.71688   0.00000  Uiso   1.00
Br911  Br    0.04511   0.92938   0.78312   0.00000  Uiso   1.00
Br912  Br    0.22789   0.72252   0.82102   0.00000  Uiso   1.00
C913   C     0.08681   0.83318   0.75436   0.00000  Uiso   1.00
C914   C     0.04224   0.83289   0.75871   0.00000  Uiso   1.00
C915   C     0.19171   0.69085   0.77941   0.00000  Uiso   1.00
C916   C     0.14163   0.97581   0.72058   0.00000  Uiso   1.00
C917   C     0.14173   0.69033   0.72048   0.00000  Uiso   1.00
C918   C     0.19160   0.97633   0.77951   0.00000  Uiso   1.00
C919   C     0.16702   0.83327   0.66371   0.00000  Uiso   1.00
C920   C     0.16632   0.83339   0.83629   0.00000  Uiso   1.00
C921   C     0.20489   0.83296   0.90752   0.00000  Uiso   1.00
C922   C     0.12844   0.83370   0.59248   0.00000  Uiso   1.00
C923   C     0.16665   0.83373   0.88392   0.00000  Uiso   1.00
C924   C     0.24652   0.83349   0.74564   0.00000  Uiso   1.00
C925   C     0.16668   0.83294   0.61608   0.00000  Uiso   1.00
C926   C     0.12840   0.83381   0.90546   0.00000  Uiso   1.00
C927   C     0.20493   0.83286   0.59454   0.00000  Uiso   1.00
C928   C     0.12797   0.83833   0.95221   0.00000  Uiso   1.00
C929   C     0.20536   0.82833   0.54779   0.00000  Uiso   1.00
C930   C     0.16638   0.83386   0.97650   0.00000  Uiso   1.00
C931   C     0.16695   0.83280   0.52350   0.00000  Uiso   1.00
C932   C     0.20437   0.83041   0.95391   0.00000  Uiso   1.00
C933   C     0.12896   0.83624   0.54609   0.00000  Uiso   1.00
C934   C     0.09109   0.84647   0.97597   0.00000  Uiso   1.00
C935   C     0.09183   0.84355   0.52214   0.00000  Uiso   1.00
C936   C     0.24224   0.82019   0.52403   0.00000  Uiso   1.00
C937   C     0.24150   0.82311   0.97786   0.00000  Uiso   1.00
C938   C     0.02029   0.79176   0.75475   0.00000  Uiso   1.00
C939   C     0.31304   0.87490   0.74524   0.00000  Uiso   1.00
C940   C     0.31230   0.79244   0.74144   0.00000  Uiso   1.00
C941   C     0.02103   0.87423   0.75856   0.00000  Uiso   1.00
C942   C     0.29110   0.83378   0.74129   0.00000  Uiso   1.00
H943   H     0.06306   0.84917   0.53943   0.00000  Uiso   1.00
H944   H     0.27027   0.81749   0.96057   0.00000  Uiso   1.00
H945   H     0.23975   0.83756   0.85409   0.00000  Uiso   1.00
H946   H     0.09358   0.82913   0.64592   0.00000  Uiso   1.00
N947   N     0.16667   0.95240   0.75000   0.00000  Uiso   1.00
N948   N     0.16667   0.71427   0.75000   0.00000  Uiso   1.00
O949   O     0.10559   0.87154   0.74999   0.00000  Uiso   1.00
O950   O     0.09027   0.83394   0.61336   0.00000  Uiso   1.00
O951   O     0.22774   0.79513   0.75000   0.00000  Uiso   1.00
O952   O     0.22774   0.87154   0.75000   0.00000  Uiso   1.00
O953   O     0.10559   0.79513   0.74999   0.00000  Uiso   1.00
O954   O     0.16666   0.87156   0.68392   0.00000  Uiso   1.00
O955   O     0.16667   0.79511   0.81607   0.00000  Uiso   1.00
O956   O     0.16667   0.87156   0.81607   0.00000  Uiso   1.00
O957   O     0.16666   0.79511   0.68392   0.00000  Uiso   1.00
O958   O     0.24306   0.83272   0.88664   0.00000  Uiso   1.00
Zn959  Zn    0.16667   0.88437   0.75000   0.00000  Uiso   1.00
Zn960  Zn    0.16667   0.78229   0.75000   0.00000  Uiso   1.00
Br961  Br    0.41248   0.81777   0.87020   0.00000  Uiso   1.00
Br962  Br    0.43877   0.94415   0.67898   0.00000  Uiso   1.00
Br963  Br    0.43979   0.72125   0.67799   0.00000  Uiso   1.00
Br964  Br    0.56021   0.94542   0.82201   0.00000  Uiso   1.00
Br965  Br    0.58752   0.84890   0.62980   0.00000  Uiso   1.00
Br966  Br    0.37344   0.87063   0.95112   0.00000  Uiso   1.00
Br967  Br    0.62656   0.79602   0.54888   0.00000  Uiso   1.00
Br968  Br    0.37627   0.73457   0.77454   0.00000  Uiso   1.00
Br969  Br    0.62373   0.93210   0.72546   0.00000  Uiso   1.00
Br970  Br    0.62155   0.73728   0.71688   0.00000  Uiso   1.00
Br971  Br    0.37845   0.92938   0.78312   0.00000  Uiso   1.00
Br972  Br    0.56123   0.72252   0.82102   0.00000  Uiso   1.00
C973   C     0.42014   0.83318   0.75436   0.00000  Uiso   1.00
C974   C     0.37557   0.83289   0.75871   0.00000  Uiso   1.00
C975   C     0.52504   0.69085   0.77941   0.00000  Uiso   1.00
C976   C     0.47496   0.97581   0.72058   0.00000  Uiso   1.00
C977   C     0.47507   0.69033   0.72048   0.00000  Uiso   1.00
C978   C     0.52493   0.97633   0.77951   0.00000  Uiso   1.00
C979   C     0.50035   0.83327   0.66371   0.00000  Uiso   1.00
C980   C     0.49965   0.83339   0.83629   0.00000  Uiso   1.00
C981   C     0.53822   0.83296   0.90752   0.00000  Uiso   1.00
C982   C     0.46178   0.83370   0.59248   0.00000  Uiso   1.00
C983   C     0.49998   0.83373   0.88392   0.00000  Uiso   1.00
C984   C     0.57986   0.83349   0.74564   0.00000  Uiso   1.00
C985   C     0.50002   0.83294   0.61608   0.00000  Uiso   1.00
C986   C     0.46173   0.83381   0.90546   0.00000  Uiso   1.00
C987   C     0.53827   0.83286   0.59454   0.00000  Uiso   1.00
C988   C     0.46131   0.83833   0.95221   0.00000  Uiso   1.00
C989   C     0.53869   0.82833   0.54779   0.00000  Uiso   1.00
C990   C     0.49971   0.83386   0.97650   0.00000  Uiso   1.00
C991   C     0.50029   0.83280   0.52350   0.00000  Uiso   1.00
C992   C     0.53770   0.83041   0.95391   0.00000  Uiso   1.00
C993   C     0.46229   0.83624   0.54609   0.00000  Uiso   1.00
C994   C     0.42443   0.84647   0.97597   0.00000  Uiso   1.00
C995   C     0.42516   0.84355   0.52214   0.00000  Uiso   1.00
C996   C     0.57557   0.82019   0.52403   0.00000  Uiso   1.00
C997   C     0.57484   0.82311   0.97786   0.00000  Uiso   1.00
C998   C     0.35363   0.79176   0.75475   0.00000  Uiso   1.00
C999   C     0.64637   0.87490   0.74524   0.00000  Uiso   1.00
C1000  C     0.64564   0.79244   0.74144   0.00000  Uiso   1.00
C1001  C     0.35436   0.87423   0.75856   0.00000  Uiso   1.00
C1002  C     0.62443   0.83378   0.74129   0.00000  Uiso   1.00
H1003  H     0.39639   0.84917   0.53943   0.00000  Uiso   1.00
H1004  H     0.60361   0.81749   0.96057   0.00000  Uiso   1.00
H1005  H     0.57308   0.83756   0.85409   0.00000  Uiso   1.00
H1006  H     0.42692   0.82913   0.64592   0.00000  Uiso   1.00
N1007  N     0.50000   0.95240   0.75000   0.00000  Uiso   1.00
N1008  N     0.50000   0.71427   0.75000   0.00000  Uiso   1.00
O1009  O     0.43892   0.87154   0.74999   0.00000  Uiso   1.00
O1010  O     0.42361   0.83394   0.61336   0.00000  Uiso   1.00
O1011  O     0.56108   0.79513   0.75000   0.00000  Uiso   1.00
O1012  O     0.56108   0.87154   0.75000   0.00000  Uiso   1.00
O1013  O     0.43892   0.79513   0.74999   0.00000  Uiso   1.00
O1014  O     0.49999   0.87156   0.68392   0.00000  Uiso   1.00
O1015  O     0.50001   0.79511   0.81607   0.00000  Uiso   1.00
O1016  O     0.50001   0.87156   0.81607   0.00000  Uiso   1.00
O1017  O     0.49999   0.79511   0.68392   0.00000  Uiso   1.00
O1018  O     0.57639   0.83272   0.88664   0.00000  Uiso   1.00
Zn1019 Zn    0.50000   0.88437   0.75000   0.00000  Uiso   1.00
Zn1020 Zn    0.50000   0.78229   0.75000   0.00000  Uiso   1.00
Br1021 Br    0.74581   0.81777   0.87020   0.00000  Uiso   1.00
Br1022 Br    0.77211   0.94415   0.67898   0.00000  Uiso   1.00
Br1023 Br    0.77312   0.72125   0.67799   0.00000  Uiso   1.00
Br1024 Br    0.89354   0.94542   0.82201   0.00000  Uiso   1.00
Br1025 Br    0.92085   0.84890   0.62980   0.00000  Uiso   1.00
Br1026 Br    0.70677   0.87063   0.95112   0.00000  Uiso   1.00
Br1027 Br    0.95989   0.79602   0.54888   0.00000  Uiso   1.00
Br1028 Br    0.70960   0.73457   0.77454   0.00000  Uiso   1.00
Br1029 Br    0.95706   0.93210   0.72546   0.00000  Uiso   1.00
Br1030 Br    0.95489   0.73728   0.71688   0.00000  Uiso   1.00
Br1031 Br    0.71178   0.92938   0.78312   0.00000  Uiso   1.00
Br1032 Br    0.89456   0.72252   0.82102   0.00000  Uiso   1.00
C1033  C     0.75348   0.83318   0.75436   0.00000  Uiso   1.00
C1034  C     0.70890   0.83289   0.75871   0.00000  Uiso   1.00
C1035  C     0.85837   0.69085   0.77941   0.00000  Uiso   1.00
C1036  C     0.80829   0.97581   0.72058   0.00000  Uiso   1.00
C1037  C     0.80840   0.69033   0.72048   0.00000  Uiso   1.00
C1038  C     0.85827   0.97633   0.77951   0.00000  Uiso   1.00
C1039  C     0.83368   0.83327   0.66371   0.00000  Uiso   1.00
C1040  C     0.83298   0.83339   0.83629   0.00000  Uiso   1.00
C1041  C     0.87156   0.83296   0.90752   0.00000  Uiso   1.00
C1042  C     0.79511   0.83370   0.59248   0.00000  Uiso   1.00
C1043  C     0.83332   0.83373   0.88392   0.00000  Uiso   1.00
C1044  C     0.91319   0.83349   0.74564   0.00000  Uiso   1.00
C1045  C     0.83335   0.83294   0.61608   0.00000  Uiso   1.00
C1046  C     0.79507   0.83381   0.90546   0.00000  Uiso   1.00
C1047  C     0.87160   0.83286   0.59454   0.00000  Uiso   1.00
C1048  C     0.79464   0.83833   0.95221   0.00000  Uiso   1.00
C1049  C     0.87202   0.82833   0.54779   0.00000  Uiso   1.00
C1050  C     0.83304   0.83386   0.97650   0.00000  Uiso   1.00
C1051  C     0.83362   0.83280   0.52350   0.00000  Uiso   1.00
C1052  C     0.87104   0.83041   0.95391   0.00000  Uiso   1.00
C1053  C     0.79563   0.83624   0.54609   0.00000  Uiso   1.00
C1054  C     0.75776   0.84647   0.97597   0.00000  Uiso   1.00
C1055  C     0.75850   0.84355   0.52214   0.00000  Uiso   1.00
C1056  C     0.90890   0.82019   0.52403   0.00000  Uiso   1.00
C1057  C     0.90817   0.82311   0.97786   0.00000  Uiso   1.00
C1058  C     0.68696   0.79176   0.75475   0.00000  Uiso   1.00
C1059  C     0.97971   0.87490   0.74524   0.00000  Uiso   1.00
C1060  C     0.97897   0.79244   0.74144   0.00000  Uiso   1.00
C1061  C     0.68770   0.87423   0.75856   0.00000  Uiso   1.00
C1062  C     0.95776   0.83378   0.74129   0.00000  Uiso   1.00
H1063  H     0.72972   0.84917   0.53943   0.00000  Uiso   1.00
H1064  H     0.93694   0.81749   0.96057   0.00000  Uiso   1.00
H1065  H     0.90642   0.83756   0.85409   0.00000  Uiso   1.00
H1066  H     0.76025   0.82913   0.64592   0.00000  Uiso   1.00
N1067  N     0.83333   0.95240   0.75000   0.00000  Uiso   1.00
N1068  N     0.83333   0.71427   0.75000   0.00000  Uiso   1.00
O1069  O     0.77226   0.87154   0.74999   0.00000  Uiso   1.00
O1070  O     0.75694   0.83394   0.61336   0.00000  Uiso   1.00
O1071  O     0.89441   0.79513   0.75000   0.00000  Uiso   1.00
O1072  O     0.89441   0.87154   0.75000   0.00000  Uiso   1.00
O1073  O     0.77226   0.79513   0.74999   0.00000  Uiso   1.00
O1074  O     0.83333   0.87156   0.68392   0.00000  Uiso   1.00
O1075  O     0.83334   0.79511   0.81607   0.00000  Uiso   1.00
O1076  O     0.83334   0.87156   0.81607   0.00000  Uiso   1.00
O1077  O     0.83333   0.79511   0.68392   0.00000  Uiso   1.00
O1078  O     0.90973   0.83272   0.88664   0.00000  Uiso   1.00
Zn1079 Zn    0.83333   0.88437   0.75000   0.00000  Uiso   1.00
Zn1080 Zn    0.83333   0.78229   0.75000   0.00000  Uiso   1.00
loop_
_geom_bond_atom_site_label_1
_geom_bond_atom_site_label_2
_geom_bond_distance
_geom_bond_site_symmetry_2
_ccdc_geom_bond_type
Br1    C26     1.938   .     S
Br2    C16     1.923   .     S
Br3    C17     1.923   .     S
Br4    C18     1.923   .     S
Br5    C27     1.938   .     S
Br6    C34     1.928   .     S
Br7    C36     1.928   .     S
Br8    C38     1.941   .     S
Br9    C39     1.941   .     S
Br10   C40     1.942   .     S
Br11   C41     1.942   .     S
Br12   C15     1.923   .     S
C13    C14     1.442   .     S
C13    O49     1.294   .     A
C13    O53     1.292   .     A
C14    C41     1.408   .     A
C14    C38     1.409   .     A
C15    N48     1.372   .     A
C15    C378    1.421   1_545 S
C16    N47     1.372   .     A
C16    C197    1.421   .     S
C17    N48     1.372   .     A
C17    C376    1.421   1_545 S
C18    N47     1.372   .     A
C18    C195    1.421   .     S
C19    O57     1.286   .     A
C19    O54     1.287   .     A
C19    C25     1.424   .     S
C20    O56     1.286   .     A
C20    O55     1.287   .     A
C20    C23     1.424   .     S
C21    O58     1.389   .     S
C21    C23     1.404   .     A
C21    C32     1.390   .     A
C22    O50     1.389   .     S
C22    C33     1.390   .     A
C22    C25     1.404   .     A
C23    C26     1.401   .     A
C24    O52     1.292   .     A
C24    C42     1.442   .     S
C24    O51     1.294   .     A
C25    C27     1.401   .     A
C26    C28     1.404   .     A
C27    C29     1.404   .     A
C28    C34     1.418   .     A
C28    C30     1.425   .     A
C29    C36     1.418   .     A
C29    C31     1.425   .     A
C30    C32     1.413   .     A
C30    C571    1.405   .     S
C31    C33     1.413   .     A
C31    C570    1.405   1_554 S
C32    C37     1.396   .     A
C33    C35     1.397   .     A
C34    C575    1.383   .     S
C35    H43     1.084   .     S
C35    C574    1.383   1_554 S
C36    C577    1.383   1_554 S
C37    H44     1.084   .     S
C37    C576    1.383   .     S
C38    C160    1.378   1_455 S
C39    C42     1.409   .     A
C39    C101    1.378   .     S
C40    C42     1.408   .     A
C40    C98     1.378   .     S
C41    C159    1.378   1_455 S
H45    O58     0.988   .     S
H46    O50     0.988   .     S
N47    Zn59    2.020   .     S
N48    Zn60    2.020   .     S
O49    Zn59    1.997   .     S
O51    Zn60    1.997   .     S
O52    Zn59    2.003   .     S
O53    Zn60    2.003   .     S
O54    Zn59    2.011   .     S
O55    Zn60    2.011   .     S
O56    Zn59    2.013   .     S
O57    Zn60    2.013   .     S
Br61   C86     1.938   .     S
Br62   C76     1.923   .     S
Br63   C77     1.923   .     S
Br64   C78     1.923   .     S
Br65   C87     1.938   .     S
Br66   C94     1.928   .     S
Br67   C96     1.928   .     S
Br68   C98     1.941   .     S
Br69   C99     1.941   .     S
Br70   C100    1.942   .     S
Br71   C101    1.942   .     S
Br72   C75     1.923   .     S
C73    C74     1.442   .     S
C73    O109    1.294   .     A
C73    O113    1.292   .     A
C74    C101    1.408   .     A
C74    C98     1.409   .     A
C75    N108    1.372   .     A
C75    C438    1.421   1_545 S
C76    N107    1.372   .     A
C76    C257    1.421   .     S
C77    N108    1.372   .     A
C77    C436    1.421   1_545 S
C78    N107    1.372   .     A
C78    C255    1.421   .     S
C79    O117    1.286   .     A
C79    O114    1.287   .     A
C79    C85     1.424   .     S
C80    O116    1.286   .     A
C80    O115    1.287   .     A
C80    C83     1.424   .     S
C81    O118    1.389   .     S
C81    C83     1.404   .     A
C81    C92     1.390   .     A
C82    O110    1.389   .     S
C82    C93     1.390   .     A
C82    C85     1.404   .     A
C83    C86     1.401   .     A
C84    O112    1.292   .     A
C84    C102    1.442   .     S
C84    O111    1.294   .     A
C85    C87     1.401   .     A
C86    C88     1.404   .     A
C87    C89     1.404   .     A
C88    C94     1.418   .     A
C88    C90     1.425   .     A
C89    C96     1.418   .     A
C89    C91     1.425   .     A
C90    C92     1.413   .     A
C90    C631    1.405   .     S
C91    C93     1.413   .     A
C91    C630    1.405   1_554 S
C92    C97     1.396   .     A
C93    C95     1.397   .     A
C94    C635    1.383   .     S
C95    H103    1.084   .     S
C95    C634    1.383   1_554 S
C96    C637    1.383   1_554 S
C97    H104    1.084   .     S
C97    C636    1.383   .     S
C99    C102    1.409   .     A
C99    C161    1.378   .     S
C100   C102    1.408   .     A
C100   C158    1.378   .     S
H105   O118    0.988   .     S
H106   O110    0.988   .     S
N107   Zn119   2.020   .     S
N108   Zn120   2.020   .     S
O109   Zn119   1.997   .     S
O111   Zn120   1.997   .     S
O112   Zn119   2.003   .     S
O113   Zn120   2.003   .     S
O114   Zn119   2.011   .     S
O115   Zn120   2.011   .     S
O116   Zn119   2.013   .     S
O117   Zn120   2.013   .     S
Br121  C146    1.938   .     S
Br122  C136    1.923   .     S
Br123  C137    1.923   .     S
Br124  C138    1.923   .     S
Br125  C147    1.938   .     S
Br126  C154    1.928   .     S
Br127  C156    1.928   .     S
Br128  C158    1.941   .     S
Br129  C159    1.941   .     S
Br130  C160    1.942   .     S
Br131  C161    1.942   .     S
Br132  C135    1.923   .     S
C133   C134    1.442   .     S
C133   O169    1.294   .     A
C133   O173    1.292   .     A
C134   C161    1.408   .     A
C134   C158    1.409   .     A
C135   N168    1.372   .     A
C135   C498    1.421   1_545 S
C136   N167    1.372   .     A
C136   C317    1.421   .     S
C137   N168    1.372   .     A
C137   C496    1.421   1_545 S
C138   N167    1.372   .     A
C138   C315    1.421   .     S
C139   O177    1.286   .     A
C139   O174    1.287   .     A
C139   C145    1.424   .     S
C140   O176    1.286   .     A
C140   O175    1.287   .     A
C140   C143    1.424   .     S
C141   O178    1.389   .     S
C141   C143    1.404   .     A
C141   C152    1.390   .     A
C142   O170    1.389   .     S
C142   C153    1.390   .     A
C142   C145    1.404   .     A
C143   C146    1.401   .     A
C144   O172    1.292   .     A
C144   C162    1.442   .     S
C144   O171    1.294   .     A
C145   C147    1.401   .     A
C146   C148    1.404   .     A
C147   C149    1.404   .     A
C148   C154    1.418   .     A
C148   C150    1.425   .     A
C149   C156    1.418   .     A
C149   C151    1.425   .     A
C150   C152    1.413   .     A
C150   C691    1.405   .     S
C151   C153    1.413   .     A
C151   C690    1.405   1_554 S
C152   C157    1.396   .     A
C153   C155    1.397   .     A
C154   C695    1.383   .     S
C155   H163    1.084   .     S
C155   C694    1.383   1_554 S
C156   C697    1.383   1_554 S
C157   H164    1.084   .     S
C157   C696    1.383   .     S
C159   C162    1.409   .     A
C159   C41     1.378   1_655 S
C160   C162    1.408   .     A
C160   C38     1.378   1_655 S
H165   O178    0.988   .     S
H166   O170    0.988   .     S
N167   Zn179   2.020   .     S
N168   Zn180   2.020   .     S
O169   Zn179   1.997   .     S
O171   Zn180   1.997   .     S
O172   Zn179   2.003   .     S
O173   Zn180   2.003   .     S
O174   Zn179   2.011   .     S
O175   Zn180   2.011   .     S
O176   Zn179   2.013   .     S
O177   Zn180   2.013   .     S
Br181  C206    1.938   .     S
Br182  C196    1.923   .     S
Br183  C197    1.923   .     S
Br184  C198    1.923   .     S
Br185  C207    1.938   .     S
Br186  C214    1.928   .     S
Br187  C216    1.928   .     S
Br188  C218    1.941   .     S
Br189  C219    1.941   .     S
Br190  C220    1.942   .     S
Br191  C221    1.942   .     S
Br192  C195    1.923   .     S
C193   C194    1.442   .     S
C193   O229    1.294   .     A
C193   O233    1.292   .     A
C194   C221    1.408   .     A
C194   C218    1.409   .     A
C195   N228    1.372   .     A
C196   N227    1.372   .     A
C196   C377    1.421   .     S
C197   N228    1.372   .     A
C198   N227    1.372   .     A
C198   C375    1.421   .     S
C199   O237    1.286   .     A
C199   O234    1.287   .     A
C199   C205    1.424   .     S
C200   O236    1.286   .     A
C200   O235    1.287   .     A
C200   C203    1.424   .     S
C201   O238    1.389   .     S
C201   C203    1.404   .     A
C201   C212    1.390   .     A
C202   O230    1.389   .     S
C202   C213    1.390   .     A
C202   C205    1.404   .     A
C203   C206    1.401   .     A
C204   O232    1.292   .     A
C204   C222    1.442   .     S
C204   O231    1.294   .     A
C205   C207    1.401   .     A
C206   C208    1.404   .     A
C207   C209    1.404   .     A
C208   C214    1.418   .     A
C208   C210    1.425   .     A
C209   C216    1.418   .     A
C209   C211    1.425   .     A
C210   C212    1.413   .     A
C210   C751    1.405   .     S
C211   C213    1.413   .     A
C211   C750    1.405   1_554 S
C212   C217    1.396   .     A
C213   C215    1.397   .     A
C214   C755    1.383   .     S
C215   H223    1.084   .     S
C215   C754    1.383   1_554 S
C216   C757    1.383   1_554 S
C217   H224    1.084   .     S
C217   C756    1.383   .     S
C218   C340    1.378   1_455 S
C219   C222    1.409   .     A
C219   C281    1.378   .     S
C220   C222    1.408   .     A
C220   C278    1.378   .     S
C221   C339    1.378   1_455 S
H225   O238    0.988   .     S
H226   O230    0.988   .     S
N227   Zn239   2.020   .     S
N228   Zn240   2.020   .     S
O229   Zn239   1.997   .     S
O231   Zn240   1.997   .     S
O232   Zn239   2.003   .     S
O233   Zn240   2.003   .     S
O234   Zn239   2.011   .     S
O235   Zn240   2.011   .     S
O236   Zn239   2.013   .     S
O237   Zn240   2.013   .     S
Br241  C266    1.938   .     S
Br242  C256    1.923   .     S
Br243  C257    1.923   .     S
Br244  C258    1.923   .     S
Br245  C267    1.938   .     S
Br246  C274    1.928   .     S
Br247  C276    1.928   .     S
Br248  C278    1.941   .     S
Br249  C279    1.941   .     S
Br250  C280    1.942   .     S
Br251  C281    1.942   .     S
Br252  C255    1.923   .     S
C253   C254    1.442   .     S
C253   O289    1.294   .     A
C253   O293    1.292   .     A
C254   C281    1.408   .     A
C254   C278    1.409   .     A
C255   N288    1.372   .     A
C256   N287    1.372   .     A
C256   C437    1.421   .     S
C257   N288    1.372   .     A
C258   N287    1.372   .     A
C258   C435    1.421   .     S
C259   O297    1.286   .     A
C259   O294    1.287   .     A
C259   C265    1.424   .     S
C260   O296    1.286   .     A
C260   O295    1.287   .     A
C260   C263    1.424   .     S
C261   O298    1.389   .     S
C261   C263    1.404   .     A
C261   C272    1.390   .     A
C262   O290    1.389   .     S
C262   C273    1.390   .     A
C262   C265    1.404   .     A
C263   C266    1.401   .     A
C264   O292    1.292   .     A
C264   C282    1.442   .     S
C264   O291    1.294   .     A
C265   C267    1.401   .     A
C266   C268    1.404   .     A
C267   C269    1.404   .     A
C268   C274    1.418   .     A
C268   C270    1.425   .     A
C269   C276    1.418   .     A
C269   C271    1.425   .     A
C270   C272    1.413   .     A
C270   C811    1.405   .     S
C271   C273    1.413   .     A
C271   C810    1.405   1_554 S
C272   C277    1.396   .     A
C273   C275    1.397   .     A
C274   C815    1.383   .     S
C275   H283    1.084   .     S
C275   C814    1.383   1_554 S
C276   C817    1.383   1_554 S
C277   H284    1.084   .     S
C277   C816    1.383   .     S
C279   C282    1.409   .     A
C279   C341    1.378   .     S
C280   C282    1.408   .     A
C280   C338    1.378   .     S
H285   O298    0.988   .     S
H286   O290    0.988   .     S
N287   Zn299   2.020   .     S
N288   Zn300   2.020   .     S
O289   Zn299   1.997   .     S
O291   Zn300   1.997   .     S
O292   Zn299   2.003   .     S
O293   Zn300   2.003   .     S
O294   Zn299   2.011   .     S
O295   Zn300   2.011   .     S
O296   Zn299   2.013   .     S
O297   Zn300   2.013   .     S
Br301  C326    1.938   .     S
Br302  C316    1.923   .     S
Br303  C317    1.923   .     S
Br304  C318    1.923   .     S
Br305  C327    1.938   .     S
Br306  C334    1.928   .     S
Br307  C336    1.928   .     S
Br308  C338    1.941   .     S
Br309  C339    1.941   .     S
Br310  C340    1.942   .     S
Br311  C341    1.942   .     S
Br312  C315    1.923   .     S
C313   C314    1.442   .     S
C313   O349    1.294   .     A
C313   O353    1.292   .     A
C314   C341    1.408   .     A
C314   C338    1.409   .     A
C315   N348    1.372   .     A
C316   N347    1.372   .     A
C316   C497    1.421   .     S
C317   N348    1.372   .     A
C318   N347    1.372   .     A
C318   C495    1.421   .     S
C319   O357    1.286   .     A
C319   O354    1.287   .     A
C319   C325    1.424   .     S
C320   O356    1.286   .     A
C320   O355    1.287   .     A
C320   C323    1.424   .     S
C321   O358    1.389   .     S
C321   C323    1.404   .     A
C321   C332    1.390   .     A
C322   O350    1.389   .     S
C322   C333    1.390   .     A
C322   C325    1.404   .     A
C323   C326    1.401   .     A
C324   O352    1.292   .     A
C324   C342    1.442   .     S
C324   O351    1.294   .     A
C325   C327    1.401   .     A
C326   C328    1.404   .     A
C327   C329    1.404   .     A
C328   C334    1.418   .     A
C328   C330    1.425   .     A
C329   C336    1.418   .     A
C329   C331    1.425   .     A
C330   C332    1.413   .     A
C330   C871    1.405   .     S
C331   C333    1.413   .     A
C331   C870    1.405   1_554 S
C332   C337    1.396   .     A
C333   C335    1.397   .     A
C334   C875    1.383   .     S
C335   H343    1.084   .     S
C335   C874    1.383   1_554 S
C336   C877    1.383   1_554 S
C337   H344    1.084   .     S
C337   C876    1.383   .     S
C339   C342    1.409   .     A
C339   C221    1.378   1_655 S
C340   C342    1.408   .     A
C340   C218    1.378   1_655 S
H345   O358    0.988   .     S
H346   O350    0.988   .     S
N347   Zn359   2.020   .     S
N348   Zn360   2.020   .     S
O349   Zn359   1.997   .     S
O351   Zn360   1.997   .     S
O352   Zn359   2.003   .     S
O353   Zn360   2.003   .     S
O354   Zn359   2.011   .     S
O355   Zn360   2.011   .     S
O356   Zn359   2.013   .     S
O357   Zn360   2.013   .     S
Br361  C386    1.938   .     S
Br362  C376    1.923   .     S
Br363  C377    1.923   .     S
Br364  C378    1.923   .     S
Br365  C387    1.938   .     S
Br366  C394    1.928   .     S
Br367  C396    1.928   .     S
Br368  C398    1.941   .     S
Br369  C399    1.941   .     S
Br370  C400    1.942   .     S
Br371  C401    1.942   .     S
Br372  C375    1.923   .     S
C373   C374    1.442   .     S
C373   O409    1.294   .     A
C373   O413    1.292   .     A
C374   C401    1.408   .     A
C374   C398    1.409   .     A
C375   N408    1.372   .     A
C376   N407    1.372   .     A
C376   C17     1.421   1_565 S
C377   N408    1.372   .     A
C378   N407    1.372   .     A
C378   C15     1.421   1_565 S
C379   O417    1.286   .     A
C379   O414    1.287   .     A
C379   C385    1.424   .     S
C380   O416    1.286   .     A
C380   O415    1.287   .     A
C380   C383    1.424   .     S
C381   O418    1.389   .     S
C381   C383    1.404   .     A
C381   C392    1.390   .     A
C382   O410    1.389   .     S
C382   C393    1.390   .     A
C382   C385    1.404   .     A
C383   C386    1.401   .     A
C384   O412    1.292   .     A
C384   C402    1.442   .     S
C384   O411    1.294   .     A
C385   C387    1.401   .     A
C386   C388    1.404   .     A
C387   C389    1.404   .     A
C388   C394    1.418   .     A
C388   C390    1.425   .     A
C389   C396    1.418   .     A
C389   C391    1.425   .     A
C390   C392    1.413   .     A
C390   C931    1.405   .     S
C391   C393    1.413   .     A
C391   C930    1.405   1_554 S
C392   C397    1.396   .     A
C393   C395    1.397   .     A
C394   C935    1.383   .     S
C395   H403    1.084   .     S
C395   C934    1.383   1_554 S
C396   C937    1.383   1_554 S
C397   H404    1.084   .     S
C397   C936    1.383   .     S
C398   C520    1.378   1_455 S
C399   C402    1.409   .     A
C399   C461    1.378   .     S
C400   C402    1.408   .     A
C400   C458    1.378   .     S
C401   C519    1.378   1_455 S
H405   O418    0.988   .     S
H406   O410    0.988   .     S
N407   Zn419   2.020   .     S
N408   Zn420   2.020   .     S
O409   Zn419   1.997   .     S
O411   Zn420   1.997   .     S
O412   Zn419   2.003   .     S
O413   Zn420   2.003   .     S
O414   Zn419   2.011   .     S
O415   Zn420   2.011   .     S
O416   Zn419   2.013   .     S
O417   Zn420   2.013   .     S
Br421  C446    1.938   .     S
Br422  C436    1.923   .     S
Br423  C437    1.923   .     S
Br424  C438    1.923   .     S
Br425  C447    1.938   .     S
Br426  C454    1.928   .     S
Br427  C456    1.928   .     S
Br428  C458    1.941   .     S
Br429  C459    1.941   .     S
Br430  C460    1.942   .     S
Br431  C461    1.942   .     S
Br432  C435    1.923   .     S
C433   C434    1.442   .     S
C433   O469    1.294   .     A
C433   O473    1.292   .     A
C434   C461    1.408   .     A
C434   C458    1.409   .     A
C435   N468    1.372   .     A
C436   N467    1.372   .     A
C436   C77     1.421   1_565 S
C437   N468    1.372   .     A
C438   N467    1.372   .     A
C438   C75     1.421   1_565 S
C439   O477    1.286   .     A
C439   O474    1.287   .     A
C439   C445    1.424   .     S
C440   O476    1.286   .     A
C440   O475    1.287   .     A
C440   C443    1.424   .     S
C441   O478    1.389   .     S
C441   C443    1.404   .     A
C441   C452    1.390   .     A
C442   O470    1.389   .     S
C442   C453    1.390   .     A
C442   C445    1.404   .     A
C443   C446    1.401   .     A
C444   O472    1.292   .     A
C444   C462    1.442   .     S
C444   O471    1.294   .     A
C445   C447    1.401   .     A
C446   C448    1.404   .     A
C447   C449    1.404   .     A
C448   C454    1.418   .     A
C448   C450    1.425   .     A
C449   C456    1.418   .     A
C449   C451    1.425   .     A
C450   C452    1.413   .     A
C450   C991    1.405   .     S
C451   C453    1.413   .     A
C451   C990    1.405   1_554 S
C452   C457    1.396   .     A
C453   C455    1.397   .     A
C454   C995    1.383   .     S
C455   H463    1.084   .     S
C455   C994    1.383   1_554 S
C456   C997    1.383   1_554 S
C457   H464    1.084   .     S
C457   C996    1.383   .     S
C459   C462    1.409   .     A
C459   C521    1.378   .     S
C460   C462    1.408   .     A
C460   C518    1.378   .     S
H465   O478    0.988   .     S
H466   O470    0.988   .     S
N467   Zn479   2.020   .     S
N468   Zn480   2.020   .     S
O469   Zn479   1.997   .     S
O471   Zn480   1.997   .     S
O472   Zn479   2.003   .     S
O473   Zn480   2.003   .     S
O474   Zn479   2.011   .     S
O475   Zn480   2.011   .     S
O476   Zn479   2.013   .     S
O477   Zn480   2.013   .     S
Br481  C506    1.938   .     S
Br482  C496    1.923   .     S
Br483  C497    1.923   .     S
Br484  C498    1.923   .     S
Br485  C507    1.938   .     S
Br486  C514    1.928   .     S
Br487  C516    1.928   .     S
Br488  C518    1.941   .     S
Br489  C519    1.941   .     S
Br490  C520    1.942   .     S
Br491  C521    1.942   .     S
Br492  C495    1.923   .     S
C493   C494    1.442   .     S
C493   O529    1.294   .     A
C493   O533    1.292   .     A
C494   C521    1.408   .     A
C494   C518    1.409   .     A
C495   N528    1.372   .     A
C496   N527    1.372   .     A
C496   C137    1.421   1_565 S
C497   N528    1.372   .     A
C498   N527    1.372   .     A
C498   C135    1.421   1_565 S
C499   O537    1.286   .     A
C499   O534    1.287   .     A
C499   C505    1.424   .     S
C500   O536    1.286   .     A
C500   O535    1.287   .     A
C500   C503    1.424   .     S
C501   O538    1.389   .     S
C501   C503    1.404   .     A
C501   C512    1.390   .     A
C502   O530    1.389   .     S
C502   C513    1.390   .     A
C502   C505    1.404   .     A
C503   C506    1.401   .     A
C504   O532    1.292   .     A
C504   C522    1.442   .     S
C504   O531    1.294   .     A
C505   C507    1.401   .     A
C506   C508    1.404   .     A
C507   C509    1.404   .     A
C508   C514    1.418   .     A
C508   C510    1.425   .     A
C509   C516    1.418   .     A
C509   C511    1.425   .     A
C510   C512    1.413   .     A
C510   C1051   1.405   .     S
C511   C513    1.413   .     A
C511   C1050   1.405   1_554 S
C512   C517    1.396   .     A
C513   C515    1.397   .     A
C514   C1055   1.383   .     S
C515   H523    1.084   .     S
C515   C1054   1.383   1_554 S
C516   C1057   1.383   1_554 S
C517   H524    1.084   .     S
C517   C1056   1.383   .     S
C519   C522    1.409   .     A
C519   C401    1.378   1_655 S
C520   C522    1.408   .     A
C520   C398    1.378   1_655 S
H525   O538    0.988   .     S
H526   O530    0.988   .     S
N527   Zn539   2.020   .     S
N528   Zn540   2.020   .     S
O529   Zn539   1.997   .     S
O531   Zn540   1.997   .     S
O532   Zn539   2.003   .     S
O533   Zn540   2.003   .     S
O534   Zn539   2.011   .     S
O535   Zn540   2.011   .     S
O536   Zn539   2.013   .     S
O537   Zn540   2.013   .     S
Br541  C566    1.938   .     S
Br542  C556    1.923   .     S
Br543  C557    1.923   .     S
Br544  C558    1.923   .     S
Br545  C567    1.938   .     S
Br546  C574    1.928   .     S
Br547  C576    1.928   .     S
Br548  C578    1.941   .     S
Br549  C579    1.941   .     S
Br550  C580    1.942   .     S
Br551  C581    1.942   .     S
Br552  C555    1.923   .     S
C553   C554    1.442   .     S
C553   O589    1.294   .     A
C553   O593    1.292   .     A
C554   C581    1.408   .     A
C554   C578    1.409   .     A
C555   N588    1.372   .     A
C555   C918    1.421   1_545 S
C556   N587    1.372   .     A
C556   C737    1.421   .     S
C557   N588    1.372   .     A
C557   C916    1.421   1_545 S
C558   N587    1.372   .     A
C558   C735    1.421   .     S
C559   O597    1.286   .     A
C559   O594    1.287   .     A
C559   C565    1.424   .     S
C560   O596    1.286   .     A
C560   O595    1.287   .     A
C560   C563    1.424   .     S
C561   O598    1.389   .     S
C561   C563    1.404   .     A
C561   C572    1.390   .     A
C562   O590    1.389   .     S
C562   C573    1.390   .     A
C562   C565    1.404   .     A
C563   C566    1.401   .     A
C564   O592    1.292   .     A
C564   C582    1.442   .     S
C564   O591    1.294   .     A
C565   C567    1.401   .     A
C566   C568    1.404   .     A
C567   C569    1.404   .     A
C568   C574    1.418   .     A
C568   C570    1.425   .     A
C569   C576    1.418   .     A
C569   C571    1.425   .     A
C570   C572    1.413   .     A
C570   C31     1.405   1_556 S
C571   C573    1.413   .     A
C572   C577    1.396   .     A
C573   C575    1.397   .     A
C574   C35     1.383   1_556 S
C575   H583    1.084   .     S
C577   H584    1.084   .     S
C577   C36     1.383   1_556 S
C578   C700    1.378   1_455 S
C579   C582    1.409   .     A
C579   C641    1.378   .     S
C580   C582    1.408   .     A
C580   C638    1.378   .     S
C581   C699    1.378   1_455 S
H585   O598    0.988   .     S
H586   O590    0.988   .     S
N587   Zn599   2.020   .     S
N588   Zn600   2.020   .     S
O589   Zn599   1.997   .     S
O591   Zn600   1.997   .     S
O592   Zn599   2.003   .     S
O593   Zn600   2.003   .     S
O594   Zn599   2.011   .     S
O595   Zn600   2.011   .     S
O596   Zn599   2.013   .     S
O597   Zn600   2.013   .     S
Br601  C626    1.938   .     S
Br602  C616    1.923   .     S
Br603  C617    1.923   .     S
Br604  C618    1.923   .     S
Br605  C627    1.938   .     S
Br606  C634    1.928   .     S
Br607  C636    1.928   .     S
Br608  C638    1.941   .     S
Br609  C639    1.941   .     S
Br610  C640    1.942   .     S
Br611  C641    1.942   .     S
Br612  C615    1.923   .     S
C613   C614    1.442   .     S
C613   O649    1.294   .     A
C613   O653    1.292   .     A
C614   C641    1.408   .     A
C614   C638    1.409   .     A
C615   N648    1.372   .     A
C615   C978    1.421   1_545 S
C616   N647    1.372   .     A
C616   C797    1.421   .     S
C617   N648    1.372   .     A
C617   C976    1.421   1_545 S
C618   N647    1.372   .     A
C618   C795    1.421   .     S
C619   O657    1.286   .     A
C619   O654    1.287   .     A
C619   C625    1.424   .     S
C620   O656    1.286   .     A
C620   O655    1.287   .     A
C620   C623    1.424   .     S
C621   O658    1.389   .     S
C621   C623    1.404   .     A
C621   C632    1.390   .     A
C622   O650    1.389   .     S
C622   C633    1.390   .     A
C622   C625    1.404   .     A
C623   C626    1.401   .     A
C624   O652    1.292   .     A
C624   C642    1.442   .     S
C624   O651    1.294   .     A
C625   C627    1.401   .     A
C626   C628    1.404   .     A
C627   C629    1.404   .     A
C628   C634    1.418   .     A
C628   C630    1.425   .     A
C629   C636    1.418   .     A
C629   C631    1.425   .     A
C630   C632    1.413   .     A
C630   C91     1.405   1_556 S
C631   C633    1.413   .     A
C632   C637    1.396   .     A
C633   C635    1.397   .     A
C634   C95     1.383   1_556 S
C635   H643    1.084   .     S
C637   H644    1.084   .     S
C637   C96     1.383   1_556 S
C639   C642    1.409   .     A
C639   C701    1.378   .     S
C640   C642    1.408   .     A
C640   C698    1.378   .     S
H645   O658    0.988   .     S
H646   O650    0.988   .     S
N647   Zn659   2.020   .     S
N648   Zn660   2.020   .     S
O649   Zn659   1.997   .     S
O651   Zn660   1.997   .     S
O652   Zn659   2.003   .     S
O653   Zn660   2.003   .     S
O654   Zn659   2.011   .     S
O655   Zn660   2.011   .     S
O656   Zn659   2.013   .     S
O657   Zn660   2.013   .     S
Br661  C686    1.938   .     S
Br662  C676    1.923   .     S
Br663  C677    1.923   .     S
Br664  C678    1.923   .     S
Br665  C687    1.938   .     S
Br666  C694    1.928   .     S
Br667  C696    1.928   .     S
Br668  C698    1.941   .     S
Br669  C699    1.941   .     S
Br670  C700    1.942   .     S
Br671  C701    1.942   .     S
Br672  C675    1.923   .     S
C673   C674    1.442   .     S
C673   O709    1.294   .     A
C673   O713    1.292   .     A
C674   C701    1.408   .     A
C674   C698    1.409   .     A
C675   N708    1.372   .     A
C675   C1038   1.421   1_545 S
C676   N707    1.372   .     A
C676   C857    1.421   .     S
C677   N708    1.372   .     A
C677   C1036   1.421   1_545 S
C678   N707    1.372   .     A
C678   C855    1.421   .     S
C679   O717    1.286   .     A
C679   O714    1.287   .     A
C679   C685    1.424   .     S
C680   O716    1.286   .     A
C680   O715    1.287   .     A
C680   C683    1.424   .     S
C681   O718    1.389   .     S
C681   C683    1.404   .     A
C681   C692    1.390   .     A
C682   O710    1.389   .     S
C682   C693    1.390   .     A
C682   C685    1.404   .     A
C683   C686    1.401   .     A
C684   O712    1.292   .     A
C684   C702    1.442   .     S
C684   O711    1.294   .     A
C685   C687    1.401   .     A
C686   C688    1.404   .     A
C687   C689    1.404   .     A
C688   C694    1.418   .     A
C688   C690    1.425   .     A
C689   C696    1.418   .     A
C689   C691    1.425   .     A
C690   C692    1.413   .     A
C690   C151    1.405   1_556 S
C691   C693    1.413   .     A
C692   C697    1.396   .     A
C693   C695    1.397   .     A
C694   C155    1.383   1_556 S
C695   H703    1.084   .     S
C697   H704    1.084   .     S
C697   C156    1.383   1_556 S
C699   C702    1.409   .     A
C699   C581    1.378   1_655 S
C700   C702    1.408   .     A
C700   C578    1.378   1_655 S
H705   O718    0.988   .     S
H706   O710    0.988   .     S
N707   Zn719   2.020   .     S
N708   Zn720   2.020   .     S
O709   Zn719   1.997   .     S
O711   Zn720   1.997   .     S
O712   Zn719   2.003   .     S
O713   Zn720   2.003   .     S
O714   Zn719   2.011   .     S
O715   Zn720   2.011   .     S
O716   Zn719   2.013   .     S
O717   Zn720   2.013   .     S
Br721  C746    1.938   .     S
Br722  C736    1.923   .     S
Br723  C737    1.923   .     S
Br724  C738    1.923   .     S
Br725  C747    1.938   .     S
Br726  C754    1.928   .     S
Br727  C756    1.928   .     S
Br728  C758    1.941   .     S
Br729  C759    1.941   .     S
Br730  C760    1.942   .     S
Br731  C761    1.942   .     S
Br732  C735    1.923   .     S
C733   C734    1.442   .     S
C733   O769    1.294   .     A
C733   O773    1.292   .     A
C734   C761    1.408   .     A
C734   C758    1.409   .     A
C735   N768    1.372   .     A
C736   N767    1.372   .     A
C736   C917    1.421   .     S
C737   N768    1.372   .     A
C738   N767    1.372   .     A
C738   C915    1.421   .     S
C739   O777    1.286   .     A
C739   O774    1.287   .     A
C739   C745    1.424   .     S
C740   O776    1.286   .     A
C740   O775    1.287   .     A
C740   C743    1.424   .     S
C741   O778    1.389   .     S
C741   C743    1.404   .     A
C741   C752    1.390   .     A
C742   O770    1.389   .     S
C742   C753    1.390   .     A
C742   C745    1.404   .     A
C743   C746    1.401   .     A
C744   O772    1.292   .     A
C744   C762    1.442   .     S
C744   O771    1.294   .     A
C745   C747    1.401   .     A
C746   C748    1.404   .     A
C747   C749    1.404   .     A
C748   C754    1.418   .     A
C748   C750    1.425   .     A
C749   C756    1.418   .     A
C749   C751    1.425   .     A
C750   C752    1.413   .     A
C750   C211    1.405   1_556 S
C751   C753    1.413   .     A
C752   C757    1.396   .     A
C753   C755    1.397   .     A
C754   C215    1.383   1_556 S
C755   H763    1.084   .     S
C757   H764    1.084   .     S
C757   C216    1.383   1_556 S
C758   C880    1.378   1_455 S
C759   C762    1.409   .     A
C759   C821    1.378   .     S
C760   C762    1.408   .     A
C760   C818    1.378   .     S
C761   C879    1.378   1_455 S
H765   O778    0.988   .     S
H766   O770    0.988   .     S
N767   Zn779   2.020   .     S
N768   Zn780   2.020   .     S
O769   Zn779   1.997   .     S
O771   Zn780   1.997   .     S
O772   Zn779   2.003   .     S
O773   Zn780   2.003   .     S
O774   Zn779   2.011   .     S
O775   Zn780   2.011   .     S
O776   Zn779   2.013   .     S
O777   Zn780   2.013   .     S
Br781  C806    1.938   .     S
Br782  C796    1.923   .     S
Br783  C797    1.923   .     S
Br784  C798    1.923   .     S
Br785  C807    1.938   .     S
Br786  C814    1.928   .     S
Br787  C816    1.928   .     S
Br788  C818    1.941   .     S
Br789  C819    1.941   .     S
Br790  C820    1.942   .     S
Br791  C821    1.942   .     S
Br792  C795    1.923   .     S
C793   C794    1.442   .     S
C793   O829    1.294   .     A
C793   O833    1.292   .     A
C794   C821    1.408   .     A
C794   C818    1.409   .     A
C795   N828    1.372   .     A
C796   N827    1.372   .     A
C796   C977    1.421   .     S
C797   N828    1.372   .     A
C798   N827    1.372   .     A
C798   C975    1.421   .     S
C799   O837    1.286   .     A
C799   O834    1.287   .     A
C799   C805    1.424   .     S
C800   O836    1.286   .     A
C800   O835    1.287   .     A
C800   C803    1.424   .     S
C801   O838    1.389   .     S
C801   C803    1.404   .     A
C801   C812    1.390   .     A
C802   O830    1.389   .     S
C802   C813    1.390   .     A
C802   C805    1.404   .     A
C803   C806    1.401   .     A
C804   O832    1.292   .     A
C804   C822    1.442   .     S
C804   O831    1.294   .     A
C805   C807    1.401   .     A
C806   C808    1.404   .     A
C807   C809    1.404   .     A
C808   C814    1.418   .     A
C808   C810    1.425   .     A
C809   C816    1.418   .     A
C809   C811    1.425   .     A
C810   C812    1.413   .     A
C810   C271    1.405   1_556 S
C811   C813    1.413   .     A
C812   C817    1.396   .     A
C813   C815    1.397   .     A
C814   C275    1.383   1_556 S
C815   H823    1.084   .     S
C817   H824    1.084   .     S
C817   C276    1.383   1_556 S
C819   C822    1.409   .     A
C819   C881    1.378   .     S
C820   C822    1.408   .     A
C820   C878    1.378   .     S
H825   O838    0.988   .     S
H826   O830    0.988   .     S
N827   Zn839   2.020   .     S
N828   Zn840   2.020   .     S
O829   Zn839   1.997   .     S
O831   Zn840   1.997   .     S
O832   Zn839   2.003   .     S
O833   Zn840   2.003   .     S
O834   Zn839   2.011   .     S
O835   Zn840   2.011   .     S
O836   Zn839   2.013   .     S
O837   Zn840   2.013   .     S
Br841  C866    1.938   .     S
Br842  C856    1.923   .     S
Br843  C857    1.923   .     S
Br844  C858    1.923   .     S
Br845  C867    1.938   .     S
Br846  C874    1.928   .     S
Br847  C876    1.928   .     S
Br848  C878    1.941   .     S
Br849  C879    1.941   .     S
Br850  C880    1.942   .     S
Br851  C881    1.942   .     S
Br852  C855    1.923   .     S
C853   C854    1.442   .     S
C853   O889    1.294   .     A
C853   O893    1.292   .     A
C854   C881    1.408   .     A
C854   C878    1.409   .     A
C855   N888    1.372   .     A
C856   N887    1.372   .     A
C856   C1037   1.421   .     S
C857   N888    1.372   .     A
C858   N887    1.372   .     A
C858   C1035   1.421   .     S
C859   O897    1.286   .     A
C859   O894    1.287   .     A
C859   C865    1.424   .     S
C860   O896    1.286   .     A
C860   O895    1.287   .     A
C860   C863    1.424   .     S
C861   O898    1.389   .     S
C861   C863    1.404   .     A
C861   C872    1.390   .     A
C862   O890    1.389   .     S
C862   C873    1.390   .     A
C862   C865    1.404   .     A
C863   C866    1.401   .     A
C864   O892    1.292   .     A
C864   C882    1.442   .     S
C864   O891    1.294   .     A
C865   C867    1.401   .     A
C866   C868    1.404   .     A
C867   C869    1.404   .     A
C868   C874    1.418   .     A
C868   C870    1.425   .     A
C869   C876    1.418   .     A
C869   C871    1.425   .     A
C870   C872    1.413   .     A
C870   C331    1.405   1_556 S
C871   C873    1.413   .     A
C872   C877    1.396   .     A
C873   C875    1.397   .     A
C874   C335    1.383   1_556 S
C875   H883    1.084   .     S
C877   H884    1.084   .     S
C877   C336    1.383   1_556 S
C879   C882    1.409   .     A
C879   C761    1.378   1_655 S
C880   C882    1.408   .     A
C880   C758    1.378   1_655 S
H885   O898    0.988   .     S
H886   O890    0.988   .     S
N887   Zn899   2.020   .     S
N888   Zn900   2.020   .     S
O889   Zn899   1.997   .     S
O891   Zn900   1.997   .     S
O892   Zn899   2.003   .     S
O893   Zn900   2.003   .     S
O894   Zn899   2.011   .     S
O895   Zn900   2.011   .     S
O896   Zn899   2.013   .     S
O897   Zn900   2.013   .     S
Br901  C926    1.938   .     S
Br902  C916    1.923   .     S
Br903  C917    1.923   .     S
Br904  C918    1.923   .     S
Br905  C927    1.938   .     S
Br906  C934    1.928   .     S
Br907  C936    1.928   .     S
Br908  C938    1.941   .     S
Br909  C939    1.941   .     S
Br910  C940    1.942   .     S
Br911  C941    1.942   .     S
Br912  C915    1.923   .     S
C913   C914    1.442   .     S
C913   O949    1.294   .     A
C913   O953    1.292   .     A
C914   C941    1.408   .     A
C914   C938    1.409   .     A
C915   N948    1.372   .     A
C916   N947    1.372   .     A
C916   C557    1.421   1_565 S
C917   N948    1.372   .     A
C918   N947    1.372   .     A
C918   C555    1.421   1_565 S
C919   O957    1.286   .     A
C919   O954    1.287   .     A
C919   C925    1.424   .     S
C920   O956    1.286   .     A
C920   O955    1.287   .     A
C920   C923    1.424   .     S
C921   O958    1.389   .     S
C921   C923    1.404   .     A
C921   C932    1.390   .     A
C922   O950    1.389   .     S
C922   C933    1.390   .     A
C922   C925    1.404   .     A
C923   C926    1.401   .     A
C924   O952    1.292   .     A
C924   C942    1.442   .     S
C924   O951    1.294   .     A
C925   C927    1.401   .     A
C926   C928    1.404   .     A
C927   C929    1.404   .     A
C928   C934    1.418   .     A
C928   C930    1.425   .     A
C929   C936    1.418   .     A
C929   C931    1.425   .     A
C930   C932    1.413   .     A
C930   C391    1.405   1_556 S
C931   C933    1.413   .     A
C932   C937    1.396   .     A
C933   C935    1.397   .     A
C934   C395    1.383   1_556 S
C935   H943    1.084   .     S
C937   H944    1.084   .     S
C937   C396    1.383   1_556 S
C938   C1060   1.378   1_455 S
C939   C942    1.409   .     A
C939   C1001   1.378   .     S
C940   C942    1.408   .     A
C940   C998    1.378   .     S
C941   C1059   1.378   1_455 S
H945   O958    0.988   .     S
H946   O950    0.988   .     S
N947   Zn959   2.020   .     S
N948   Zn960   2.020   .     S
O949   Zn959   1.997   .     S
O951   Zn960   1.997   .     S
O952   Zn959   2.003   .     S
O953   Zn960   2.003   .     S
O954   Zn959   2.011   .     S
O955   Zn960   2.011   .     S
O956   Zn959   2.013   .     S
O957   Zn960   2.013   .     S
Br961  C986    1.938   .     S
Br962  C976    1.923   .     S
Br963  C977    1.923   .     S
Br964  C978    1.923   .     S
Br965  C987    1.938   .     S
Br966  C994    1.928   .     S
Br967  C996    1.928   .     S
Br968  C998    1.941   .     S
Br969  C999    1.941   .     S
Br970  C1000   1.942   .     S
Br971  C1001   1.942   .     S
Br972  C975    1.923   .     S
C973   C974    1.442   .     S
C973   O1009   1.294   .     A
C973   O1013   1.292   .     A
C974   C1001   1.408   .     A
C974   C998    1.409   .     A
C975   N1008   1.372   .     A
C976   N1007   1.372   .     A
C976   C617    1.421   1_565 S
C977   N1008   1.372   .     A
C978   N1007   1.372   .     A
C978   C615    1.421   1_565 S
C979   O1017   1.286   .     A
C979   O1014   1.287   .     A
C979   C985    1.424   .     S
C980   O1016   1.286   .     A
C980   O1015   1.287   .     A
C980   C983    1.424   .     S
C981   O1018   1.389   .     S
C981   C983    1.404   .     A
C981   C992    1.390   .     A
C982   O1010   1.389   .     S
C982   C993    1.390   .     A
C982   C985    1.404   .     A
C983   C986    1.401   .     A
C984   O1012   1.292   .     A
C984   C1002   1.442   .     S
C984   O1011   1.294   .     A
C985   C987    1.401   .     A
C986   C988    1.404   .     A
C987   C989    1.404   .     A
C988   C994    1.418   .     A
C988   C990    1.425   .     A
C989   C996    1.418   .     A
C989   C991    1.425   .     A
C990   C992    1.413   .     A
C990   C451    1.405   1_556 S
C991   C993    1.413   .     A
C992   C997    1.396   .     A
C993   C995    1.397   .     A
C994   C455    1.383   1_556 S
C995   H1003   1.084   .     S
C997   H1004   1.084   .     S
C997   C456    1.383   1_556 S
C999   C1002   1.409   .     A
C999   C1061   1.378   .     S
C1000  C1002   1.408   .     A
C1000  C1058   1.378   .     S
H1005  O1018   0.988   .     S
H1006  O1010   0.988   .     S
N1007  Zn1019  2.020   .     S
N1008  Zn1020  2.020   .     S
O1009  Zn1019  1.997   .     S
O1011  Zn1020  1.997   .     S
O1012  Zn1019  2.003   .     S
O1013  Zn1020  2.003   .     S
O1014  Zn1019  2.011   .     S
O1015  Zn1020  2.011   .     S
O1016  Zn1019  2.013   .     S
O1017  Zn1020  2.013   .     S
Br1021 C1046   1.938   .     S
Br1022 C1036   1.923   .     S
Br1023 C1037   1.923   .     S
Br1024 C1038   1.923   .     S
Br1025 C1047   1.938   .     S
Br1026 C1054   1.928   .     S
Br1027 C1056   1.928   .     S
Br1028 C1058   1.941   .     S
Br1029 C1059   1.941   .     S
Br1030 C1060   1.942   .     S
Br1031 C1061   1.942   .     S
Br1032 C1035   1.923   .     S
C1033  C1034   1.442   .     S
C1033  O1069   1.294   .     A
C1033  O1073   1.292   .     A
C1034  C1061   1.408   .     A
C1034  C1058   1.409   .     A
C1035  N1068   1.372   .     A
C1036  N1067   1.372   .     A
C1036  C677    1.421   1_565 S
C1037  N1068   1.372   .     A
C1038  N1067   1.372   .     A
C1038  C675    1.421   1_565 S
C1039  O1077   1.286   .     A
C1039  O1074   1.287   .     A
C1039  C1045   1.424   .     S
C1040  O1076   1.286   .     A
C1040  O1075   1.287   .     A
C1040  C1043   1.424   .     S
C1041  O1078   1.389   .     S
C1041  C1043   1.404   .     A
C1041  C1052   1.390   .     A
C1042  O1070   1.389   .     S
C1042  C1053   1.390   .     A
C1042  C1045   1.404   .     A
C1043  C1046   1.401   .     A
C1044  O1072   1.292   .     A
C1044  C1062   1.442   .     S
C1044  O1071   1.294   .     A
C1045  C1047   1.401   .     A
C1046  C1048   1.404   .     A
C1047  C1049   1.404   .     A
C1048  C1054   1.418   .     A
C1048  C1050   1.425   .     A
C1049  C1056   1.418   .     A
C1049  C1051   1.425   .     A
C1050  C1052   1.413   .     A
C1050  C511    1.405   1_556 S
C1051  C1053   1.413   .     A
C1052  C1057   1.396   .     A
C1053  C1055   1.397   .     A
C1054  C515    1.383   1_556 S
C1055  H1063   1.084   .     S
C1057  H1064   1.084   .     S
C1057  C516    1.383   1_556 S
C1059  C1062   1.409   .     A
C1059  C941    1.378   1_655 S
C1060  C1062   1.408   .     A
C1060  C938    1.378   1_655 S
H1065  O1078   0.988   .     S
H1066  O1070   0.988   .     S
N1067  Zn1079  2.020   .     S
N1068  Zn1080  2.020   .     S
O1069  Zn1079  1.997   .     S
O1071  Zn1080  1.997   .     S
O1072  Zn1079  2.003   .     S
O1073  Zn1080  2.003   .     S
O1074  Zn1079  2.011   .     S
O1075  Zn1080  2.011   .     S
O1076  Zn1079  2.013   .     S
O1077  Zn1080  2.013   .     S
