data_str_m3_o10_o16_pcu_sym.23
_audit_creation_date              2020-01-03
_audit_creation_method            'Materials Studio'
_symmetry_space_group_name_H-M    'P1'
_symmetry_Int_Tables_number       1
_symmetry_cell_setting            triclinic
loop_
_symmetry_equiv_pos_as_xyz
  x,y,z
_cell_length_a                    23.3881
_cell_length_b                    25.7521
_cell_length_c                    25.0728
_cell_angle_alpha                 92.4117
_cell_angle_beta                  103.0182
_cell_angle_gamma                 93.7861
loop_
_atom_site_label
_atom_site_type_symbol
_atom_site_fract_x
_atom_site_fract_y
_atom_site_fract_z
_atom_site_U_iso_or_equiv
_atom_site_adp_type
_atom_site_occupancy
Br1    Br    0.22367   0.32242   0.21595   0.00000  Uiso   1.00
C2     C     0.01360   0.26465   0.24614   0.00000  Uiso   1.00
C3     C     0.06485   0.18987   0.41262   0.00000  Uiso   1.00
C4     C     0.02008   0.31912   0.24507   0.00000  Uiso   1.00
C5     C     0.03849   0.17565   0.35423   0.00000  Uiso   1.00
C6     C     0.30627   0.01406   0.24017   0.00000  Uiso   1.00
C7     C     0.31765   0.06843   0.24889   0.00000  Uiso   1.00
C8     C     0.29558   0.15656   0.14661   0.00000  Uiso   1.00
C9     C     0.28967   0.12638   0.49929   0.00000  Uiso   1.00
C10    C     0.27281   0.14065   0.08943   0.00000  Uiso   1.00
C11    C     0.03165   0.21182   0.44655   0.00000  Uiso   1.00
C12    C     0.05483   0.21861   0.00294   0.00000  Uiso   1.00
C13    C     0.14172   0.17562   0.49242   0.00000  Uiso   1.00
C14    C     0.10842   0.19882   0.02614   0.00000  Uiso   1.00
C15    C     0.16970   0.10945   0.09612   0.00000  Uiso   1.00
C16    C     0.12987   0.06653   0.05823   0.00000  Uiso   1.00
C17    C     0.09628   0.03118   0.09010   0.00000  Uiso   1.00
C18    C     0.12417   0.18048   0.43569   0.00000  Uiso   1.00
C19    C     0.19494   0.15252   0.01301   0.00000  Uiso   1.00
C20    C     0.23394   0.14317   0.47812   0.00000  Uiso   1.00
C21    C     0.21943   0.15571   0.42408   0.00000  Uiso   1.00
C22    C     0.16725   0.17744   0.40449   0.00000  Uiso   1.00
C23    C     0.21209   0.13877   0.06731   0.00000  Uiso   1.00
C24    C     0.31103   0.12986   0.05551   0.00000  Uiso   1.00
H25    H     0.02403   0.12642   0.07213   0.00000  Uiso   1.00
H26    H     0.06513   0.00317   0.25388   0.00000  Uiso   1.00
H27    H     0.12721   0.00798   0.11787   0.00000  Uiso   1.00
H28    H     0.07215   0.05447   0.11480   0.00000  Uiso   1.00
H29    H     0.06411   0.00388   0.06099   0.00000  Uiso   1.00
H30    H     0.09745   0.08432   0.02620   0.00000  Uiso   1.00
H31    H     0.15699   0.04222   0.03754   0.00000  Uiso   1.00
H32    H     0.19549   0.08976   0.13128   0.00000  Uiso   1.00
H33    H     0.14264   0.13614   0.11362   0.00000  Uiso   1.00
H34    H     0.15716   0.12205   0.21330   0.00000  Uiso   1.00
H35    H     0.17615   0.21262   0.28465   0.00000  Uiso   1.00
H36    H     0.24980   0.15149   0.39778   0.00000  Uiso   1.00
H37    H     0.31908   0.11758   0.47294   0.00000  Uiso   1.00
H38    H     0.32159   0.22407   0.42953   0.00000  Uiso   1.00
H39    H     0.12489   0.20484   0.06986   0.00000  Uiso   1.00
H40    H     0.02993   0.23698   0.02901   0.00000  Uiso   1.00
H41    H     0.16355   0.19530   0.36621   0.00000  Uiso   1.00
N42    N     0.14493   0.15223   0.23543   0.00000  Uiso   1.00
N43    N     0.18840   0.18110   0.26458   0.00000  Uiso   1.00
O44    O     0.29769   0.24629   0.25358   0.00000  Uiso   1.00
O45    O     0.05742   0.23704   0.24424   0.00000  Uiso   1.00
O46    O     0.31490   0.17358   0.33380   0.00000  Uiso   1.00
O47    O     0.07463   0.16433   0.32446   0.00000  Uiso   1.00
O48    O     0.27592   0.09629   0.25577   0.00000  Uiso   1.00
O49    O     0.03565   0.08704   0.24643   0.00000  Uiso   1.00
O50    O     0.25870   0.16901   0.17554   0.00000  Uiso   1.00
O51    O     0.01843   0.15976   0.16620   0.00000  Uiso   1.00
Zn52   Zn    0.27119   0.17284   0.25624   0.00000  Uiso   1.00
Zn53   Zn    0.06214   0.16049   0.24377   0.00000  Uiso   1.00
Br54   Br    0.55701   0.32242   0.21595   0.00000  Uiso   1.00
C55    C     0.34694   0.26465   0.24614   0.00000  Uiso   1.00
C56    C     0.39818   0.18987   0.41262   0.00000  Uiso   1.00
C57    C     0.35341   0.31912   0.24507   0.00000  Uiso   1.00
C58    C     0.37182   0.17565   0.35423   0.00000  Uiso   1.00
C59    C     0.63960   0.01406   0.24017   0.00000  Uiso   1.00
C60    C     0.65098   0.06843   0.24889   0.00000  Uiso   1.00
C61    C     0.62891   0.15656   0.14661   0.00000  Uiso   1.00
C62    C     0.62301   0.12638   0.49929   0.00000  Uiso   1.00
C63    C     0.60614   0.14065   0.08943   0.00000  Uiso   1.00
C64    C     0.36498   0.21182   0.44655   0.00000  Uiso   1.00
C65    C     0.38816   0.21861   0.00294   0.00000  Uiso   1.00
C66    C     0.47506   0.17562   0.49242   0.00000  Uiso   1.00
C67    C     0.44175   0.19882   0.02614   0.00000  Uiso   1.00
C68    C     0.50303   0.10945   0.09612   0.00000  Uiso   1.00
C69    C     0.46320   0.06653   0.05823   0.00000  Uiso   1.00
C70    C     0.42962   0.03118   0.09010   0.00000  Uiso   1.00
C71    C     0.45751   0.18048   0.43569   0.00000  Uiso   1.00
C72    C     0.52828   0.15252   0.01301   0.00000  Uiso   1.00
C73    C     0.56727   0.14317   0.47812   0.00000  Uiso   1.00
C74    C     0.55276   0.15571   0.42408   0.00000  Uiso   1.00
C75    C     0.50058   0.17744   0.40449   0.00000  Uiso   1.00
C76    C     0.54542   0.13877   0.06731   0.00000  Uiso   1.00
C77    C     0.64437   0.12986   0.05551   0.00000  Uiso   1.00
H78    H     0.35737   0.12642   0.07213   0.00000  Uiso   1.00
H79    H     0.39846   0.00317   0.25388   0.00000  Uiso   1.00
H80    H     0.46054   0.00798   0.11787   0.00000  Uiso   1.00
H81    H     0.40548   0.05447   0.11480   0.00000  Uiso   1.00
H82    H     0.39745   0.00388   0.06099   0.00000  Uiso   1.00
H83    H     0.43078   0.08432   0.02620   0.00000  Uiso   1.00
H84    H     0.49033   0.04222   0.03754   0.00000  Uiso   1.00
H85    H     0.52883   0.08976   0.13128   0.00000  Uiso   1.00
H86    H     0.47598   0.13614   0.11362   0.00000  Uiso   1.00
H87    H     0.49049   0.12205   0.21330   0.00000  Uiso   1.00
H88    H     0.50948   0.21262   0.28465   0.00000  Uiso   1.00
H89    H     0.58314   0.15149   0.39778   0.00000  Uiso   1.00
H90    H     0.65242   0.11758   0.47294   0.00000  Uiso   1.00
H91    H     0.65493   0.22407   0.42953   0.00000  Uiso   1.00
H92    H     0.45822   0.20484   0.06986   0.00000  Uiso   1.00
H93    H     0.36326   0.23698   0.02901   0.00000  Uiso   1.00
H94    H     0.49689   0.19530   0.36621   0.00000  Uiso   1.00
N95    N     0.47827   0.15223   0.23543   0.00000  Uiso   1.00
N96    N     0.52173   0.18110   0.26458   0.00000  Uiso   1.00
O97    O     0.63102   0.24629   0.25358   0.00000  Uiso   1.00
O98    O     0.39075   0.23704   0.24424   0.00000  Uiso   1.00
O99    O     0.64823   0.17358   0.33380   0.00000  Uiso   1.00
O100   O     0.40796   0.16433   0.32446   0.00000  Uiso   1.00
O101   O     0.60925   0.09629   0.25577   0.00000  Uiso   1.00
O102   O     0.36898   0.08704   0.24643   0.00000  Uiso   1.00
O103   O     0.59204   0.16901   0.17554   0.00000  Uiso   1.00
O104   O     0.35177   0.15976   0.16620   0.00000  Uiso   1.00
Zn105  Zn    0.60453   0.17284   0.25624   0.00000  Uiso   1.00
Zn106  Zn    0.39547   0.16049   0.24377   0.00000  Uiso   1.00
Br107  Br    0.89034   0.32242   0.21595   0.00000  Uiso   1.00
C108   C     0.68027   0.26465   0.24614   0.00000  Uiso   1.00
C109   C     0.73152   0.18987   0.41262   0.00000  Uiso   1.00
C110   C     0.68675   0.31912   0.24507   0.00000  Uiso   1.00
C111   C     0.70515   0.17565   0.35423   0.00000  Uiso   1.00
C112   C     0.97293   0.01406   0.24017   0.00000  Uiso   1.00
C113   C     0.98432   0.06843   0.24889   0.00000  Uiso   1.00
C114   C     0.96224   0.15656   0.14661   0.00000  Uiso   1.00
C115   C     0.95634   0.12638   0.49929   0.00000  Uiso   1.00
C116   C     0.93948   0.14065   0.08943   0.00000  Uiso   1.00
C117   C     0.69831   0.21182   0.44655   0.00000  Uiso   1.00
C118   C     0.72149   0.21861   0.00294   0.00000  Uiso   1.00
C119   C     0.80839   0.17562   0.49242   0.00000  Uiso   1.00
C120   C     0.77508   0.19882   0.02614   0.00000  Uiso   1.00
C121   C     0.83636   0.10945   0.09612   0.00000  Uiso   1.00
C122   C     0.79654   0.06653   0.05823   0.00000  Uiso   1.00
C123   C     0.76295   0.03118   0.09010   0.00000  Uiso   1.00
C124   C     0.79084   0.18048   0.43569   0.00000  Uiso   1.00
C125   C     0.86161   0.15252   0.01301   0.00000  Uiso   1.00
C126   C     0.90060   0.14317   0.47812   0.00000  Uiso   1.00
C127   C     0.88610   0.15571   0.42408   0.00000  Uiso   1.00
C128   C     0.83391   0.17744   0.40449   0.00000  Uiso   1.00
C129   C     0.87875   0.13877   0.06731   0.00000  Uiso   1.00
C130   C     0.97770   0.12986   0.05551   0.00000  Uiso   1.00
H131   H     0.69070   0.12642   0.07213   0.00000  Uiso   1.00
H132   H     0.73179   0.00317   0.25388   0.00000  Uiso   1.00
H133   H     0.79387   0.00798   0.11787   0.00000  Uiso   1.00
H134   H     0.73881   0.05447   0.11480   0.00000  Uiso   1.00
H135   H     0.73078   0.00388   0.06099   0.00000  Uiso   1.00
H136   H     0.76412   0.08432   0.02620   0.00000  Uiso   1.00
H137   H     0.82366   0.04222   0.03754   0.00000  Uiso   1.00
H138   H     0.86216   0.08976   0.13128   0.00000  Uiso   1.00
H139   H     0.80931   0.13614   0.11362   0.00000  Uiso   1.00
H140   H     0.82383   0.12205   0.21330   0.00000  Uiso   1.00
H141   H     0.84281   0.21262   0.28465   0.00000  Uiso   1.00
H142   H     0.91647   0.15149   0.39778   0.00000  Uiso   1.00
H143   H     0.98575   0.11758   0.47294   0.00000  Uiso   1.00
H144   H     0.98826   0.22407   0.42953   0.00000  Uiso   1.00
H145   H     0.79155   0.20484   0.06986   0.00000  Uiso   1.00
H146   H     0.69659   0.23698   0.02901   0.00000  Uiso   1.00
H147   H     0.83022   0.19530   0.36621   0.00000  Uiso   1.00
N148   N     0.81160   0.15223   0.23543   0.00000  Uiso   1.00
N149   N     0.85507   0.18110   0.26458   0.00000  Uiso   1.00
O150   O     0.96435   0.24629   0.25358   0.00000  Uiso   1.00
O151   O     0.72408   0.23704   0.24424   0.00000  Uiso   1.00
O152   O     0.98157   0.17358   0.33380   0.00000  Uiso   1.00
O153   O     0.74130   0.16433   0.32446   0.00000  Uiso   1.00
O154   O     0.94258   0.09629   0.25577   0.00000  Uiso   1.00
O155   O     0.70231   0.08704   0.24643   0.00000  Uiso   1.00
O156   O     0.92537   0.16901   0.17554   0.00000  Uiso   1.00
O157   O     0.68510   0.15976   0.16620   0.00000  Uiso   1.00
Zn158  Zn    0.93786   0.17284   0.25624   0.00000  Uiso   1.00
Zn159  Zn    0.72881   0.16049   0.24377   0.00000  Uiso   1.00
Br160  Br    0.22367   0.65575   0.21595   0.00000  Uiso   1.00
C161   C     0.01360   0.59798   0.24614   0.00000  Uiso   1.00
C162   C     0.06485   0.52321   0.41262   0.00000  Uiso   1.00
C163   C     0.02008   0.65245   0.24507   0.00000  Uiso   1.00
C164   C     0.03849   0.50899   0.35423   0.00000  Uiso   1.00
C165   C     0.30627   0.34739   0.24017   0.00000  Uiso   1.00
C166   C     0.31765   0.40176   0.24889   0.00000  Uiso   1.00
C167   C     0.29558   0.48989   0.14661   0.00000  Uiso   1.00
C168   C     0.28967   0.45971   0.49929   0.00000  Uiso   1.00
C169   C     0.27281   0.47398   0.08943   0.00000  Uiso   1.00
C170   C     0.03165   0.54515   0.44655   0.00000  Uiso   1.00
C171   C     0.05483   0.55195   0.00294   0.00000  Uiso   1.00
C172   C     0.14172   0.50896   0.49242   0.00000  Uiso   1.00
C173   C     0.10842   0.53215   0.02614   0.00000  Uiso   1.00
C174   C     0.16970   0.44279   0.09612   0.00000  Uiso   1.00
C175   C     0.12987   0.39986   0.05823   0.00000  Uiso   1.00
C176   C     0.09628   0.36452   0.09010   0.00000  Uiso   1.00
C177   C     0.12417   0.51381   0.43569   0.00000  Uiso   1.00
C178   C     0.19494   0.48585   0.01301   0.00000  Uiso   1.00
C179   C     0.23394   0.47650   0.47812   0.00000  Uiso   1.00
C180   C     0.21943   0.48905   0.42408   0.00000  Uiso   1.00
C181   C     0.16725   0.51077   0.40449   0.00000  Uiso   1.00
C182   C     0.21209   0.47210   0.06731   0.00000  Uiso   1.00
C183   C     0.31103   0.46319   0.05551   0.00000  Uiso   1.00
H184   H     0.02403   0.45976   0.07213   0.00000  Uiso   1.00
H185   H     0.06513   0.33651   0.25388   0.00000  Uiso   1.00
H186   H     0.12721   0.34131   0.11787   0.00000  Uiso   1.00
H187   H     0.07215   0.38781   0.11480   0.00000  Uiso   1.00
H188   H     0.06411   0.33721   0.06099   0.00000  Uiso   1.00
H189   H     0.09745   0.41765   0.02620   0.00000  Uiso   1.00
H190   H     0.15699   0.37555   0.03754   0.00000  Uiso   1.00
H191   H     0.19549   0.42309   0.13128   0.00000  Uiso   1.00
H192   H     0.14264   0.46947   0.11362   0.00000  Uiso   1.00
H193   H     0.15716   0.45539   0.21330   0.00000  Uiso   1.00
H194   H     0.17615   0.54595   0.28465   0.00000  Uiso   1.00
H195   H     0.24980   0.48482   0.39778   0.00000  Uiso   1.00
H196   H     0.31908   0.45091   0.47294   0.00000  Uiso   1.00
H197   H     0.32159   0.55741   0.42953   0.00000  Uiso   1.00
H198   H     0.12489   0.53818   0.06986   0.00000  Uiso   1.00
H199   H     0.02993   0.57031   0.02901   0.00000  Uiso   1.00
H200   H     0.16355   0.52863   0.36621   0.00000  Uiso   1.00
N201   N     0.14493   0.48556   0.23543   0.00000  Uiso   1.00
N202   N     0.18840   0.51444   0.26458   0.00000  Uiso   1.00
O203   O     0.29769   0.57963   0.25358   0.00000  Uiso   1.00
O204   O     0.05742   0.57038   0.24424   0.00000  Uiso   1.00
O205   O     0.31490   0.50691   0.33380   0.00000  Uiso   1.00
O206   O     0.07463   0.49766   0.32446   0.00000  Uiso   1.00
O207   O     0.27592   0.42962   0.25577   0.00000  Uiso   1.00
O208   O     0.03565   0.42037   0.24643   0.00000  Uiso   1.00
O209   O     0.25870   0.50234   0.17554   0.00000  Uiso   1.00
O210   O     0.01843   0.49309   0.16620   0.00000  Uiso   1.00
Zn211  Zn    0.27119   0.50618   0.25624   0.00000  Uiso   1.00
Zn212  Zn    0.06214   0.49382   0.24377   0.00000  Uiso   1.00
Br213  Br    0.55701   0.65575   0.21595   0.00000  Uiso   1.00
C214   C     0.34694   0.59798   0.24614   0.00000  Uiso   1.00
C215   C     0.39818   0.52321   0.41262   0.00000  Uiso   1.00
C216   C     0.35341   0.65245   0.24507   0.00000  Uiso   1.00
C217   C     0.37182   0.50899   0.35423   0.00000  Uiso   1.00
C218   C     0.63960   0.34739   0.24017   0.00000  Uiso   1.00
C219   C     0.65098   0.40176   0.24889   0.00000  Uiso   1.00
C220   C     0.62891   0.48989   0.14661   0.00000  Uiso   1.00
C221   C     0.62301   0.45971   0.49929   0.00000  Uiso   1.00
C222   C     0.60614   0.47398   0.08943   0.00000  Uiso   1.00
C223   C     0.36498   0.54515   0.44655   0.00000  Uiso   1.00
C224   C     0.38816   0.55195   0.00294   0.00000  Uiso   1.00
C225   C     0.47506   0.50896   0.49242   0.00000  Uiso   1.00
C226   C     0.44175   0.53215   0.02614   0.00000  Uiso   1.00
C227   C     0.50303   0.44279   0.09612   0.00000  Uiso   1.00
C228   C     0.46320   0.39986   0.05823   0.00000  Uiso   1.00
C229   C     0.42962   0.36452   0.09010   0.00000  Uiso   1.00
C230   C     0.45751   0.51381   0.43569   0.00000  Uiso   1.00
C231   C     0.52828   0.48585   0.01301   0.00000  Uiso   1.00
C232   C     0.56727   0.47650   0.47812   0.00000  Uiso   1.00
C233   C     0.55276   0.48905   0.42408   0.00000  Uiso   1.00
C234   C     0.50058   0.51077   0.40449   0.00000  Uiso   1.00
C235   C     0.54542   0.47210   0.06731   0.00000  Uiso   1.00
C236   C     0.64437   0.46319   0.05551   0.00000  Uiso   1.00
H237   H     0.35737   0.45976   0.07213   0.00000  Uiso   1.00
H238   H     0.39846   0.33651   0.25388   0.00000  Uiso   1.00
H239   H     0.46054   0.34131   0.11787   0.00000  Uiso   1.00
H240   H     0.40548   0.38781   0.11480   0.00000  Uiso   1.00
H241   H     0.39745   0.33721   0.06099   0.00000  Uiso   1.00
H242   H     0.43078   0.41765   0.02620   0.00000  Uiso   1.00
H243   H     0.49033   0.37555   0.03754   0.00000  Uiso   1.00
H244   H     0.52883   0.42309   0.13128   0.00000  Uiso   1.00
H245   H     0.47598   0.46947   0.11362   0.00000  Uiso   1.00
H246   H     0.49049   0.45539   0.21330   0.00000  Uiso   1.00
H247   H     0.50948   0.54595   0.28465   0.00000  Uiso   1.00
H248   H     0.58314   0.48482   0.39778   0.00000  Uiso   1.00
H249   H     0.65242   0.45091   0.47294   0.00000  Uiso   1.00
H250   H     0.65493   0.55741   0.42953   0.00000  Uiso   1.00
H251   H     0.45822   0.53818   0.06986   0.00000  Uiso   1.00
H252   H     0.36326   0.57031   0.02901   0.00000  Uiso   1.00
H253   H     0.49689   0.52863   0.36621   0.00000  Uiso   1.00
N254   N     0.47827   0.48556   0.23543   0.00000  Uiso   1.00
N255   N     0.52173   0.51444   0.26458   0.00000  Uiso   1.00
O256   O     0.63102   0.57963   0.25358   0.00000  Uiso   1.00
O257   O     0.39075   0.57038   0.24424   0.00000  Uiso   1.00
O258   O     0.64823   0.50691   0.33380   0.00000  Uiso   1.00
O259   O     0.40796   0.49766   0.32446   0.00000  Uiso   1.00
O260   O     0.60925   0.42962   0.25577   0.00000  Uiso   1.00
O261   O     0.36898   0.42037   0.24643   0.00000  Uiso   1.00
O262   O     0.59204   0.50234   0.17554   0.00000  Uiso   1.00
O263   O     0.35177   0.49309   0.16620   0.00000  Uiso   1.00
Zn264  Zn    0.60453   0.50618   0.25624   0.00000  Uiso   1.00
Zn265  Zn    0.39547   0.49382   0.24377   0.00000  Uiso   1.00
Br266  Br    0.89034   0.65575   0.21595   0.00000  Uiso   1.00
C267   C     0.68027   0.59798   0.24614   0.00000  Uiso   1.00
C268   C     0.73152   0.52321   0.41262   0.00000  Uiso   1.00
C269   C     0.68675   0.65245   0.24507   0.00000  Uiso   1.00
C270   C     0.70515   0.50899   0.35423   0.00000  Uiso   1.00
C271   C     0.97293   0.34739   0.24017   0.00000  Uiso   1.00
C272   C     0.98432   0.40176   0.24889   0.00000  Uiso   1.00
C273   C     0.96224   0.48989   0.14661   0.00000  Uiso   1.00
C274   C     0.95634   0.45971   0.49929   0.00000  Uiso   1.00
C275   C     0.93948   0.47398   0.08943   0.00000  Uiso   1.00
C276   C     0.69831   0.54515   0.44655   0.00000  Uiso   1.00
C277   C     0.72149   0.55195   0.00294   0.00000  Uiso   1.00
C278   C     0.80839   0.50896   0.49242   0.00000  Uiso   1.00
C279   C     0.77508   0.53215   0.02614   0.00000  Uiso   1.00
C280   C     0.83636   0.44279   0.09612   0.00000  Uiso   1.00
C281   C     0.79654   0.39986   0.05823   0.00000  Uiso   1.00
C282   C     0.76295   0.36452   0.09010   0.00000  Uiso   1.00
C283   C     0.79084   0.51381   0.43569   0.00000  Uiso   1.00
C284   C     0.86161   0.48585   0.01301   0.00000  Uiso   1.00
C285   C     0.90060   0.47650   0.47812   0.00000  Uiso   1.00
C286   C     0.88610   0.48905   0.42408   0.00000  Uiso   1.00
C287   C     0.83391   0.51077   0.40449   0.00000  Uiso   1.00
C288   C     0.87875   0.47210   0.06731   0.00000  Uiso   1.00
C289   C     0.97770   0.46319   0.05551   0.00000  Uiso   1.00
H290   H     0.69070   0.45976   0.07213   0.00000  Uiso   1.00
H291   H     0.73179   0.33651   0.25388   0.00000  Uiso   1.00
H292   H     0.79387   0.34131   0.11787   0.00000  Uiso   1.00
H293   H     0.73881   0.38781   0.11480   0.00000  Uiso   1.00
H294   H     0.73078   0.33721   0.06099   0.00000  Uiso   1.00
H295   H     0.76412   0.41765   0.02620   0.00000  Uiso   1.00
H296   H     0.82366   0.37555   0.03754   0.00000  Uiso   1.00
H297   H     0.86216   0.42309   0.13128   0.00000  Uiso   1.00
H298   H     0.80931   0.46947   0.11362   0.00000  Uiso   1.00
H299   H     0.82383   0.45539   0.21330   0.00000  Uiso   1.00
H300   H     0.84281   0.54595   0.28465   0.00000  Uiso   1.00
H301   H     0.91647   0.48482   0.39778   0.00000  Uiso   1.00
H302   H     0.98575   0.45091   0.47294   0.00000  Uiso   1.00
H303   H     0.98826   0.55741   0.42953   0.00000  Uiso   1.00
H304   H     0.79155   0.53818   0.06986   0.00000  Uiso   1.00
H305   H     0.69659   0.57031   0.02901   0.00000  Uiso   1.00
H306   H     0.83022   0.52863   0.36621   0.00000  Uiso   1.00
N307   N     0.81160   0.48556   0.23543   0.00000  Uiso   1.00
N308   N     0.85507   0.51444   0.26458   0.00000  Uiso   1.00
O309   O     0.96435   0.57963   0.25358   0.00000  Uiso   1.00
O310   O     0.72408   0.57038   0.24424   0.00000  Uiso   1.00
O311   O     0.98157   0.50691   0.33380   0.00000  Uiso   1.00
O312   O     0.74130   0.49766   0.32446   0.00000  Uiso   1.00
O313   O     0.94258   0.42962   0.25577   0.00000  Uiso   1.00
O314   O     0.70231   0.42037   0.24643   0.00000  Uiso   1.00
O315   O     0.92537   0.50234   0.17554   0.00000  Uiso   1.00
O316   O     0.68510   0.49309   0.16620   0.00000  Uiso   1.00
Zn317  Zn    0.93786   0.50618   0.25624   0.00000  Uiso   1.00
Zn318  Zn    0.72881   0.49382   0.24377   0.00000  Uiso   1.00
Br319  Br    0.22367   0.98908   0.21595   0.00000  Uiso   1.00
C320   C     0.01360   0.93132   0.24614   0.00000  Uiso   1.00
C321   C     0.06485   0.85654   0.41262   0.00000  Uiso   1.00
C322   C     0.02008   0.98579   0.24507   0.00000  Uiso   1.00
C323   C     0.03849   0.84232   0.35423   0.00000  Uiso   1.00
C324   C     0.30627   0.68073   0.24017   0.00000  Uiso   1.00
C325   C     0.31765   0.73510   0.24889   0.00000  Uiso   1.00
C326   C     0.29558   0.82323   0.14661   0.00000  Uiso   1.00
C327   C     0.28967   0.79304   0.49929   0.00000  Uiso   1.00
C328   C     0.27281   0.80732   0.08943   0.00000  Uiso   1.00
C329   C     0.03165   0.87848   0.44655   0.00000  Uiso   1.00
C330   C     0.05483   0.88528   0.00294   0.00000  Uiso   1.00
C331   C     0.14172   0.84229   0.49242   0.00000  Uiso   1.00
C332   C     0.10842   0.86548   0.02614   0.00000  Uiso   1.00
C333   C     0.16970   0.77612   0.09612   0.00000  Uiso   1.00
C334   C     0.12987   0.73319   0.05823   0.00000  Uiso   1.00
C335   C     0.09628   0.69785   0.09010   0.00000  Uiso   1.00
C336   C     0.12417   0.84715   0.43569   0.00000  Uiso   1.00
C337   C     0.19494   0.81919   0.01301   0.00000  Uiso   1.00
C338   C     0.23394   0.80983   0.47812   0.00000  Uiso   1.00
C339   C     0.21943   0.82238   0.42408   0.00000  Uiso   1.00
C340   C     0.16725   0.84411   0.40449   0.00000  Uiso   1.00
C341   C     0.21209   0.80543   0.06731   0.00000  Uiso   1.00
C342   C     0.31103   0.79653   0.05551   0.00000  Uiso   1.00
H343   H     0.02403   0.79309   0.07213   0.00000  Uiso   1.00
H344   H     0.06513   0.66984   0.25388   0.00000  Uiso   1.00
H345   H     0.12721   0.67464   0.11787   0.00000  Uiso   1.00
H346   H     0.07215   0.72114   0.11480   0.00000  Uiso   1.00
H347   H     0.06411   0.67055   0.06099   0.00000  Uiso   1.00
H348   H     0.09745   0.75099   0.02620   0.00000  Uiso   1.00
H349   H     0.15699   0.70888   0.03754   0.00000  Uiso   1.00
H350   H     0.19549   0.75642   0.13128   0.00000  Uiso   1.00
H351   H     0.14264   0.80280   0.11362   0.00000  Uiso   1.00
H352   H     0.15716   0.78872   0.21330   0.00000  Uiso   1.00
H353   H     0.17615   0.87929   0.28465   0.00000  Uiso   1.00
H354   H     0.24980   0.81816   0.39778   0.00000  Uiso   1.00
H355   H     0.31908   0.78424   0.47294   0.00000  Uiso   1.00
H356   H     0.32159   0.89074   0.42953   0.00000  Uiso   1.00
H357   H     0.12489   0.87151   0.06986   0.00000  Uiso   1.00
H358   H     0.02993   0.90365   0.02901   0.00000  Uiso   1.00
H359   H     0.16355   0.86196   0.36621   0.00000  Uiso   1.00
N360   N     0.14493   0.81890   0.23543   0.00000  Uiso   1.00
N361   N     0.18840   0.84777   0.26458   0.00000  Uiso   1.00
O362   O     0.29769   0.91296   0.25358   0.00000  Uiso   1.00
O363   O     0.05742   0.90371   0.24424   0.00000  Uiso   1.00
O364   O     0.31490   0.84024   0.33380   0.00000  Uiso   1.00
O365   O     0.07463   0.83099   0.32446   0.00000  Uiso   1.00
O366   O     0.27592   0.76296   0.25577   0.00000  Uiso   1.00
O367   O     0.03565   0.75371   0.24643   0.00000  Uiso   1.00
O368   O     0.25870   0.83567   0.17554   0.00000  Uiso   1.00
O369   O     0.01843   0.82642   0.16620   0.00000  Uiso   1.00
Zn370  Zn    0.27119   0.83951   0.25624   0.00000  Uiso   1.00
Zn371  Zn    0.06214   0.82716   0.24377   0.00000  Uiso   1.00
Br372  Br    0.55701   0.98908   0.21595   0.00000  Uiso   1.00
C373   C     0.34694   0.93132   0.24614   0.00000  Uiso   1.00
C374   C     0.39818   0.85654   0.41262   0.00000  Uiso   1.00
C375   C     0.35341   0.98579   0.24507   0.00000  Uiso   1.00
C376   C     0.37182   0.84232   0.35423   0.00000  Uiso   1.00
C377   C     0.63960   0.68073   0.24017   0.00000  Uiso   1.00
C378   C     0.65098   0.73510   0.24889   0.00000  Uiso   1.00
C379   C     0.62891   0.82323   0.14661   0.00000  Uiso   1.00
C380   C     0.62301   0.79304   0.49929   0.00000  Uiso   1.00
C381   C     0.60614   0.80732   0.08943   0.00000  Uiso   1.00
C382   C     0.36498   0.87848   0.44655   0.00000  Uiso   1.00
C383   C     0.38816   0.88528   0.00294   0.00000  Uiso   1.00
C384   C     0.47506   0.84229   0.49242   0.00000  Uiso   1.00
C385   C     0.44175   0.86548   0.02614   0.00000  Uiso   1.00
C386   C     0.50303   0.77612   0.09612   0.00000  Uiso   1.00
C387   C     0.46320   0.73319   0.05823   0.00000  Uiso   1.00
C388   C     0.42962   0.69785   0.09010   0.00000  Uiso   1.00
C389   C     0.45751   0.84715   0.43569   0.00000  Uiso   1.00
C390   C     0.52828   0.81919   0.01301   0.00000  Uiso   1.00
C391   C     0.56727   0.80983   0.47812   0.00000  Uiso   1.00
C392   C     0.55276   0.82238   0.42408   0.00000  Uiso   1.00
C393   C     0.50058   0.84411   0.40449   0.00000  Uiso   1.00
C394   C     0.54542   0.80543   0.06731   0.00000  Uiso   1.00
C395   C     0.64437   0.79653   0.05551   0.00000  Uiso   1.00
H396   H     0.35737   0.79309   0.07213   0.00000  Uiso   1.00
H397   H     0.39846   0.66984   0.25388   0.00000  Uiso   1.00
H398   H     0.46054   0.67464   0.11787   0.00000  Uiso   1.00
H399   H     0.40548   0.72114   0.11480   0.00000  Uiso   1.00
H400   H     0.39745   0.67055   0.06099   0.00000  Uiso   1.00
H401   H     0.43078   0.75099   0.02620   0.00000  Uiso   1.00
H402   H     0.49033   0.70888   0.03754   0.00000  Uiso   1.00
H403   H     0.52883   0.75642   0.13128   0.00000  Uiso   1.00
H404   H     0.47598   0.80280   0.11362   0.00000  Uiso   1.00
H405   H     0.49049   0.78872   0.21330   0.00000  Uiso   1.00
H406   H     0.50948   0.87929   0.28465   0.00000  Uiso   1.00
H407   H     0.58314   0.81816   0.39778   0.00000  Uiso   1.00
H408   H     0.65242   0.78424   0.47294   0.00000  Uiso   1.00
H409   H     0.65493   0.89074   0.42953   0.00000  Uiso   1.00
H410   H     0.45822   0.87151   0.06986   0.00000  Uiso   1.00
H411   H     0.36326   0.90365   0.02901   0.00000  Uiso   1.00
H412   H     0.49689   0.86196   0.36621   0.00000  Uiso   1.00
N413   N     0.47827   0.81890   0.23543   0.00000  Uiso   1.00
N414   N     0.52173   0.84777   0.26458   0.00000  Uiso   1.00
O415   O     0.63102   0.91296   0.25358   0.00000  Uiso   1.00
O416   O     0.39075   0.90371   0.24424   0.00000  Uiso   1.00
O417   O     0.64823   0.84024   0.33380   0.00000  Uiso   1.00
O418   O     0.40796   0.83099   0.32446   0.00000  Uiso   1.00
O419   O     0.60925   0.76296   0.25577   0.00000  Uiso   1.00
O420   O     0.36898   0.75371   0.24643   0.00000  Uiso   1.00
O421   O     0.59204   0.83567   0.17554   0.00000  Uiso   1.00
O422   O     0.35177   0.82642   0.16620   0.00000  Uiso   1.00
Zn423  Zn    0.60453   0.83951   0.25624   0.00000  Uiso   1.00
Zn424  Zn    0.39547   0.82716   0.24377   0.00000  Uiso   1.00
Br425  Br    0.89034   0.98908   0.21595   0.00000  Uiso   1.00
C426   C     0.68027   0.93132   0.24614   0.00000  Uiso   1.00
C427   C     0.73152   0.85654   0.41262   0.00000  Uiso   1.00
C428   C     0.68675   0.98579   0.24507   0.00000  Uiso   1.00
C429   C     0.70515   0.84232   0.35423   0.00000  Uiso   1.00
C430   C     0.97293   0.68073   0.24017   0.00000  Uiso   1.00
C431   C     0.98432   0.73510   0.24889   0.00000  Uiso   1.00
C432   C     0.96224   0.82323   0.14661   0.00000  Uiso   1.00
C433   C     0.95634   0.79304   0.49929   0.00000  Uiso   1.00
C434   C     0.93948   0.80732   0.08943   0.00000  Uiso   1.00
C435   C     0.69831   0.87848   0.44655   0.00000  Uiso   1.00
C436   C     0.72149   0.88528   0.00294   0.00000  Uiso   1.00
C437   C     0.80839   0.84229   0.49242   0.00000  Uiso   1.00
C438   C     0.77508   0.86548   0.02614   0.00000  Uiso   1.00
C439   C     0.83636   0.77612   0.09612   0.00000  Uiso   1.00
C440   C     0.79654   0.73319   0.05823   0.00000  Uiso   1.00
C441   C     0.76295   0.69785   0.09010   0.00000  Uiso   1.00
C442   C     0.79084   0.84715   0.43569   0.00000  Uiso   1.00
C443   C     0.86161   0.81919   0.01301   0.00000  Uiso   1.00
C444   C     0.90060   0.80983   0.47812   0.00000  Uiso   1.00
C445   C     0.88610   0.82238   0.42408   0.00000  Uiso   1.00
C446   C     0.83391   0.84411   0.40449   0.00000  Uiso   1.00
C447   C     0.87875   0.80543   0.06731   0.00000  Uiso   1.00
C448   C     0.97770   0.79653   0.05551   0.00000  Uiso   1.00
H449   H     0.69070   0.79309   0.07213   0.00000  Uiso   1.00
H450   H     0.73179   0.66984   0.25388   0.00000  Uiso   1.00
H451   H     0.79387   0.67464   0.11787   0.00000  Uiso   1.00
H452   H     0.73881   0.72114   0.11480   0.00000  Uiso   1.00
H453   H     0.73078   0.67055   0.06099   0.00000  Uiso   1.00
H454   H     0.76412   0.75099   0.02620   0.00000  Uiso   1.00
H455   H     0.82366   0.70888   0.03754   0.00000  Uiso   1.00
H456   H     0.86216   0.75642   0.13128   0.00000  Uiso   1.00
H457   H     0.80931   0.80280   0.11362   0.00000  Uiso   1.00
H458   H     0.82383   0.78872   0.21330   0.00000  Uiso   1.00
H459   H     0.84281   0.87929   0.28465   0.00000  Uiso   1.00
H460   H     0.91647   0.81816   0.39778   0.00000  Uiso   1.00
H461   H     0.98575   0.78424   0.47294   0.00000  Uiso   1.00
H462   H     0.98826   0.89074   0.42953   0.00000  Uiso   1.00
H463   H     0.79155   0.87151   0.06986   0.00000  Uiso   1.00
H464   H     0.69659   0.90365   0.02901   0.00000  Uiso   1.00
H465   H     0.83022   0.86196   0.36621   0.00000  Uiso   1.00
N466   N     0.81160   0.81890   0.23543   0.00000  Uiso   1.00
N467   N     0.85507   0.84777   0.26458   0.00000  Uiso   1.00
O468   O     0.96435   0.91296   0.25358   0.00000  Uiso   1.00
O469   O     0.72408   0.90371   0.24424   0.00000  Uiso   1.00
O470   O     0.98157   0.84024   0.33380   0.00000  Uiso   1.00
O471   O     0.74130   0.83099   0.32446   0.00000  Uiso   1.00
O472   O     0.94258   0.76296   0.25577   0.00000  Uiso   1.00
O473   O     0.70231   0.75371   0.24643   0.00000  Uiso   1.00
O474   O     0.92537   0.83567   0.17554   0.00000  Uiso   1.00
O475   O     0.68510   0.82642   0.16620   0.00000  Uiso   1.00
Zn476  Zn    0.93786   0.83951   0.25624   0.00000  Uiso   1.00
Zn477  Zn    0.72881   0.82716   0.24377   0.00000  Uiso   1.00
Br478  Br    0.22367   0.32242   0.71595   0.00000  Uiso   1.00
C479   C     0.01360   0.26465   0.74614   0.00000  Uiso   1.00
C480   C     0.06485   0.18987   0.91262   0.00000  Uiso   1.00
C481   C     0.02008   0.31912   0.74507   0.00000  Uiso   1.00
C482   C     0.03849   0.17565   0.85423   0.00000  Uiso   1.00
C483   C     0.30627   0.01406   0.74017   0.00000  Uiso   1.00
C484   C     0.31765   0.06843   0.74889   0.00000  Uiso   1.00
C485   C     0.29558   0.15656   0.64661   0.00000  Uiso   1.00
C486   C     0.28967   0.12638   0.99929   0.00000  Uiso   1.00
C487   C     0.27281   0.14065   0.58943   0.00000  Uiso   1.00
C488   C     0.03165   0.21182   0.94655   0.00000  Uiso   1.00
C489   C     0.05483   0.21861   0.50294   0.00000  Uiso   1.00
C490   C     0.14172   0.17562   0.99242   0.00000  Uiso   1.00
C491   C     0.10842   0.19882   0.52614   0.00000  Uiso   1.00
C492   C     0.16970   0.10945   0.59612   0.00000  Uiso   1.00
C493   C     0.12987   0.06653   0.55823   0.00000  Uiso   1.00
C494   C     0.09628   0.03118   0.59010   0.00000  Uiso   1.00
C495   C     0.12417   0.18048   0.93569   0.00000  Uiso   1.00
C496   C     0.19494   0.15252   0.51301   0.00000  Uiso   1.00
C497   C     0.23394   0.14317   0.97812   0.00000  Uiso   1.00
C498   C     0.21943   0.15571   0.92408   0.00000  Uiso   1.00
C499   C     0.16725   0.17744   0.90449   0.00000  Uiso   1.00
C500   C     0.21209   0.13877   0.56731   0.00000  Uiso   1.00
C501   C     0.31103   0.12986   0.55551   0.00000  Uiso   1.00
H502   H     0.02403   0.12642   0.57213   0.00000  Uiso   1.00
H503   H     0.06513   0.00317   0.75388   0.00000  Uiso   1.00
H504   H     0.12721   0.00798   0.61787   0.00000  Uiso   1.00
H505   H     0.07215   0.05447   0.61480   0.00000  Uiso   1.00
H506   H     0.06411   0.00388   0.56099   0.00000  Uiso   1.00
H507   H     0.09745   0.08432   0.52620   0.00000  Uiso   1.00
H508   H     0.15699   0.04222   0.53754   0.00000  Uiso   1.00
H509   H     0.19549   0.08976   0.63128   0.00000  Uiso   1.00
H510   H     0.14264   0.13614   0.61362   0.00000  Uiso   1.00
H511   H     0.15716   0.12205   0.71330   0.00000  Uiso   1.00
H512   H     0.17615   0.21262   0.78465   0.00000  Uiso   1.00
H513   H     0.24980   0.15149   0.89778   0.00000  Uiso   1.00
H514   H     0.31908   0.11758   0.97294   0.00000  Uiso   1.00
H515   H     0.32159   0.22407   0.92953   0.00000  Uiso   1.00
H516   H     0.12489   0.20484   0.56986   0.00000  Uiso   1.00
H517   H     0.02993   0.23698   0.52901   0.00000  Uiso   1.00
H518   H     0.16355   0.19530   0.86621   0.00000  Uiso   1.00
N519   N     0.14493   0.15223   0.73543   0.00000  Uiso   1.00
N520   N     0.18840   0.18110   0.76458   0.00000  Uiso   1.00
O521   O     0.29769   0.24629   0.75358   0.00000  Uiso   1.00
O522   O     0.05742   0.23704   0.74424   0.00000  Uiso   1.00
O523   O     0.31490   0.17358   0.83380   0.00000  Uiso   1.00
O524   O     0.07463   0.16433   0.82446   0.00000  Uiso   1.00
O525   O     0.27592   0.09629   0.75577   0.00000  Uiso   1.00
O526   O     0.03565   0.08704   0.74643   0.00000  Uiso   1.00
O527   O     0.25870   0.16901   0.67554   0.00000  Uiso   1.00
O528   O     0.01843   0.15976   0.66620   0.00000  Uiso   1.00
Zn529  Zn    0.27119   0.17284   0.75624   0.00000  Uiso   1.00
Zn530  Zn    0.06214   0.16049   0.74377   0.00000  Uiso   1.00
Br531  Br    0.55701   0.32242   0.71595   0.00000  Uiso   1.00
C532   C     0.34694   0.26465   0.74614   0.00000  Uiso   1.00
C533   C     0.39818   0.18987   0.91262   0.00000  Uiso   1.00
C534   C     0.35341   0.31912   0.74507   0.00000  Uiso   1.00
C535   C     0.37182   0.17565   0.85423   0.00000  Uiso   1.00
C536   C     0.63960   0.01406   0.74017   0.00000  Uiso   1.00
C537   C     0.65098   0.06843   0.74889   0.00000  Uiso   1.00
C538   C     0.62891   0.15656   0.64661   0.00000  Uiso   1.00
C539   C     0.62301   0.12638   0.99929   0.00000  Uiso   1.00
C540   C     0.60614   0.14065   0.58943   0.00000  Uiso   1.00
C541   C     0.36498   0.21182   0.94655   0.00000  Uiso   1.00
C542   C     0.38816   0.21861   0.50294   0.00000  Uiso   1.00
C543   C     0.47506   0.17562   0.99242   0.00000  Uiso   1.00
C544   C     0.44175   0.19882   0.52614   0.00000  Uiso   1.00
C545   C     0.50303   0.10945   0.59612   0.00000  Uiso   1.00
C546   C     0.46320   0.06653   0.55823   0.00000  Uiso   1.00
C547   C     0.42962   0.03118   0.59010   0.00000  Uiso   1.00
C548   C     0.45751   0.18048   0.93569   0.00000  Uiso   1.00
C549   C     0.52828   0.15252   0.51301   0.00000  Uiso   1.00
C550   C     0.56727   0.14317   0.97812   0.00000  Uiso   1.00
C551   C     0.55276   0.15571   0.92408   0.00000  Uiso   1.00
C552   C     0.50058   0.17744   0.90449   0.00000  Uiso   1.00
C553   C     0.54542   0.13877   0.56731   0.00000  Uiso   1.00
C554   C     0.64437   0.12986   0.55551   0.00000  Uiso   1.00
H555   H     0.35737   0.12642   0.57213   0.00000  Uiso   1.00
H556   H     0.39846   0.00317   0.75388   0.00000  Uiso   1.00
H557   H     0.46054   0.00798   0.61787   0.00000  Uiso   1.00
H558   H     0.40548   0.05447   0.61480   0.00000  Uiso   1.00
H559   H     0.39745   0.00388   0.56099   0.00000  Uiso   1.00
H560   H     0.43078   0.08432   0.52620   0.00000  Uiso   1.00
H561   H     0.49033   0.04222   0.53754   0.00000  Uiso   1.00
H562   H     0.52883   0.08976   0.63128   0.00000  Uiso   1.00
H563   H     0.47598   0.13614   0.61362   0.00000  Uiso   1.00
H564   H     0.49049   0.12205   0.71330   0.00000  Uiso   1.00
H565   H     0.50948   0.21262   0.78465   0.00000  Uiso   1.00
H566   H     0.58314   0.15149   0.89778   0.00000  Uiso   1.00
H567   H     0.65242   0.11758   0.97294   0.00000  Uiso   1.00
H568   H     0.65493   0.22407   0.92953   0.00000  Uiso   1.00
H569   H     0.45822   0.20484   0.56986   0.00000  Uiso   1.00
H570   H     0.36326   0.23698   0.52901   0.00000  Uiso   1.00
H571   H     0.49689   0.19530   0.86621   0.00000  Uiso   1.00
N572   N     0.47827   0.15223   0.73543   0.00000  Uiso   1.00
N573   N     0.52173   0.18110   0.76458   0.00000  Uiso   1.00
O574   O     0.63102   0.24629   0.75358   0.00000  Uiso   1.00
O575   O     0.39075   0.23704   0.74424   0.00000  Uiso   1.00
O576   O     0.64823   0.17358   0.83380   0.00000  Uiso   1.00
O577   O     0.40796   0.16433   0.82446   0.00000  Uiso   1.00
O578   O     0.60925   0.09629   0.75577   0.00000  Uiso   1.00
O579   O     0.36898   0.08704   0.74643   0.00000  Uiso   1.00
O580   O     0.59204   0.16901   0.67554   0.00000  Uiso   1.00
O581   O     0.35177   0.15976   0.66620   0.00000  Uiso   1.00
Zn582  Zn    0.60453   0.17284   0.75624   0.00000  Uiso   1.00
Zn583  Zn    0.39547   0.16049   0.74377   0.00000  Uiso   1.00
Br584  Br    0.89034   0.32242   0.71595   0.00000  Uiso   1.00
C585   C     0.68027   0.26465   0.74614   0.00000  Uiso   1.00
C586   C     0.73152   0.18987   0.91262   0.00000  Uiso   1.00
C587   C     0.68675   0.31912   0.74507   0.00000  Uiso   1.00
C588   C     0.70515   0.17565   0.85423   0.00000  Uiso   1.00
C589   C     0.97293   0.01406   0.74017   0.00000  Uiso   1.00
C590   C     0.98432   0.06843   0.74889   0.00000  Uiso   1.00
C591   C     0.96224   0.15656   0.64661   0.00000  Uiso   1.00
C592   C     0.95634   0.12638   0.99929   0.00000  Uiso   1.00
C593   C     0.93948   0.14065   0.58943   0.00000  Uiso   1.00
C594   C     0.69831   0.21182   0.94655   0.00000  Uiso   1.00
C595   C     0.72149   0.21861   0.50294   0.00000  Uiso   1.00
C596   C     0.80839   0.17562   0.99242   0.00000  Uiso   1.00
C597   C     0.77508   0.19882   0.52614   0.00000  Uiso   1.00
C598   C     0.83636   0.10945   0.59612   0.00000  Uiso   1.00
C599   C     0.79654   0.06653   0.55823   0.00000  Uiso   1.00
C600   C     0.76295   0.03118   0.59010   0.00000  Uiso   1.00
C601   C     0.79084   0.18048   0.93569   0.00000  Uiso   1.00
C602   C     0.86161   0.15252   0.51301   0.00000  Uiso   1.00
C603   C     0.90060   0.14317   0.97812   0.00000  Uiso   1.00
C604   C     0.88610   0.15571   0.92408   0.00000  Uiso   1.00
C605   C     0.83391   0.17744   0.90449   0.00000  Uiso   1.00
C606   C     0.87875   0.13877   0.56731   0.00000  Uiso   1.00
C607   C     0.97770   0.12986   0.55551   0.00000  Uiso   1.00
H608   H     0.69070   0.12642   0.57213   0.00000  Uiso   1.00
H609   H     0.73179   0.00317   0.75388   0.00000  Uiso   1.00
H610   H     0.79387   0.00798   0.61787   0.00000  Uiso   1.00
H611   H     0.73881   0.05447   0.61480   0.00000  Uiso   1.00
H612   H     0.73078   0.00388   0.56099   0.00000  Uiso   1.00
H613   H     0.76412   0.08432   0.52620   0.00000  Uiso   1.00
H614   H     0.82366   0.04222   0.53754   0.00000  Uiso   1.00
H615   H     0.86216   0.08976   0.63128   0.00000  Uiso   1.00
H616   H     0.80931   0.13614   0.61362   0.00000  Uiso   1.00
H617   H     0.82383   0.12205   0.71330   0.00000  Uiso   1.00
H618   H     0.84281   0.21262   0.78465   0.00000  Uiso   1.00
H619   H     0.91647   0.15149   0.89778   0.00000  Uiso   1.00
H620   H     0.98575   0.11758   0.97294   0.00000  Uiso   1.00
H621   H     0.98826   0.22407   0.92953   0.00000  Uiso   1.00
H622   H     0.79155   0.20484   0.56986   0.00000  Uiso   1.00
H623   H     0.69659   0.23698   0.52901   0.00000  Uiso   1.00
H624   H     0.83022   0.19530   0.86621   0.00000  Uiso   1.00
N625   N     0.81160   0.15223   0.73543   0.00000  Uiso   1.00
N626   N     0.85507   0.18110   0.76458   0.00000  Uiso   1.00
O627   O     0.96435   0.24629   0.75358   0.00000  Uiso   1.00
O628   O     0.72408   0.23704   0.74424   0.00000  Uiso   1.00
O629   O     0.98157   0.17358   0.83380   0.00000  Uiso   1.00
O630   O     0.74130   0.16433   0.82446   0.00000  Uiso   1.00
O631   O     0.94258   0.09629   0.75577   0.00000  Uiso   1.00
O632   O     0.70231   0.08704   0.74643   0.00000  Uiso   1.00
O633   O     0.92537   0.16901   0.67554   0.00000  Uiso   1.00
O634   O     0.68510   0.15976   0.66620   0.00000  Uiso   1.00
Zn635  Zn    0.93786   0.17284   0.75624   0.00000  Uiso   1.00
Zn636  Zn    0.72881   0.16049   0.74377   0.00000  Uiso   1.00
Br637  Br    0.22367   0.65575   0.71595   0.00000  Uiso   1.00
C638   C     0.01360   0.59798   0.74614   0.00000  Uiso   1.00
C639   C     0.06485   0.52321   0.91262   0.00000  Uiso   1.00
C640   C     0.02008   0.65245   0.74507   0.00000  Uiso   1.00
C641   C     0.03849   0.50899   0.85423   0.00000  Uiso   1.00
C642   C     0.30627   0.34739   0.74017   0.00000  Uiso   1.00
C643   C     0.31765   0.40176   0.74889   0.00000  Uiso   1.00
C644   C     0.29558   0.48989   0.64661   0.00000  Uiso   1.00
C645   C     0.28967   0.45971   0.99929   0.00000  Uiso   1.00
C646   C     0.27281   0.47398   0.58943   0.00000  Uiso   1.00
C647   C     0.03165   0.54515   0.94655   0.00000  Uiso   1.00
C648   C     0.05483   0.55195   0.50294   0.00000  Uiso   1.00
C649   C     0.14172   0.50896   0.99242   0.00000  Uiso   1.00
C650   C     0.10842   0.53215   0.52614   0.00000  Uiso   1.00
C651   C     0.16970   0.44279   0.59612   0.00000  Uiso   1.00
C652   C     0.12987   0.39986   0.55823   0.00000  Uiso   1.00
C653   C     0.09628   0.36452   0.59010   0.00000  Uiso   1.00
C654   C     0.12417   0.51381   0.93569   0.00000  Uiso   1.00
C655   C     0.19494   0.48585   0.51301   0.00000  Uiso   1.00
C656   C     0.23394   0.47650   0.97812   0.00000  Uiso   1.00
C657   C     0.21943   0.48905   0.92408   0.00000  Uiso   1.00
C658   C     0.16725   0.51077   0.90449   0.00000  Uiso   1.00
C659   C     0.21209   0.47210   0.56731   0.00000  Uiso   1.00
C660   C     0.31103   0.46319   0.55551   0.00000  Uiso   1.00
H661   H     0.02403   0.45976   0.57213   0.00000  Uiso   1.00
H662   H     0.06513   0.33651   0.75388   0.00000  Uiso   1.00
H663   H     0.12721   0.34131   0.61787   0.00000  Uiso   1.00
H664   H     0.07215   0.38781   0.61480   0.00000  Uiso   1.00
H665   H     0.06411   0.33721   0.56099   0.00000  Uiso   1.00
H666   H     0.09745   0.41765   0.52620   0.00000  Uiso   1.00
H667   H     0.15699   0.37555   0.53754   0.00000  Uiso   1.00
H668   H     0.19549   0.42309   0.63128   0.00000  Uiso   1.00
H669   H     0.14264   0.46947   0.61362   0.00000  Uiso   1.00
H670   H     0.15716   0.45539   0.71330   0.00000  Uiso   1.00
H671   H     0.17615   0.54595   0.78465   0.00000  Uiso   1.00
H672   H     0.24980   0.48482   0.89778   0.00000  Uiso   1.00
H673   H     0.31908   0.45091   0.97294   0.00000  Uiso   1.00
H674   H     0.32159   0.55741   0.92953   0.00000  Uiso   1.00
H675   H     0.12489   0.53818   0.56986   0.00000  Uiso   1.00
H676   H     0.02993   0.57031   0.52901   0.00000  Uiso   1.00
H677   H     0.16355   0.52863   0.86621   0.00000  Uiso   1.00
N678   N     0.14493   0.48556   0.73543   0.00000  Uiso   1.00
N679   N     0.18840   0.51444   0.76458   0.00000  Uiso   1.00
O680   O     0.29769   0.57963   0.75358   0.00000  Uiso   1.00
O681   O     0.05742   0.57038   0.74424   0.00000  Uiso   1.00
O682   O     0.31490   0.50691   0.83380   0.00000  Uiso   1.00
O683   O     0.07463   0.49766   0.82446   0.00000  Uiso   1.00
O684   O     0.27592   0.42962   0.75577   0.00000  Uiso   1.00
O685   O     0.03565   0.42037   0.74643   0.00000  Uiso   1.00
O686   O     0.25870   0.50234   0.67554   0.00000  Uiso   1.00
O687   O     0.01843   0.49309   0.66620   0.00000  Uiso   1.00
Zn688  Zn    0.27119   0.50618   0.75624   0.00000  Uiso   1.00
Zn689  Zn    0.06214   0.49382   0.74377   0.00000  Uiso   1.00
Br690  Br    0.55701   0.65575   0.71595   0.00000  Uiso   1.00
C691   C     0.34694   0.59798   0.74614   0.00000  Uiso   1.00
C692   C     0.39818   0.52321   0.91262   0.00000  Uiso   1.00
C693   C     0.35341   0.65245   0.74507   0.00000  Uiso   1.00
C694   C     0.37182   0.50899   0.85423   0.00000  Uiso   1.00
C695   C     0.63960   0.34739   0.74017   0.00000  Uiso   1.00
C696   C     0.65098   0.40176   0.74889   0.00000  Uiso   1.00
C697   C     0.62891   0.48989   0.64661   0.00000  Uiso   1.00
C698   C     0.62301   0.45971   0.99929   0.00000  Uiso   1.00
C699   C     0.60614   0.47398   0.58943   0.00000  Uiso   1.00
C700   C     0.36498   0.54515   0.94655   0.00000  Uiso   1.00
C701   C     0.38816   0.55195   0.50294   0.00000  Uiso   1.00
C702   C     0.47506   0.50896   0.99242   0.00000  Uiso   1.00
C703   C     0.44175   0.53215   0.52614   0.00000  Uiso   1.00
C704   C     0.50303   0.44279   0.59612   0.00000  Uiso   1.00
C705   C     0.46320   0.39986   0.55823   0.00000  Uiso   1.00
C706   C     0.42962   0.36452   0.59010   0.00000  Uiso   1.00
C707   C     0.45751   0.51381   0.93569   0.00000  Uiso   1.00
C708   C     0.52828   0.48585   0.51301   0.00000  Uiso   1.00
C709   C     0.56727   0.47650   0.97812   0.00000  Uiso   1.00
C710   C     0.55276   0.48905   0.92408   0.00000  Uiso   1.00
C711   C     0.50058   0.51077   0.90449   0.00000  Uiso   1.00
C712   C     0.54542   0.47210   0.56731   0.00000  Uiso   1.00
C713   C     0.64437   0.46319   0.55551   0.00000  Uiso   1.00
H714   H     0.35737   0.45976   0.57213   0.00000  Uiso   1.00
H715   H     0.39846   0.33651   0.75388   0.00000  Uiso   1.00
H716   H     0.46054   0.34131   0.61787   0.00000  Uiso   1.00
H717   H     0.40548   0.38781   0.61480   0.00000  Uiso   1.00
H718   H     0.39745   0.33721   0.56099   0.00000  Uiso   1.00
H719   H     0.43078   0.41765   0.52620   0.00000  Uiso   1.00
H720   H     0.49033   0.37555   0.53754   0.00000  Uiso   1.00
H721   H     0.52883   0.42309   0.63128   0.00000  Uiso   1.00
H722   H     0.47598   0.46947   0.61362   0.00000  Uiso   1.00
H723   H     0.49049   0.45539   0.71330   0.00000  Uiso   1.00
H724   H     0.50948   0.54595   0.78465   0.00000  Uiso   1.00
H725   H     0.58314   0.48482   0.89778   0.00000  Uiso   1.00
H726   H     0.65242   0.45091   0.97294   0.00000  Uiso   1.00
H727   H     0.65493   0.55741   0.92953   0.00000  Uiso   1.00
H728   H     0.45822   0.53818   0.56986   0.00000  Uiso   1.00
H729   H     0.36326   0.57031   0.52901   0.00000  Uiso   1.00
H730   H     0.49689   0.52863   0.86621   0.00000  Uiso   1.00
N731   N     0.47827   0.48556   0.73543   0.00000  Uiso   1.00
N732   N     0.52173   0.51444   0.76458   0.00000  Uiso   1.00
O733   O     0.63102   0.57963   0.75358   0.00000  Uiso   1.00
O734   O     0.39075   0.57038   0.74424   0.00000  Uiso   1.00
O735   O     0.64823   0.50691   0.83380   0.00000  Uiso   1.00
O736   O     0.40796   0.49766   0.82446   0.00000  Uiso   1.00
O737   O     0.60925   0.42962   0.75577   0.00000  Uiso   1.00
O738   O     0.36898   0.42037   0.74643   0.00000  Uiso   1.00
O739   O     0.59204   0.50234   0.67554   0.00000  Uiso   1.00
O740   O     0.35177   0.49309   0.66620   0.00000  Uiso   1.00
Zn741  Zn    0.60453   0.50618   0.75624   0.00000  Uiso   1.00
Zn742  Zn    0.39547   0.49382   0.74377   0.00000  Uiso   1.00
Br743  Br    0.89034   0.65575   0.71595   0.00000  Uiso   1.00
C744   C     0.68027   0.59798   0.74614   0.00000  Uiso   1.00
C745   C     0.73152   0.52321   0.91262   0.00000  Uiso   1.00
C746   C     0.68675   0.65245   0.74507   0.00000  Uiso   1.00
C747   C     0.70515   0.50899   0.85423   0.00000  Uiso   1.00
C748   C     0.97293   0.34739   0.74017   0.00000  Uiso   1.00
C749   C     0.98432   0.40176   0.74889   0.00000  Uiso   1.00
C750   C     0.96224   0.48989   0.64661   0.00000  Uiso   1.00
C751   C     0.95634   0.45971   0.99929   0.00000  Uiso   1.00
C752   C     0.93948   0.47398   0.58943   0.00000  Uiso   1.00
C753   C     0.69831   0.54515   0.94655   0.00000  Uiso   1.00
C754   C     0.72149   0.55195   0.50294   0.00000  Uiso   1.00
C755   C     0.80839   0.50896   0.99242   0.00000  Uiso   1.00
C756   C     0.77508   0.53215   0.52614   0.00000  Uiso   1.00
C757   C     0.83636   0.44279   0.59612   0.00000  Uiso   1.00
C758   C     0.79654   0.39986   0.55823   0.00000  Uiso   1.00
C759   C     0.76295   0.36452   0.59010   0.00000  Uiso   1.00
C760   C     0.79084   0.51381   0.93569   0.00000  Uiso   1.00
C761   C     0.86161   0.48585   0.51301   0.00000  Uiso   1.00
C762   C     0.90060   0.47650   0.97812   0.00000  Uiso   1.00
C763   C     0.88610   0.48905   0.92408   0.00000  Uiso   1.00
C764   C     0.83391   0.51077   0.90449   0.00000  Uiso   1.00
C765   C     0.87875   0.47210   0.56731   0.00000  Uiso   1.00
C766   C     0.97770   0.46319   0.55551   0.00000  Uiso   1.00
H767   H     0.69070   0.45976   0.57213   0.00000  Uiso   1.00
H768   H     0.73179   0.33651   0.75388   0.00000  Uiso   1.00
H769   H     0.79387   0.34131   0.61787   0.00000  Uiso   1.00
H770   H     0.73881   0.38781   0.61480   0.00000  Uiso   1.00
H771   H     0.73078   0.33721   0.56099   0.00000  Uiso   1.00
H772   H     0.76412   0.41765   0.52620   0.00000  Uiso   1.00
H773   H     0.82366   0.37555   0.53754   0.00000  Uiso   1.00
H774   H     0.86216   0.42309   0.63128   0.00000  Uiso   1.00
H775   H     0.80931   0.46947   0.61362   0.00000  Uiso   1.00
H776   H     0.82383   0.45539   0.71330   0.00000  Uiso   1.00
H777   H     0.84281   0.54595   0.78465   0.00000  Uiso   1.00
H778   H     0.91647   0.48482   0.89778   0.00000  Uiso   1.00
H779   H     0.98575   0.45091   0.97294   0.00000  Uiso   1.00
H780   H     0.98826   0.55741   0.92953   0.00000  Uiso   1.00
H781   H     0.79155   0.53818   0.56986   0.00000  Uiso   1.00
H782   H     0.69659   0.57031   0.52901   0.00000  Uiso   1.00
H783   H     0.83022   0.52863   0.86621   0.00000  Uiso   1.00
N784   N     0.81160   0.48556   0.73543   0.00000  Uiso   1.00
N785   N     0.85507   0.51444   0.76458   0.00000  Uiso   1.00
O786   O     0.96435   0.57963   0.75358   0.00000  Uiso   1.00
O787   O     0.72408   0.57038   0.74424   0.00000  Uiso   1.00
O788   O     0.98157   0.50691   0.83380   0.00000  Uiso   1.00
O789   O     0.74130   0.49766   0.82446   0.00000  Uiso   1.00
O790   O     0.94258   0.42962   0.75577   0.00000  Uiso   1.00
O791   O     0.70231   0.42037   0.74643   0.00000  Uiso   1.00
O792   O     0.92537   0.50234   0.67554   0.00000  Uiso   1.00
O793   O     0.68510   0.49309   0.66620   0.00000  Uiso   1.00
Zn794  Zn    0.93786   0.50618   0.75624   0.00000  Uiso   1.00
Zn795  Zn    0.72881   0.49382   0.74377   0.00000  Uiso   1.00
Br796  Br    0.22367   0.98908   0.71595   0.00000  Uiso   1.00
C797   C     0.01360   0.93132   0.74614   0.00000  Uiso   1.00
C798   C     0.06485   0.85654   0.91262   0.00000  Uiso   1.00
C799   C     0.02008   0.98579   0.74507   0.00000  Uiso   1.00
C800   C     0.03849   0.84232   0.85423   0.00000  Uiso   1.00
C801   C     0.30627   0.68073   0.74017   0.00000  Uiso   1.00
C802   C     0.31765   0.73510   0.74889   0.00000  Uiso   1.00
C803   C     0.29558   0.82323   0.64661   0.00000  Uiso   1.00
C804   C     0.28967   0.79304   0.99929   0.00000  Uiso   1.00
C805   C     0.27281   0.80732   0.58943   0.00000  Uiso   1.00
C806   C     0.03165   0.87848   0.94655   0.00000  Uiso   1.00
C807   C     0.05483   0.88528   0.50294   0.00000  Uiso   1.00
C808   C     0.14172   0.84229   0.99242   0.00000  Uiso   1.00
C809   C     0.10842   0.86548   0.52614   0.00000  Uiso   1.00
C810   C     0.16970   0.77612   0.59612   0.00000  Uiso   1.00
C811   C     0.12987   0.73319   0.55823   0.00000  Uiso   1.00
C812   C     0.09628   0.69785   0.59010   0.00000  Uiso   1.00
C813   C     0.12417   0.84715   0.93569   0.00000  Uiso   1.00
C814   C     0.19494   0.81919   0.51301   0.00000  Uiso   1.00
C815   C     0.23394   0.80983   0.97812   0.00000  Uiso   1.00
C816   C     0.21943   0.82238   0.92408   0.00000  Uiso   1.00
C817   C     0.16725   0.84411   0.90449   0.00000  Uiso   1.00
C818   C     0.21209   0.80543   0.56731   0.00000  Uiso   1.00
C819   C     0.31103   0.79653   0.55551   0.00000  Uiso   1.00
H820   H     0.02403   0.79309   0.57213   0.00000  Uiso   1.00
H821   H     0.06513   0.66984   0.75388   0.00000  Uiso   1.00
H822   H     0.12721   0.67464   0.61787   0.00000  Uiso   1.00
H823   H     0.07215   0.72114   0.61480   0.00000  Uiso   1.00
H824   H     0.06411   0.67055   0.56099   0.00000  Uiso   1.00
H825   H     0.09745   0.75099   0.52620   0.00000  Uiso   1.00
H826   H     0.15699   0.70888   0.53754   0.00000  Uiso   1.00
H827   H     0.19549   0.75642   0.63128   0.00000  Uiso   1.00
H828   H     0.14264   0.80280   0.61362   0.00000  Uiso   1.00
H829   H     0.15716   0.78872   0.71330   0.00000  Uiso   1.00
H830   H     0.17615   0.87929   0.78465   0.00000  Uiso   1.00
H831   H     0.24980   0.81816   0.89778   0.00000  Uiso   1.00
H832   H     0.31908   0.78424   0.97294   0.00000  Uiso   1.00
H833   H     0.32159   0.89074   0.92953   0.00000  Uiso   1.00
H834   H     0.12489   0.87151   0.56986   0.00000  Uiso   1.00
H835   H     0.02993   0.90365   0.52901   0.00000  Uiso   1.00
H836   H     0.16355   0.86196   0.86621   0.00000  Uiso   1.00
N837   N     0.14493   0.81890   0.73543   0.00000  Uiso   1.00
N838   N     0.18840   0.84777   0.76458   0.00000  Uiso   1.00
O839   O     0.29769   0.91296   0.75358   0.00000  Uiso   1.00
O840   O     0.05742   0.90371   0.74424   0.00000  Uiso   1.00
O841   O     0.31490   0.84024   0.83380   0.00000  Uiso   1.00
O842   O     0.07463   0.83099   0.82446   0.00000  Uiso   1.00
O843   O     0.27592   0.76296   0.75577   0.00000  Uiso   1.00
O844   O     0.03565   0.75371   0.74643   0.00000  Uiso   1.00
O845   O     0.25870   0.83567   0.67554   0.00000  Uiso   1.00
O846   O     0.01843   0.82642   0.66620   0.00000  Uiso   1.00
Zn847  Zn    0.27119   0.83951   0.75624   0.00000  Uiso   1.00
Zn848  Zn    0.06214   0.82716   0.74377   0.00000  Uiso   1.00
Br849  Br    0.55701   0.98908   0.71595   0.00000  Uiso   1.00
C850   C     0.34694   0.93132   0.74614   0.00000  Uiso   1.00
C851   C     0.39818   0.85654   0.91262   0.00000  Uiso   1.00
C852   C     0.35341   0.98579   0.74507   0.00000  Uiso   1.00
C853   C     0.37182   0.84232   0.85423   0.00000  Uiso   1.00
C854   C     0.63960   0.68073   0.74017   0.00000  Uiso   1.00
C855   C     0.65098   0.73510   0.74889   0.00000  Uiso   1.00
C856   C     0.62891   0.82323   0.64661   0.00000  Uiso   1.00
C857   C     0.62301   0.79304   0.99929   0.00000  Uiso   1.00
C858   C     0.60614   0.80732   0.58943   0.00000  Uiso   1.00
C859   C     0.36498   0.87848   0.94655   0.00000  Uiso   1.00
C860   C     0.38816   0.88528   0.50294   0.00000  Uiso   1.00
C861   C     0.47506   0.84229   0.99242   0.00000  Uiso   1.00
C862   C     0.44175   0.86548   0.52614   0.00000  Uiso   1.00
C863   C     0.50303   0.77612   0.59612   0.00000  Uiso   1.00
C864   C     0.46320   0.73319   0.55823   0.00000  Uiso   1.00
C865   C     0.42962   0.69785   0.59010   0.00000  Uiso   1.00
C866   C     0.45751   0.84715   0.93569   0.00000  Uiso   1.00
C867   C     0.52828   0.81919   0.51301   0.00000  Uiso   1.00
C868   C     0.56727   0.80983   0.97812   0.00000  Uiso   1.00
C869   C     0.55276   0.82238   0.92408   0.00000  Uiso   1.00
C870   C     0.50058   0.84411   0.90449   0.00000  Uiso   1.00
C871   C     0.54542   0.80543   0.56731   0.00000  Uiso   1.00
C872   C     0.64437   0.79653   0.55551   0.00000  Uiso   1.00
H873   H     0.35737   0.79309   0.57213   0.00000  Uiso   1.00
H874   H     0.39846   0.66984   0.75388   0.00000  Uiso   1.00
H875   H     0.46054   0.67464   0.61787   0.00000  Uiso   1.00
H876   H     0.40548   0.72114   0.61480   0.00000  Uiso   1.00
H877   H     0.39745   0.67055   0.56099   0.00000  Uiso   1.00
H878   H     0.43078   0.75099   0.52620   0.00000  Uiso   1.00
H879   H     0.49033   0.70888   0.53754   0.00000  Uiso   1.00
H880   H     0.52883   0.75642   0.63128   0.00000  Uiso   1.00
H881   H     0.47598   0.80280   0.61362   0.00000  Uiso   1.00
H882   H     0.49049   0.78872   0.71330   0.00000  Uiso   1.00
H883   H     0.50948   0.87929   0.78465   0.00000  Uiso   1.00
H884   H     0.58314   0.81816   0.89778   0.00000  Uiso   1.00
H885   H     0.65242   0.78424   0.97294   0.00000  Uiso   1.00
H886   H     0.65493   0.89074   0.92953   0.00000  Uiso   1.00
H887   H     0.45822   0.87151   0.56986   0.00000  Uiso   1.00
H888   H     0.36326   0.90365   0.52901   0.00000  Uiso   1.00
H889   H     0.49689   0.86196   0.86621   0.00000  Uiso   1.00
N890   N     0.47827   0.81890   0.73543   0.00000  Uiso   1.00
N891   N     0.52173   0.84777   0.76458   0.00000  Uiso   1.00
O892   O     0.63102   0.91296   0.75358   0.00000  Uiso   1.00
O893   O     0.39075   0.90371   0.74424   0.00000  Uiso   1.00
O894   O     0.64823   0.84024   0.83380   0.00000  Uiso   1.00
O895   O     0.40796   0.83099   0.82446   0.00000  Uiso   1.00
O896   O     0.60925   0.76296   0.75577   0.00000  Uiso   1.00
O897   O     0.36898   0.75371   0.74643   0.00000  Uiso   1.00
O898   O     0.59204   0.83567   0.67554   0.00000  Uiso   1.00
O899   O     0.35177   0.82642   0.66620   0.00000  Uiso   1.00
Zn900  Zn    0.60453   0.83951   0.75624   0.00000  Uiso   1.00
Zn901  Zn    0.39547   0.82716   0.74377   0.00000  Uiso   1.00
Br902  Br    0.89034   0.98908   0.71595   0.00000  Uiso   1.00
C903   C     0.68027   0.93132   0.74614   0.00000  Uiso   1.00
C904   C     0.73152   0.85654   0.91262   0.00000  Uiso   1.00
C905   C     0.68675   0.98579   0.74507   0.00000  Uiso   1.00
C906   C     0.70515   0.84232   0.85423   0.00000  Uiso   1.00
C907   C     0.97293   0.68073   0.74017   0.00000  Uiso   1.00
C908   C     0.98432   0.73510   0.74889   0.00000  Uiso   1.00
C909   C     0.96224   0.82323   0.64661   0.00000  Uiso   1.00
C910   C     0.95634   0.79304   0.99929   0.00000  Uiso   1.00
C911   C     0.93948   0.80732   0.58943   0.00000  Uiso   1.00
C912   C     0.69831   0.87848   0.94655   0.00000  Uiso   1.00
C913   C     0.72149   0.88528   0.50294   0.00000  Uiso   1.00
C914   C     0.80839   0.84229   0.99242   0.00000  Uiso   1.00
C915   C     0.77508   0.86548   0.52614   0.00000  Uiso   1.00
C916   C     0.83636   0.77612   0.59612   0.00000  Uiso   1.00
C917   C     0.79654   0.73319   0.55823   0.00000  Uiso   1.00
C918   C     0.76295   0.69785   0.59010   0.00000  Uiso   1.00
C919   C     0.79084   0.84715   0.93569   0.00000  Uiso   1.00
C920   C     0.86161   0.81919   0.51301   0.00000  Uiso   1.00
C921   C     0.90060   0.80983   0.97812   0.00000  Uiso   1.00
C922   C     0.88610   0.82238   0.92408   0.00000  Uiso   1.00
C923   C     0.83391   0.84411   0.90449   0.00000  Uiso   1.00
C924   C     0.87875   0.80543   0.56731   0.00000  Uiso   1.00
C925   C     0.97770   0.79653   0.55551   0.00000  Uiso   1.00
H926   H     0.69070   0.79309   0.57213   0.00000  Uiso   1.00
H927   H     0.73179   0.66984   0.75388   0.00000  Uiso   1.00
H928   H     0.79387   0.67464   0.61787   0.00000  Uiso   1.00
H929   H     0.73881   0.72114   0.61480   0.00000  Uiso   1.00
H930   H     0.73078   0.67055   0.56099   0.00000  Uiso   1.00
H931   H     0.76412   0.75099   0.52620   0.00000  Uiso   1.00
H932   H     0.82366   0.70888   0.53754   0.00000  Uiso   1.00
H933   H     0.86216   0.75642   0.63128   0.00000  Uiso   1.00
H934   H     0.80931   0.80280   0.61362   0.00000  Uiso   1.00
H935   H     0.82383   0.78872   0.71330   0.00000  Uiso   1.00
H936   H     0.84281   0.87929   0.78465   0.00000  Uiso   1.00
H937   H     0.91647   0.81816   0.89778   0.00000  Uiso   1.00
H938   H     0.98575   0.78424   0.97294   0.00000  Uiso   1.00
H939   H     0.98826   0.89074   0.92953   0.00000  Uiso   1.00
H940   H     0.79155   0.87151   0.56986   0.00000  Uiso   1.00
H941   H     0.69659   0.90365   0.52901   0.00000  Uiso   1.00
H942   H     0.83022   0.86196   0.86621   0.00000  Uiso   1.00
N943   N     0.81160   0.81890   0.73543   0.00000  Uiso   1.00
N944   N     0.85507   0.84777   0.76458   0.00000  Uiso   1.00
O945   O     0.96435   0.91296   0.75358   0.00000  Uiso   1.00
O946   O     0.72408   0.90371   0.74424   0.00000  Uiso   1.00
O947   O     0.98157   0.84024   0.83380   0.00000  Uiso   1.00
O948   O     0.74130   0.83099   0.82446   0.00000  Uiso   1.00
O949   O     0.94258   0.76296   0.75577   0.00000  Uiso   1.00
O950   O     0.70231   0.75371   0.74643   0.00000  Uiso   1.00
O951   O     0.92537   0.83567   0.67554   0.00000  Uiso   1.00
O952   O     0.68510   0.82642   0.66620   0.00000  Uiso   1.00
Zn953  Zn    0.93786   0.83951   0.75624   0.00000  Uiso   1.00
Zn954  Zn    0.72881   0.82716   0.74377   0.00000  Uiso   1.00
loop_
_geom_bond_atom_site_label_1
_geom_bond_atom_site_label_2
_geom_bond_distance
_geom_bond_site_symmetry_2
_ccdc_geom_bond_type
Br1    C165    1.946   .     S
C2     O45     1.293   .     A
C2     C4      1.403   .     S
C2     O150    1.272   1_455 S
C3     C11     1.400   .     A
C3     C18     1.419   .     A
C3     C5      1.475   .     S
C4     C271    1.347   1_455 S
C4     H185    1.088   .     S
C5     O47     1.287   .     A
C5     O152    1.311   1_455 S
C6     C7      1.406   .     S
C6     C375    1.347   1_545 S
C6     Br319   1.946   1_545 S
C7     O48     1.286   .     A
C7     O102    1.279   .     S
C8     C10     1.444   .     S
C8     O50     1.293   .     A
C8     O104    1.291   .     S
C9     C20     1.396   .     A
C9     H37     1.083   .     S
C9     C501    1.382   .     S
C10    C23     1.400   .     A
C10    C24     1.398   .     A
C11    C489    1.395   .     S
C11    H144    1.082   1_455 S
C12    H40     1.083   .     S
C12    C14     1.396   .     A
C12    C488    1.395   1_554 S
C13    C18     1.402   .     A
C13    C491    1.412   .     S
C13    C496    1.416   .     S
C14    H39     1.078   .     S
C14    C490    1.412   1_554 S
C15    C23     1.531   .     S
C15    H32     1.112   .     S
C15    C16     1.539   .     S
C15    H33     1.106   .     S
C16    H31     1.112   .     S
C16    H30     1.110   .     S
C16    C17     1.528   .     S
C17    H27     1.109   .     S
C17    H29     1.110   .     S
C17    H28     1.110   .     S
C18    C22     1.412   .     A
C19    C23     1.398   .     A
C19    C490    1.416   1_554 S
C19    C497    1.423   1_554 S
C20    C21     1.378   .     A
C20    C496    1.423   .     S
C21    H36     1.080   .     S
C21    C22     1.374   .     A
C22    H41     1.070   .     S
C24    C486    1.382   1_554 S
C24    H78     1.081   .     S
H25    C130    1.081   1_455 S
H26    C322    1.088   1_545 S
H34    N42     1.029   .     S
H35    N43     1.027   .     S
H38    C64     1.082   .     S
N42    Zn53    2.018   .     S
N42    N43     1.281   .     D
N43    Zn52    2.018   .     S
O44    Zn52    1.960   .     S
O44    C55     1.272   .     S
O45    Zn53    1.981   .     S
O46    Zn52    1.981   .     S
O46    C58     1.311   .     S
O47    Zn53    1.975   .     S
O48    Zn52    1.981   .     S
O49    Zn53    1.960   .     S
O49    C113    1.279   1_455 S
O50    Zn52    1.975   .     S
O51    Zn53    1.981   .     S
O51    C114    1.291   1_455 S
Br54   C218    1.946   .     S
C55    O98     1.293   .     A
C55    C57     1.403   .     S
C56    C64     1.400   .     A
C56    C71     1.419   .     A
C56    C58     1.475   .     S
C57    C165    1.347   .     S
C57    H238    1.088   .     S
C58    O100    1.287   .     A
C59    C60     1.406   .     S
C59    C428    1.347   1_545 S
C59    Br372   1.946   1_545 S
C60    O101    1.286   .     A
C60    O155    1.279   .     S
C61    C63     1.444   .     S
C61    O103    1.293   .     A
C61    O157    1.291   .     S
C62    C73     1.396   .     A
C62    H90     1.083   .     S
C62    C554    1.382   .     S
C63    C76     1.400   .     A
C63    C77     1.398   .     A
C64    C542    1.395   .     S
C65    H93     1.083   .     S
C65    C67     1.396   .     A
C65    C541    1.395   1_554 S
C66    C71     1.402   .     A
C66    C544    1.412   .     S
C66    C549    1.416   .     S
C67    H92     1.078   .     S
C67    C543    1.412   1_554 S
C68    C76     1.531   .     S
C68    H85     1.112   .     S
C68    C69     1.539   .     S
C68    H86     1.106   .     S
C69    H84     1.112   .     S
C69    H83     1.110   .     S
C69    C70     1.528   .     S
C70    H80     1.109   .     S
C70    H82     1.110   .     S
C70    H81     1.110   .     S
C71    C75     1.412   .     A
C72    C76     1.398   .     A
C72    C543    1.416   1_554 S
C72    C550    1.423   1_554 S
C73    C74     1.378   .     A
C73    C549    1.423   .     S
C74    H89     1.080   .     S
C74    C75     1.374   .     A
C75    H94     1.070   .     S
C77    C539    1.382   1_554 S
C77    H131    1.081   .     S
H79    C375    1.088   1_545 S
H87    N95     1.029   .     S
H88    N96     1.027   .     S
H91    C117    1.082   .     S
N95    Zn106   2.018   .     S
N95    N96     1.281   .     D
N96    Zn105   2.018   .     S
O97    Zn105   1.960   .     S
O97    C108    1.272   .     S
O98    Zn106   1.981   .     S
O99    Zn105   1.981   .     S
O99    C111    1.311   .     S
O100   Zn106   1.975   .     S
O101   Zn105   1.981   .     S
O102   Zn106   1.960   .     S
O103   Zn105   1.975   .     S
O104   Zn106   1.981   .     S
Br107  C271    1.946   .     S
C108   O151    1.293   .     A
C108   C110    1.403   .     S
C109   C117    1.400   .     A
C109   C124    1.419   .     A
C109   C111    1.475   .     S
C110   C218    1.347   .     S
C110   H291    1.088   .     S
C111   O153    1.287   .     A
C112   C113    1.406   .     S
C112   C322    1.347   1_645 S
C112   Br425   1.946   1_545 S
C113   O154    1.286   .     A
C113   O49     1.279   1_655 S
C114   C116    1.444   .     S
C114   O156    1.293   .     A
C114   O51     1.291   1_655 S
C115   C126    1.396   .     A
C115   H143    1.083   .     S
C115   C607    1.382   .     S
C116   C129    1.400   .     A
C116   C130    1.398   .     A
C117   C595    1.395   .     S
C118   H146    1.083   .     S
C118   C120    1.396   .     A
C118   C594    1.395   1_554 S
C119   C124    1.402   .     A
C119   C597    1.412   .     S
C119   C602    1.416   .     S
C120   H145    1.078   .     S
C120   C596    1.412   1_554 S
C121   C129    1.531   .     S
C121   H138    1.112   .     S
C121   C122    1.539   .     S
C121   H139    1.106   .     S
C122   H137    1.112   .     S
C122   H136    1.110   .     S
C122   C123    1.528   .     S
C123   H133    1.109   .     S
C123   H135    1.110   .     S
C123   H134    1.110   .     S
C124   C128    1.412   .     A
C125   C129    1.398   .     A
C125   C596    1.416   1_554 S
C125   C603    1.423   1_554 S
C126   C127    1.378   .     A
C126   C602    1.423   .     S
C127   H142    1.080   .     S
C127   C128    1.374   .     A
C128   H147    1.070   .     S
C130   C592    1.382   1_554 S
C130   H25     1.081   1_655 S
H132   C428    1.088   1_545 S
H140   N148    1.029   .     S
H141   N149    1.027   .     S
H144   C11     1.082   1_655 S
N148   Zn159   2.018   .     S
N148   N149    1.281   .     D
N149   Zn158   2.018   .     S
O150   Zn158   1.960   .     S
O150   C2      1.272   1_655 S
O151   Zn159   1.981   .     S
O152   Zn158   1.981   .     S
O152   C5      1.311   1_655 S
O153   Zn159   1.975   .     S
O154   Zn158   1.981   .     S
O155   Zn159   1.960   .     S
O156   Zn158   1.975   .     S
O157   Zn159   1.981   .     S
Br160  C324    1.946   .     S
C161   O204    1.293   .     A
C161   C163    1.403   .     S
C161   O309    1.272   1_455 S
C162   C170    1.400   .     A
C162   C177    1.419   .     A
C162   C164    1.475   .     S
C163   C430    1.347   1_455 S
C163   H344    1.088   .     S
C164   O206    1.287   .     A
C164   O311    1.311   1_455 S
C165   C166    1.406   .     S
C166   O207    1.286   .     A
C166   O261    1.279   .     S
C167   C169    1.444   .     S
C167   O209    1.293   .     A
C167   O263    1.291   .     S
C168   C179    1.396   .     A
C168   H196    1.083   .     S
C168   C660    1.382   .     S
C169   C182    1.400   .     A
C169   C183    1.398   .     A
C170   C648    1.395   .     S
C170   H303    1.082   1_455 S
C171   H199    1.083   .     S
C171   C173    1.396   .     A
C171   C647    1.395   1_554 S
C172   C177    1.402   .     A
C172   C650    1.412   .     S
C172   C655    1.416   .     S
C173   H198    1.078   .     S
C173   C649    1.412   1_554 S
C174   C182    1.531   .     S
C174   H191    1.112   .     S
C174   C175    1.539   .     S
C174   H192    1.106   .     S
C175   H190    1.112   .     S
C175   H189    1.110   .     S
C175   C176    1.528   .     S
C176   H186    1.109   .     S
C176   H188    1.110   .     S
C176   H187    1.110   .     S
C177   C181    1.412   .     A
C178   C182    1.398   .     A
C178   C649    1.416   1_554 S
C178   C656    1.423   1_554 S
C179   C180    1.378   .     A
C179   C655    1.423   .     S
C180   H195    1.080   .     S
C180   C181    1.374   .     A
C181   H200    1.070   .     S
C183   C645    1.382   1_554 S
C183   H237    1.081   .     S
H184   C289    1.081   1_455 S
H193   N201    1.029   .     S
H194   N202    1.027   .     S
H197   C223    1.082   .     S
N201   Zn212   2.018   .     S
N201   N202    1.281   .     D
N202   Zn211   2.018   .     S
O203   Zn211   1.960   .     S
O203   C214    1.272   .     S
O204   Zn212   1.981   .     S
O205   Zn211   1.981   .     S
O205   C217    1.311   .     S
O206   Zn212   1.975   .     S
O207   Zn211   1.981   .     S
O208   Zn212   1.960   .     S
O208   C272    1.279   1_455 S
O209   Zn211   1.975   .     S
O210   Zn212   1.981   .     S
O210   C273    1.291   1_455 S
Br213  C377    1.946   .     S
C214   O257    1.293   .     A
C214   C216    1.403   .     S
C215   C223    1.400   .     A
C215   C230    1.419   .     A
C215   C217    1.475   .     S
C216   C324    1.347   .     S
C216   H397    1.088   .     S
C217   O259    1.287   .     A
C218   C219    1.406   .     S
C219   O260    1.286   .     A
C219   O314    1.279   .     S
C220   C222    1.444   .     S
C220   O262    1.293   .     A
C220   O316    1.291   .     S
C221   C232    1.396   .     A
C221   H249    1.083   .     S
C221   C713    1.382   .     S
C222   C235    1.400   .     A
C222   C236    1.398   .     A
C223   C701    1.395   .     S
C224   H252    1.083   .     S
C224   C226    1.396   .     A
C224   C700    1.395   1_554 S
C225   C230    1.402   .     A
C225   C703    1.412   .     S
C225   C708    1.416   .     S
C226   H251    1.078   .     S
C226   C702    1.412   1_554 S
C227   C235    1.531   .     S
C227   H244    1.112   .     S
C227   C228    1.539   .     S
C227   H245    1.106   .     S
C228   H243    1.112   .     S
C228   H242    1.110   .     S
C228   C229    1.528   .     S
C229   H239    1.109   .     S
C229   H241    1.110   .     S
C229   H240    1.110   .     S
C230   C234    1.412   .     A
C231   C235    1.398   .     A
C231   C702    1.416   1_554 S
C231   C709    1.423   1_554 S
C232   C233    1.378   .     A
C232   C708    1.423   .     S
C233   H248    1.080   .     S
C233   C234    1.374   .     A
C234   H253    1.070   .     S
C236   C698    1.382   1_554 S
C236   H290    1.081   .     S
H246   N254    1.029   .     S
H247   N255    1.027   .     S
H250   C276    1.082   .     S
N254   Zn265   2.018   .     S
N254   N255    1.281   .     D
N255   Zn264   2.018   .     S
O256   Zn264   1.960   .     S
O256   C267    1.272   .     S
O257   Zn265   1.981   .     S
O258   Zn264   1.981   .     S
O258   C270    1.311   .     S
O259   Zn265   1.975   .     S
O260   Zn264   1.981   .     S
O261   Zn265   1.960   .     S
O262   Zn264   1.975   .     S
O263   Zn265   1.981   .     S
Br266  C430    1.946   .     S
C267   O310    1.293   .     A
C267   C269    1.403   .     S
C268   C276    1.400   .     A
C268   C283    1.419   .     A
C268   C270    1.475   .     S
C269   C377    1.347   .     S
C269   H450    1.088   .     S
C270   O312    1.287   .     A
C271   C272    1.406   .     S
C271   C4      1.347   1_655 S
C272   O313    1.286   .     A
C272   O208    1.279   1_655 S
C273   C275    1.444   .     S
C273   O315    1.293   .     A
C273   O210    1.291   1_655 S
C274   C285    1.396   .     A
C274   H302    1.083   .     S
C274   C766    1.382   .     S
C275   C288    1.400   .     A
C275   C289    1.398   .     A
C276   C754    1.395   .     S
C277   H305    1.083   .     S
C277   C279    1.396   .     A
C277   C753    1.395   1_554 S
C278   C283    1.402   .     A
C278   C756    1.412   .     S
C278   C761    1.416   .     S
C279   H304    1.078   .     S
C279   C755    1.412   1_554 S
C280   C288    1.531   .     S
C280   H297    1.112   .     S
C280   C281    1.539   .     S
C280   H298    1.106   .     S
C281   H296    1.112   .     S
C281   H295    1.110   .     S
C281   C282    1.528   .     S
C282   H292    1.109   .     S
C282   H294    1.110   .     S
C282   H293    1.110   .     S
C283   C287    1.412   .     A
C284   C288    1.398   .     A
C284   C755    1.416   1_554 S
C284   C762    1.423   1_554 S
C285   C286    1.378   .     A
C285   C761    1.423   .     S
C286   H301    1.080   .     S
C286   C287    1.374   .     A
C287   H306    1.070   .     S
C289   C751    1.382   1_554 S
C289   H184    1.081   1_655 S
H299   N307    1.029   .     S
H300   N308    1.027   .     S
H303   C170    1.082   1_655 S
N307   Zn318   2.018   .     S
N307   N308    1.281   .     D
N308   Zn317   2.018   .     S
O309   Zn317   1.960   .     S
O309   C161    1.272   1_655 S
O310   Zn318   1.981   .     S
O311   Zn317   1.981   .     S
O311   C164    1.311   1_655 S
O312   Zn318   1.975   .     S
O313   Zn317   1.981   .     S
O314   Zn318   1.960   .     S
O315   Zn317   1.975   .     S
O316   Zn318   1.981   .     S
Br319  C6      1.946   1_565 S
C320   O363    1.293   .     A
C320   C322    1.403   .     S
C320   O468    1.272   1_455 S
C321   C329    1.400   .     A
C321   C336    1.419   .     A
C321   C323    1.475   .     S
C322   C112    1.347   1_465 S
C322   H26     1.088   1_565 S
C323   O365    1.287   .     A
C323   O470    1.311   1_455 S
C324   C325    1.406   .     S
C325   O366    1.286   .     A
C325   O420    1.279   .     S
C326   C328    1.444   .     S
C326   O368    1.293   .     A
C326   O422    1.291   .     S
C327   C338    1.396   .     A
C327   H355    1.083   .     S
C327   C819    1.382   .     S
C328   C341    1.400   .     A
C328   C342    1.398   .     A
C329   C807    1.395   .     S
C329   H462    1.082   1_455 S
C330   H358    1.083   .     S
C330   C332    1.396   .     A
C330   C806    1.395   1_554 S
C331   C336    1.402   .     A
C331   C809    1.412   .     S
C331   C814    1.416   .     S
C332   H357    1.078   .     S
C332   C808    1.412   1_554 S
C333   C341    1.531   .     S
C333   H350    1.112   .     S
C333   C334    1.539   .     S
C333   H351    1.106   .     S
C334   H349    1.112   .     S
C334   H348    1.110   .     S
C334   C335    1.528   .     S
C335   H345    1.109   .     S
C335   H347    1.110   .     S
C335   H346    1.110   .     S
C336   C340    1.412   .     A
C337   C341    1.398   .     A
C337   C808    1.416   1_554 S
C337   C815    1.423   1_554 S
C338   C339    1.378   .     A
C338   C814    1.423   .     S
C339   H354    1.080   .     S
C339   C340    1.374   .     A
C340   H359    1.070   .     S
C342   C804    1.382   1_554 S
C342   H396    1.081   .     S
H343   C448    1.081   1_455 S
H352   N360    1.029   .     S
H353   N361    1.027   .     S
H356   C382    1.082   .     S
N360   Zn371   2.018   .     S
N360   N361    1.281   .     D
N361   Zn370   2.018   .     S
O362   Zn370   1.960   .     S
O362   C373    1.272   .     S
O363   Zn371   1.981   .     S
O364   Zn370   1.981   .     S
O364   C376    1.311   .     S
O365   Zn371   1.975   .     S
O366   Zn370   1.981   .     S
O367   Zn371   1.960   .     S
O367   C431    1.279   1_455 S
O368   Zn370   1.975   .     S
O369   Zn371   1.981   .     S
O369   C432    1.291   1_455 S
Br372  C59     1.946   1_565 S
C373   O416    1.293   .     A
C373   C375    1.403   .     S
C374   C382    1.400   .     A
C374   C389    1.419   .     A
C374   C376    1.475   .     S
C375   C6      1.347   1_565 S
C375   H79     1.088   1_565 S
C376   O418    1.287   .     A
C377   C378    1.406   .     S
C378   O419    1.286   .     A
C378   O473    1.279   .     S
C379   C381    1.444   .     S
C379   O421    1.293   .     A
C379   O475    1.291   .     S
C380   C391    1.396   .     A
C380   H408    1.083   .     S
C380   C872    1.382   .     S
C381   C394    1.400   .     A
C381   C395    1.398   .     A
C382   C860    1.395   .     S
C383   H411    1.083   .     S
C383   C385    1.396   .     A
C383   C859    1.395   1_554 S
C384   C389    1.402   .     A
C384   C862    1.412   .     S
C384   C867    1.416   .     S
C385   H410    1.078   .     S
C385   C861    1.412   1_554 S
C386   C394    1.531   .     S
C386   H403    1.112   .     S
C386   C387    1.539   .     S
C386   H404    1.106   .     S
C387   H402    1.112   .     S
C387   H401    1.110   .     S
C387   C388    1.528   .     S
C388   H398    1.109   .     S
C388   H400    1.110   .     S
C388   H399    1.110   .     S
C389   C393    1.412   .     A
C390   C394    1.398   .     A
C390   C861    1.416   1_554 S
C390   C868    1.423   1_554 S
C391   C392    1.378   .     A
C391   C867    1.423   .     S
C392   H407    1.080   .     S
C392   C393    1.374   .     A
C393   H412    1.070   .     S
C395   C857    1.382   1_554 S
C395   H449    1.081   .     S
H405   N413    1.029   .     S
H406   N414    1.027   .     S
H409   C435    1.082   .     S
N413   Zn424   2.018   .     S
N413   N414    1.281   .     D
N414   Zn423   2.018   .     S
O415   Zn423   1.960   .     S
O415   C426    1.272   .     S
O416   Zn424   1.981   .     S
O417   Zn423   1.981   .     S
O417   C429    1.311   .     S
O418   Zn424   1.975   .     S
O419   Zn423   1.981   .     S
O420   Zn424   1.960   .     S
O421   Zn423   1.975   .     S
O422   Zn424   1.981   .     S
Br425  C112    1.946   1_565 S
C426   O469    1.293   .     A
C426   C428    1.403   .     S
C427   C435    1.400   .     A
C427   C442    1.419   .     A
C427   C429    1.475   .     S
C428   C59     1.347   1_565 S
C428   H132    1.088   1_565 S
C429   O471    1.287   .     A
C430   C431    1.406   .     S
C430   C163    1.347   1_655 S
C431   O472    1.286   .     A
C431   O367    1.279   1_655 S
C432   C434    1.444   .     S
C432   O474    1.293   .     A
C432   O369    1.291   1_655 S
C433   C444    1.396   .     A
C433   H461    1.083   .     S
C433   C925    1.382   .     S
C434   C447    1.400   .     A
C434   C448    1.398   .     A
C435   C913    1.395   .     S
C436   H464    1.083   .     S
C436   C438    1.396   .     A
C436   C912    1.395   1_554 S
C437   C442    1.402   .     A
C437   C915    1.412   .     S
C437   C920    1.416   .     S
C438   H463    1.078   .     S
C438   C914    1.412   1_554 S
C439   C447    1.531   .     S
C439   H456    1.112   .     S
C439   C440    1.539   .     S
C439   H457    1.106   .     S
C440   H455    1.112   .     S
C440   H454    1.110   .     S
C440   C441    1.528   .     S
C441   H451    1.109   .     S
C441   H453    1.110   .     S
C441   H452    1.110   .     S
C442   C446    1.412   .     A
C443   C447    1.398   .     A
C443   C914    1.416   1_554 S
C443   C921    1.423   1_554 S
C444   C445    1.378   .     A
C444   C920    1.423   .     S
C445   H460    1.080   .     S
C445   C446    1.374   .     A
C446   H465    1.070   .     S
C448   C910    1.382   1_554 S
C448   H343    1.081   1_655 S
H458   N466    1.029   .     S
H459   N467    1.027   .     S
H462   C329    1.082   1_655 S
N466   Zn477   2.018   .     S
N466   N467    1.281   .     D
N467   Zn476   2.018   .     S
O468   Zn476   1.960   .     S
O468   C320    1.272   1_655 S
O469   Zn477   1.981   .     S
O470   Zn476   1.981   .     S
O470   C323    1.311   1_655 S
O471   Zn477   1.975   .     S
O472   Zn476   1.981   .     S
O473   Zn477   1.960   .     S
O474   Zn476   1.975   .     S
O475   Zn477   1.981   .     S
Br478  C642    1.946   .     S
C479   O522    1.293   .     A
C479   C481    1.403   .     S
C479   O627    1.272   1_455 S
C480   C488    1.400   .     A
C480   C495    1.419   .     A
C480   C482    1.475   .     S
C481   C748    1.347   1_455 S
C481   H662    1.088   .     S
C482   O524    1.287   .     A
C482   O629    1.311   1_455 S
C483   C484    1.406   .     S
C483   C852    1.347   1_545 S
C483   Br796   1.946   1_545 S
C484   O525    1.286   .     A
C484   O579    1.279   .     S
C485   C487    1.444   .     S
C485   O527    1.293   .     A
C485   O581    1.291   .     S
C486   C497    1.396   .     A
C486   H514    1.083   .     S
C486   C24     1.382   1_556 S
C487   C500    1.400   .     A
C487   C501    1.398   .     A
C488   C12     1.395   1_556 S
C488   H621    1.082   1_455 S
C489   H517    1.083   .     S
C489   C491    1.396   .     A
C490   C495    1.402   .     A
C490   C14     1.412   1_556 S
C490   C19     1.416   1_556 S
C491   H516    1.078   .     S
C492   C500    1.531   .     S
C492   H509    1.112   .     S
C492   C493    1.539   .     S
C492   H510    1.106   .     S
C493   H508    1.112   .     S
C493   H507    1.110   .     S
C493   C494    1.528   .     S
C494   H504    1.109   .     S
C494   H506    1.110   .     S
C494   H505    1.110   .     S
C495   C499    1.412   .     A
C496   C500    1.398   .     A
C497   C498    1.378   .     A
C497   C19     1.423   1_556 S
C498   H513    1.080   .     S
C498   C499    1.374   .     A
C499   H518    1.070   .     S
C501   H555    1.081   .     S
H502   C607    1.081   1_455 S
H503   C799    1.088   1_545 S
H511   N519    1.029   .     S
H512   N520    1.027   .     S
H515   C541    1.082   .     S
N519   Zn530   2.018   .     S
N519   N520    1.281   .     D
N520   Zn529   2.018   .     S
O521   Zn529   1.960   .     S
O521   C532    1.272   .     S
O522   Zn530   1.981   .     S
O523   Zn529   1.981   .     S
O523   C535    1.311   .     S
O524   Zn530   1.975   .     S
O525   Zn529   1.981   .     S
O526   Zn530   1.960   .     S
O526   C590    1.279   1_455 S
O527   Zn529   1.975   .     S
O528   Zn530   1.981   .     S
O528   C591    1.291   1_455 S
Br531  C695    1.946   .     S
C532   O575    1.293   .     A
C532   C534    1.403   .     S
C533   C541    1.400   .     A
C533   C548    1.419   .     A
C533   C535    1.475   .     S
C534   C642    1.347   .     S
C534   H715    1.088   .     S
C535   O577    1.287   .     A
C536   C537    1.406   .     S
C536   C905    1.347   1_545 S
C536   Br849   1.946   1_545 S
C537   O578    1.286   .     A
C537   O632    1.279   .     S
C538   C540    1.444   .     S
C538   O580    1.293   .     A
C538   O634    1.291   .     S
C539   C550    1.396   .     A
C539   H567    1.083   .     S
C539   C77     1.382   1_556 S
C540   C553    1.400   .     A
C540   C554    1.398   .     A
C541   C65     1.395   1_556 S
C542   H570    1.083   .     S
C542   C544    1.396   .     A
C543   C548    1.402   .     A
C543   C67     1.412   1_556 S
C543   C72     1.416   1_556 S
C544   H569    1.078   .     S
C545   C553    1.531   .     S
C545   H562    1.112   .     S
C545   C546    1.539   .     S
C545   H563    1.106   .     S
C546   H561    1.112   .     S
C546   H560    1.110   .     S
C546   C547    1.528   .     S
C547   H557    1.109   .     S
C547   H559    1.110   .     S
C547   H558    1.110   .     S
C548   C552    1.412   .     A
C549   C553    1.398   .     A
C550   C551    1.378   .     A
C550   C72     1.423   1_556 S
C551   H566    1.080   .     S
C551   C552    1.374   .     A
C552   H571    1.070   .     S
C554   H608    1.081   .     S
H556   C852    1.088   1_545 S
H564   N572    1.029   .     S
H565   N573    1.027   .     S
H568   C594    1.082   .     S
N572   Zn583   2.018   .     S
N572   N573    1.281   .     D
N573   Zn582   2.018   .     S
O574   Zn582   1.960   .     S
O574   C585    1.272   .     S
O575   Zn583   1.981   .     S
O576   Zn582   1.981   .     S
O576   C588    1.311   .     S
O577   Zn583   1.975   .     S
O578   Zn582   1.981   .     S
O579   Zn583   1.960   .     S
O580   Zn582   1.975   .     S
O581   Zn583   1.981   .     S
Br584  C748    1.946   .     S
C585   O628    1.293   .     A
C585   C587    1.403   .     S
C586   C594    1.400   .     A
C586   C601    1.419   .     A
C586   C588    1.475   .     S
C587   C695    1.347   .     S
C587   H768    1.088   .     S
C588   O630    1.287   .     A
C589   C590    1.406   .     S
C589   C799    1.347   1_645 S
C589   Br902   1.946   1_545 S
C590   O631    1.286   .     A
C590   O526    1.279   1_655 S
C591   C593    1.444   .     S
C591   O633    1.293   .     A
C591   O528    1.291   1_655 S
C592   C603    1.396   .     A
C592   H620    1.083   .     S
C592   C130    1.382   1_556 S
C593   C606    1.400   .     A
C593   C607    1.398   .     A
C594   C118    1.395   1_556 S
C595   H623    1.083   .     S
C595   C597    1.396   .     A
C596   C601    1.402   .     A
C596   C120    1.412   1_556 S
C596   C125    1.416   1_556 S
C597   H622    1.078   .     S
C598   C606    1.531   .     S
C598   H615    1.112   .     S
C598   C599    1.539   .     S
C598   H616    1.106   .     S
C599   H614    1.112   .     S
C599   H613    1.110   .     S
C599   C600    1.528   .     S
C600   H610    1.109   .     S
C600   H612    1.110   .     S
C600   H611    1.110   .     S
C601   C605    1.412   .     A
C602   C606    1.398   .     A
C603   C604    1.378   .     A
C603   C125    1.423   1_556 S
C604   H619    1.080   .     S
C604   C605    1.374   .     A
C605   H624    1.070   .     S
C607   H502    1.081   1_655 S
H609   C905    1.088   1_545 S
H617   N625    1.029   .     S
H618   N626    1.027   .     S
H621   C488    1.082   1_655 S
N625   Zn636   2.018   .     S
N625   N626    1.281   .     D
N626   Zn635   2.018   .     S
O627   Zn635   1.960   .     S
O627   C479    1.272   1_655 S
O628   Zn636   1.981   .     S
O629   Zn635   1.981   .     S
O629   C482    1.311   1_655 S
O630   Zn636   1.975   .     S
O631   Zn635   1.981   .     S
O632   Zn636   1.960   .     S
O633   Zn635   1.975   .     S
O634   Zn636   1.981   .     S
Br637  C801    1.946   .     S
C638   O681    1.293   .     A
C638   C640    1.403   .     S
C638   O786    1.272   1_455 S
C639   C647    1.400   .     A
C639   C654    1.419   .     A
C639   C641    1.475   .     S
C640   C907    1.347   1_455 S
C640   H821    1.088   .     S
C641   O683    1.287   .     A
C641   O788    1.311   1_455 S
C642   C643    1.406   .     S
C643   O684    1.286   .     A
C643   O738    1.279   .     S
C644   C646    1.444   .     S
C644   O686    1.293   .     A
C644   O740    1.291   .     S
C645   C656    1.396   .     A
C645   H673    1.083   .     S
C645   C183    1.382   1_556 S
C646   C659    1.400   .     A
C646   C660    1.398   .     A
C647   C171    1.395   1_556 S
C647   H780    1.082   1_455 S
C648   H676    1.083   .     S
C648   C650    1.396   .     A
C649   C654    1.402   .     A
C649   C173    1.412   1_556 S
C649   C178    1.416   1_556 S
C650   H675    1.078   .     S
C651   C659    1.531   .     S
C651   H668    1.112   .     S
C651   C652    1.539   .     S
C651   H669    1.106   .     S
C652   H667    1.112   .     S
C652   H666    1.110   .     S
C652   C653    1.528   .     S
C653   H663    1.109   .     S
C653   H665    1.110   .     S
C653   H664    1.110   .     S
C654   C658    1.412   .     A
C655   C659    1.398   .     A
C656   C657    1.378   .     A
C656   C178    1.423   1_556 S
C657   H672    1.080   .     S
C657   C658    1.374   .     A
C658   H677    1.070   .     S
C660   H714    1.081   .     S
H661   C766    1.081   1_455 S
H670   N678    1.029   .     S
H671   N679    1.027   .     S
H674   C700    1.082   .     S
N678   Zn689   2.018   .     S
N678   N679    1.281   .     D
N679   Zn688   2.018   .     S
O680   Zn688   1.960   .     S
O680   C691    1.272   .     S
O681   Zn689   1.981   .     S
O682   Zn688   1.981   .     S
O682   C694    1.311   .     S
O683   Zn689   1.975   .     S
O684   Zn688   1.981   .     S
O685   Zn689   1.960   .     S
O685   C749    1.279   1_455 S
O686   Zn688   1.975   .     S
O687   Zn689   1.981   .     S
O687   C750    1.291   1_455 S
Br690  C854    1.946   .     S
C691   O734    1.293   .     A
C691   C693    1.403   .     S
C692   C700    1.400   .     A
C692   C707    1.419   .     A
C692   C694    1.475   .     S
C693   C801    1.347   .     S
C693   H874    1.088   .     S
C694   O736    1.287   .     A
C695   C696    1.406   .     S
C696   O737    1.286   .     A
C696   O791    1.279   .     S
C697   C699    1.444   .     S
C697   O739    1.293   .     A
C697   O793    1.291   .     S
C698   C709    1.396   .     A
C698   H726    1.083   .     S
C698   C236    1.382   1_556 S
C699   C712    1.400   .     A
C699   C713    1.398   .     A
C700   C224    1.395   1_556 S
C701   H729    1.083   .     S
C701   C703    1.396   .     A
C702   C707    1.402   .     A
C702   C226    1.412   1_556 S
C702   C231    1.416   1_556 S
C703   H728    1.078   .     S
C704   C712    1.531   .     S
C704   H721    1.112   .     S
C704   C705    1.539   .     S
C704   H722    1.106   .     S
C705   H720    1.112   .     S
C705   H719    1.110   .     S
C705   C706    1.528   .     S
C706   H716    1.109   .     S
C706   H718    1.110   .     S
C706   H717    1.110   .     S
C707   C711    1.412   .     A
C708   C712    1.398   .     A
C709   C710    1.378   .     A
C709   C231    1.423   1_556 S
C710   H725    1.080   .     S
C710   C711    1.374   .     A
C711   H730    1.070   .     S
C713   H767    1.081   .     S
H723   N731    1.029   .     S
H724   N732    1.027   .     S
H727   C753    1.082   .     S
N731   Zn742   2.018   .     S
N731   N732    1.281   .     D
N732   Zn741   2.018   .     S
O733   Zn741   1.960   .     S
O733   C744    1.272   .     S
O734   Zn742   1.981   .     S
O735   Zn741   1.981   .     S
O735   C747    1.311   .     S
O736   Zn742   1.975   .     S
O737   Zn741   1.981   .     S
O738   Zn742   1.960   .     S
O739   Zn741   1.975   .     S
O740   Zn742   1.981   .     S
Br743  C907    1.946   .     S
C744   O787    1.293   .     A
C744   C746    1.403   .     S
C745   C753    1.400   .     A
C745   C760    1.419   .     A
C745   C747    1.475   .     S
C746   C854    1.347   .     S
C746   H927    1.088   .     S
C747   O789    1.287   .     A
C748   C749    1.406   .     S
C748   C481    1.347   1_655 S
C749   O790    1.286   .     A
C749   O685    1.279   1_655 S
C750   C752    1.444   .     S
C750   O792    1.293   .     A
C750   O687    1.291   1_655 S
C751   C762    1.396   .     A
C751   H779    1.083   .     S
C751   C289    1.382   1_556 S
C752   C765    1.400   .     A
C752   C766    1.398   .     A
C753   C277    1.395   1_556 S
C754   H782    1.083   .     S
C754   C756    1.396   .     A
C755   C760    1.402   .     A
C755   C279    1.412   1_556 S
C755   C284    1.416   1_556 S
C756   H781    1.078   .     S
C757   C765    1.531   .     S
C757   H774    1.112   .     S
C757   C758    1.539   .     S
C757   H775    1.106   .     S
C758   H773    1.112   .     S
C758   H772    1.110   .     S
C758   C759    1.528   .     S
C759   H769    1.109   .     S
C759   H771    1.110   .     S
C759   H770    1.110   .     S
C760   C764    1.412   .     A
C761   C765    1.398   .     A
C762   C763    1.378   .     A
C762   C284    1.423   1_556 S
C763   H778    1.080   .     S
C763   C764    1.374   .     A
C764   H783    1.070   .     S
C766   H661    1.081   1_655 S
H776   N784    1.029   .     S
H777   N785    1.027   .     S
H780   C647    1.082   1_655 S
N784   Zn795   2.018   .     S
N784   N785    1.281   .     D
N785   Zn794   2.018   .     S
O786   Zn794   1.960   .     S
O786   C638    1.272   1_655 S
O787   Zn795   1.981   .     S
O788   Zn794   1.981   .     S
O788   C641    1.311   1_655 S
O789   Zn795   1.975   .     S
O790   Zn794   1.981   .     S
O791   Zn795   1.960   .     S
O792   Zn794   1.975   .     S
O793   Zn795   1.981   .     S
Br796  C483    1.946   1_565 S
C797   O840    1.293   .     A
C797   C799    1.403   .     S
C797   O945    1.272   1_455 S
C798   C806    1.400   .     A
C798   C813    1.419   .     A
C798   C800    1.475   .     S
C799   C589    1.347   1_465 S
C799   H503    1.088   1_565 S
C800   O842    1.287   .     A
C800   O947    1.311   1_455 S
C801   C802    1.406   .     S
C802   O843    1.286   .     A
C802   O897    1.279   .     S
C803   C805    1.444   .     S
C803   O845    1.293   .     A
C803   O899    1.291   .     S
C804   C815    1.396   .     A
C804   H832    1.083   .     S
C804   C342    1.382   1_556 S
C805   C818    1.400   .     A
C805   C819    1.398   .     A
C806   C330    1.395   1_556 S
C806   H939    1.082   1_455 S
C807   H835    1.083   .     S
C807   C809    1.396   .     A
C808   C813    1.402   .     A
C808   C332    1.412   1_556 S
C808   C337    1.416   1_556 S
C809   H834    1.078   .     S
C810   C818    1.531   .     S
C810   H827    1.112   .     S
C810   C811    1.539   .     S
C810   H828    1.106   .     S
C811   H826    1.112   .     S
C811   H825    1.110   .     S
C811   C812    1.528   .     S
C812   H822    1.109   .     S
C812   H824    1.110   .     S
C812   H823    1.110   .     S
C813   C817    1.412   .     A
C814   C818    1.398   .     A
C815   C816    1.378   .     A
C815   C337    1.423   1_556 S
C816   H831    1.080   .     S
C816   C817    1.374   .     A
C817   H836    1.070   .     S
C819   H873    1.081   .     S
H820   C925    1.081   1_455 S
H829   N837    1.029   .     S
H830   N838    1.027   .     S
H833   C859    1.082   .     S
N837   Zn848   2.018   .     S
N837   N838    1.281   .     D
N838   Zn847   2.018   .     S
O839   Zn847   1.960   .     S
O839   C850    1.272   .     S
O840   Zn848   1.981   .     S
O841   Zn847   1.981   .     S
O841   C853    1.311   .     S
O842   Zn848   1.975   .     S
O843   Zn847   1.981   .     S
O844   Zn848   1.960   .     S
O844   C908    1.279   1_455 S
O845   Zn847   1.975   .     S
O846   Zn848   1.981   .     S
O846   C909    1.291   1_455 S
Br849  C536    1.946   1_565 S
C850   O893    1.293   .     A
C850   C852    1.403   .     S
C851   C859    1.400   .     A
C851   C866    1.419   .     A
C851   C853    1.475   .     S
C852   C483    1.347   1_565 S
C852   H556    1.088   1_565 S
C853   O895    1.287   .     A
C854   C855    1.406   .     S
C855   O896    1.286   .     A
C855   O950    1.279   .     S
C856   C858    1.444   .     S
C856   O898    1.293   .     A
C856   O952    1.291   .     S
C857   C868    1.396   .     A
C857   H885    1.083   .     S
C857   C395    1.382   1_556 S
C858   C871    1.400   .     A
C858   C872    1.398   .     A
C859   C383    1.395   1_556 S
C860   H888    1.083   .     S
C860   C862    1.396   .     A
C861   C866    1.402   .     A
C861   C385    1.412   1_556 S
C861   C390    1.416   1_556 S
C862   H887    1.078   .     S
C863   C871    1.531   .     S
C863   H880    1.112   .     S
C863   C864    1.539   .     S
C863   H881    1.106   .     S
C864   H879    1.112   .     S
C864   H878    1.110   .     S
C864   C865    1.528   .     S
C865   H875    1.109   .     S
C865   H877    1.110   .     S
C865   H876    1.110   .     S
C866   C870    1.412   .     A
C867   C871    1.398   .     A
C868   C869    1.378   .     A
C868   C390    1.423   1_556 S
C869   H884    1.080   .     S
C869   C870    1.374   .     A
C870   H889    1.070   .     S
C872   H926    1.081   .     S
H882   N890    1.029   .     S
H883   N891    1.027   .     S
H886   C912    1.082   .     S
N890   Zn901   2.018   .     S
N890   N891    1.281   .     D
N891   Zn900   2.018   .     S
O892   Zn900   1.960   .     S
O892   C903    1.272   .     S
O893   Zn901   1.981   .     S
O894   Zn900   1.981   .     S
O894   C906    1.311   .     S
O895   Zn901   1.975   .     S
O896   Zn900   1.981   .     S
O897   Zn901   1.960   .     S
O898   Zn900   1.975   .     S
O899   Zn901   1.981   .     S
Br902  C589    1.946   1_565 S
C903   O946    1.293   .     A
C903   C905    1.403   .     S
C904   C912    1.400   .     A
C904   C919    1.419   .     A
C904   C906    1.475   .     S
C905   C536    1.347   1_565 S
C905   H609    1.088   1_565 S
C906   O948    1.287   .     A
C907   C908    1.406   .     S
C907   C640    1.347   1_655 S
C908   O949    1.286   .     A
C908   O844    1.279   1_655 S
C909   C911    1.444   .     S
C909   O951    1.293   .     A
C909   O846    1.291   1_655 S
C910   C921    1.396   .     A
C910   H938    1.083   .     S
C910   C448    1.382   1_556 S
C911   C924    1.400   .     A
C911   C925    1.398   .     A
C912   C436    1.395   1_556 S
C913   H941    1.083   .     S
C913   C915    1.396   .     A
C914   C919    1.402   .     A
C914   C438    1.412   1_556 S
C914   C443    1.416   1_556 S
C915   H940    1.078   .     S
C916   C924    1.531   .     S
C916   H933    1.112   .     S
C916   C917    1.539   .     S
C916   H934    1.106   .     S
C917   H932    1.112   .     S
C917   H931    1.110   .     S
C917   C918    1.528   .     S
C918   H928    1.109   .     S
C918   H930    1.110   .     S
C918   H929    1.110   .     S
C919   C923    1.412   .     A
C920   C924    1.398   .     A
C921   C922    1.378   .     A
C921   C443    1.423   1_556 S
C922   H937    1.080   .     S
C922   C923    1.374   .     A
C923   H942    1.070   .     S
C925   H820    1.081   1_655 S
H935   N943    1.029   .     S
H936   N944    1.027   .     S
H939   C806    1.082   1_655 S
N943   Zn954   2.018   .     S
N943   N944    1.281   .     D
N944   Zn953   2.018   .     S
O945   Zn953   1.960   .     S
O945   C797    1.272   1_655 S
O946   Zn954   1.981   .     S
O947   Zn953   1.981   .     S
O947   C800    1.311   1_655 S
O948   Zn954   1.975   .     S
O949   Zn953   1.981   .     S
O950   Zn954   1.960   .     S
O951   Zn953   1.975   .     S
O952   Zn954   1.981   .     S
