data_str_m3_o2_o5_pcu_sym.14
_audit_creation_date              2020-01-03
_audit_creation_method            'Materials Studio'
_symmetry_space_group_name_H-M    'P1'
_symmetry_Int_Tables_number       1
_symmetry_cell_setting            triclinic
loop_
_symmetry_equiv_pos_as_xyz
  x,y,z
_cell_length_a                    30.0228
_cell_length_b                    28.6283
_cell_length_c                    26.6318
_cell_angle_alpha                 90.0708
_cell_angle_beta                  91.3576
_cell_angle_gamma                 90.0391
loop_
_atom_site_label
_atom_site_type_symbol
_atom_site_fract_x
_atom_site_fract_y
_atom_site_fract_z
_atom_site_U_iso_or_equiv
_atom_site_adp_type
_atom_site_occupancy
Br1    Br    0.21066   0.12742   0.06513   0.00000  Uiso   1.00
Br2    Br    0.32131   0.36636   0.24041   0.00000  Uiso   1.00
Br3    Br    0.29201   0.12806   0.26665   0.00000  Uiso   1.00
Br4    Br    0.17892   0.36640   0.09267   0.00000  Uiso   1.00
C5     C     0.16397   0.24993   0.16684   0.00000  Uiso   1.00
C6     C     0.21730   0.44742   0.13951   0.00000  Uiso   1.00
C7     C     0.25003   0.24999   0.07298   0.00000  Uiso   1.00
C8     C     0.25006   0.25003   0.26036   0.00000  Uiso   1.00
C9     C     0.25050   0.02622   0.16665   0.00000  Uiso   1.00
C10    C     0.25022   0.47313   0.16671   0.00000  Uiso   1.00
C11    C     0.25010   0.25001   0.02184   0.00000  Uiso   1.00
C12    C     0.25010   0.25006   0.31151   0.00000  Uiso   1.00
C13    C     0.04675   0.28641   0.18855   0.00000  Uiso   1.00
C14    C     0.45463   0.21213   0.18106   0.00000  Uiso   1.00
C15    C     0.45247   0.28899   0.14261   0.00000  Uiso   1.00
C16    C     0.33609   0.24999   0.16629   0.00000  Uiso   1.00
C17    C     0.04637   0.21579   0.13793   0.00000  Uiso   1.00
C18    C     0.09321   0.28639   0.19048   0.00000  Uiso   1.00
C19    C     0.40848   0.21078   0.18166   0.00000  Uiso   1.00
C20    C     0.40635   0.28844   0.14259   0.00000  Uiso   1.00
C21    C     0.09243   0.21360   0.14132   0.00000  Uiso   1.00
C22    C     0.11586   0.24983   0.16638   0.00000  Uiso   1.00
C23    C     0.38421   0.24988   0.16387   0.00000  Uiso   1.00
C24    C     0.02395   0.25165   0.16185   0.00000  Uiso   1.00
C25    C     0.47618   0.25094   0.16159   0.00000  Uiso   1.00
C26    C     0.10417   0.36422   0.21045   0.00000  Uiso   1.00
C27    C     0.23879   0.10087   0.12392   0.00000  Uiso   1.00
C28    C     0.39028   0.13387   0.17314   0.00000  Uiso   1.00
C29    C     0.37535   0.31952   0.07183   0.00000  Uiso   1.00
C30    C     0.10842   0.13592   0.14317   0.00000  Uiso   1.00
C31    C     0.28698   0.02312   0.05973   0.00000  Uiso   1.00
C32    C     0.35178   0.48002   0.18863   0.00000  Uiso   1.00
C33    C     0.21453   0.02435   0.27429   0.00000  Uiso   1.00
C34    C     0.14972   0.48316   0.14333   0.00000  Uiso   1.00
C35    C     0.28059   0.39805   0.19558   0.00000  Uiso   1.00
C36    C     0.26193   0.10111   0.20922   0.00000  Uiso   1.00
C37    C     0.21953   0.39810   0.13774   0.00000  Uiso   1.00
C38    C     0.24486   0.05192   0.12191   0.00000  Uiso   1.00
C39    C     0.28303   0.44733   0.19379   0.00000  Uiso   1.00
C40    C     0.25620   0.05212   0.21133   0.00000  Uiso   1.00
H41    H     0.02819   0.31237   0.20896   0.00000  Uiso   1.00
H42    H     0.42505   0.12067   0.17184   0.00000  Uiso   1.00
H43    H     0.35596   0.34959   0.05679   0.00000  Uiso   1.00
H44    H     0.35520   0.28743   0.06458   0.00000  Uiso   1.00
H45    H     0.40712   0.31785   0.05118   0.00000  Uiso   1.00
H46    H     0.11936   0.13908   0.18330   0.00000  Uiso   1.00
H47    H     0.12906   0.10837   0.12598   0.00000  Uiso   1.00
H48    H     0.07320   0.12402   0.14033   0.00000  Uiso   1.00
H49    H     0.30552   0.49833   0.08452   0.00000  Uiso   1.00
H50    H     0.30514   0.05695   0.05725   0.00000  Uiso   1.00
H51    H     0.28593   0.00746   0.02168   0.00000  Uiso   1.00
H52    H     0.47379   0.18339   0.19687   0.00000  Uiso   1.00
H53    H     0.34276   0.00942   0.16324   0.00000  Uiso   1.00
H54    H     0.36216   0.44893   0.16656   0.00000  Uiso   1.00
H55    H     0.38102   0.49136   0.21180   0.00000  Uiso   1.00
H56    H     0.19782   0.05874   0.27901   0.00000  Uiso   1.00
H57    H     0.19448   0.00143   0.24872   0.00000  Uiso   1.00
H58    H     0.21573   0.00700   0.31145   0.00000  Uiso   1.00
H59    H     0.15989   0.01325   0.16730   0.00000  Uiso   1.00
H60    H     0.13825   0.45364   0.16686   0.00000  Uiso   1.00
H61    H     0.12087   0.49467   0.11970   0.00000  Uiso   1.00
H62    H     0.46975   0.31888   0.12741   0.00000  Uiso   1.00
H63    H     0.02795   0.18931   0.11699   0.00000  Uiso   1.00
H64    H     0.09907   0.37090   0.16951   0.00000  Uiso   1.00
H65    H     0.13126   0.38769   0.22414   0.00000  Uiso   1.00
H66    H     0.07382   0.37344   0.23132   0.00000  Uiso   1.00
H67    H     0.37709   0.14108   0.13447   0.00000  Uiso   1.00
H68    H     0.36957   0.10564   0.18899   0.00000  Uiso   1.00
N69    N     0.25000   0.12624   0.16667   0.00000  Uiso   1.00
N70    N     0.25000   0.37377   0.16667   0.00000  Uiso   1.00
O71    O     0.18453   0.28974   0.16667   0.00000  Uiso   1.00
O72    O     0.38736   0.17360   0.20435   0.00000  Uiso   1.00
O73    O     0.38333   0.32662   0.12367   0.00000  Uiso   1.00
O74    O     0.11472   0.17817   0.11692   0.00000  Uiso   1.00
O75    O     0.24298   0.02952   0.07588   0.00000  Uiso   1.00
O76    O     0.31659   0.46973   0.22097   0.00000  Uiso   1.00
O77    O     0.25839   0.02983   0.25734   0.00000  Uiso   1.00
O78    O     0.18433   0.46982   0.11145   0.00000  Uiso   1.00
O79    O     0.31547   0.21026   0.16666   0.00000  Uiso   1.00
O80    O     0.31547   0.28974   0.16666   0.00000  Uiso   1.00
O81    O     0.18453   0.21026   0.16667   0.00000  Uiso   1.00
O82    O     0.25000   0.28973   0.09511   0.00000  Uiso   1.00
O83    O     0.25000   0.21027   0.23822   0.00000  Uiso   1.00
O84    O     0.25000   0.28973   0.23822   0.00000  Uiso   1.00
O85    O     0.25000   0.21027   0.09511   0.00000  Uiso   1.00
O86    O     0.11708   0.31773   0.22064   0.00000  Uiso   1.00
Zn87   Zn    0.25000   0.30307   0.16667   0.00000  Uiso   1.00
Zn88   Zn    0.25000   0.19693   0.16667   0.00000  Uiso   1.00
Br89   Br    0.71066   0.12742   0.06513   0.00000  Uiso   1.00
Br90   Br    0.82131   0.36636   0.24041   0.00000  Uiso   1.00
Br91   Br    0.79201   0.12806   0.26665   0.00000  Uiso   1.00
Br92   Br    0.67892   0.36640   0.09267   0.00000  Uiso   1.00
C93    C     0.66397   0.24993   0.16684   0.00000  Uiso   1.00
C94    C     0.71730   0.44742   0.13951   0.00000  Uiso   1.00
C95    C     0.75003   0.24999   0.07298   0.00000  Uiso   1.00
C96    C     0.75006   0.25003   0.26036   0.00000  Uiso   1.00
C97    C     0.75050   0.02622   0.16665   0.00000  Uiso   1.00
C98    C     0.75022   0.47313   0.16671   0.00000  Uiso   1.00
C99    C     0.75010   0.25001   0.02184   0.00000  Uiso   1.00
C100   C     0.75010   0.25006   0.31151   0.00000  Uiso   1.00
C101   C     0.54675   0.28641   0.18855   0.00000  Uiso   1.00
C102   C     0.95463   0.21213   0.18106   0.00000  Uiso   1.00
C103   C     0.95247   0.28899   0.14261   0.00000  Uiso   1.00
C104   C     0.83609   0.24999   0.16629   0.00000  Uiso   1.00
C105   C     0.54637   0.21579   0.13793   0.00000  Uiso   1.00
C106   C     0.59321   0.28639   0.19048   0.00000  Uiso   1.00
C107   C     0.90848   0.21078   0.18166   0.00000  Uiso   1.00
C108   C     0.90635   0.28844   0.14259   0.00000  Uiso   1.00
C109   C     0.59243   0.21360   0.14132   0.00000  Uiso   1.00
C110   C     0.61586   0.24983   0.16638   0.00000  Uiso   1.00
C111   C     0.88421   0.24988   0.16387   0.00000  Uiso   1.00
C112   C     0.52395   0.25165   0.16185   0.00000  Uiso   1.00
C113   C     0.97618   0.25094   0.16159   0.00000  Uiso   1.00
C114   C     0.60417   0.36422   0.21045   0.00000  Uiso   1.00
C115   C     0.73879   0.10087   0.12392   0.00000  Uiso   1.00
C116   C     0.89028   0.13387   0.17314   0.00000  Uiso   1.00
C117   C     0.87535   0.31952   0.07183   0.00000  Uiso   1.00
C118   C     0.60842   0.13592   0.14317   0.00000  Uiso   1.00
C119   C     0.78698   0.02312   0.05973   0.00000  Uiso   1.00
C120   C     0.85178   0.48002   0.18863   0.00000  Uiso   1.00
C121   C     0.71453   0.02435   0.27429   0.00000  Uiso   1.00
C122   C     0.64972   0.48316   0.14333   0.00000  Uiso   1.00
C123   C     0.78059   0.39805   0.19558   0.00000  Uiso   1.00
C124   C     0.76193   0.10111   0.20922   0.00000  Uiso   1.00
C125   C     0.71953   0.39810   0.13774   0.00000  Uiso   1.00
C126   C     0.74486   0.05192   0.12191   0.00000  Uiso   1.00
C127   C     0.78303   0.44733   0.19379   0.00000  Uiso   1.00
C128   C     0.75620   0.05212   0.21133   0.00000  Uiso   1.00
H129   H     0.52819   0.31237   0.20896   0.00000  Uiso   1.00
H130   H     0.92505   0.12067   0.17184   0.00000  Uiso   1.00
H131   H     0.85596   0.34959   0.05679   0.00000  Uiso   1.00
H132   H     0.85520   0.28743   0.06458   0.00000  Uiso   1.00
H133   H     0.90712   0.31785   0.05118   0.00000  Uiso   1.00
H134   H     0.61936   0.13908   0.18330   0.00000  Uiso   1.00
H135   H     0.62906   0.10837   0.12598   0.00000  Uiso   1.00
H136   H     0.57320   0.12402   0.14033   0.00000  Uiso   1.00
H137   H     0.80552   0.49833   0.08452   0.00000  Uiso   1.00
H138   H     0.80514   0.05695   0.05725   0.00000  Uiso   1.00
H139   H     0.78593   0.00746   0.02168   0.00000  Uiso   1.00
H140   H     0.97379   0.18339   0.19687   0.00000  Uiso   1.00
H141   H     0.84276   0.00942   0.16324   0.00000  Uiso   1.00
H142   H     0.86216   0.44893   0.16656   0.00000  Uiso   1.00
H143   H     0.88102   0.49136   0.21180   0.00000  Uiso   1.00
H144   H     0.69782   0.05874   0.27901   0.00000  Uiso   1.00
H145   H     0.69448   0.00143   0.24872   0.00000  Uiso   1.00
H146   H     0.71573   0.00700   0.31145   0.00000  Uiso   1.00
H147   H     0.65989   0.01325   0.16730   0.00000  Uiso   1.00
H148   H     0.63825   0.45364   0.16686   0.00000  Uiso   1.00
H149   H     0.62087   0.49467   0.11970   0.00000  Uiso   1.00
H150   H     0.96975   0.31888   0.12741   0.00000  Uiso   1.00
H151   H     0.52795   0.18931   0.11699   0.00000  Uiso   1.00
H152   H     0.59907   0.37090   0.16951   0.00000  Uiso   1.00
H153   H     0.63126   0.38769   0.22414   0.00000  Uiso   1.00
H154   H     0.57382   0.37344   0.23132   0.00000  Uiso   1.00
H155   H     0.87709   0.14108   0.13447   0.00000  Uiso   1.00
H156   H     0.86957   0.10564   0.18899   0.00000  Uiso   1.00
N157   N     0.75000   0.12624   0.16667   0.00000  Uiso   1.00
N158   N     0.75000   0.37377   0.16667   0.00000  Uiso   1.00
O159   O     0.68453   0.28974   0.16667   0.00000  Uiso   1.00
O160   O     0.88736   0.17360   0.20435   0.00000  Uiso   1.00
O161   O     0.88333   0.32662   0.12367   0.00000  Uiso   1.00
O162   O     0.61472   0.17817   0.11692   0.00000  Uiso   1.00
O163   O     0.74298   0.02952   0.07588   0.00000  Uiso   1.00
O164   O     0.81659   0.46973   0.22097   0.00000  Uiso   1.00
O165   O     0.75839   0.02983   0.25734   0.00000  Uiso   1.00
O166   O     0.68433   0.46982   0.11145   0.00000  Uiso   1.00
O167   O     0.81547   0.21026   0.16666   0.00000  Uiso   1.00
O168   O     0.81547   0.28974   0.16666   0.00000  Uiso   1.00
O169   O     0.68453   0.21026   0.16667   0.00000  Uiso   1.00
O170   O     0.75000   0.28973   0.09511   0.00000  Uiso   1.00
O171   O     0.75000   0.21027   0.23822   0.00000  Uiso   1.00
O172   O     0.75000   0.28973   0.23822   0.00000  Uiso   1.00
O173   O     0.75000   0.21027   0.09511   0.00000  Uiso   1.00
O174   O     0.61708   0.31773   0.22064   0.00000  Uiso   1.00
Zn175  Zn    0.75000   0.30307   0.16667   0.00000  Uiso   1.00
Zn176  Zn    0.75000   0.19693   0.16667   0.00000  Uiso   1.00
Br177  Br    0.21066   0.62742   0.06513   0.00000  Uiso   1.00
Br178  Br    0.32131   0.86636   0.24041   0.00000  Uiso   1.00
Br179  Br    0.29201   0.62806   0.26665   0.00000  Uiso   1.00
Br180  Br    0.17892   0.86640   0.09267   0.00000  Uiso   1.00
C181   C     0.16397   0.74993   0.16684   0.00000  Uiso   1.00
C182   C     0.21730   0.94742   0.13951   0.00000  Uiso   1.00
C183   C     0.25003   0.74999   0.07298   0.00000  Uiso   1.00
C184   C     0.25006   0.75003   0.26036   0.00000  Uiso   1.00
C185   C     0.25050   0.52622   0.16665   0.00000  Uiso   1.00
C186   C     0.25022   0.97313   0.16671   0.00000  Uiso   1.00
C187   C     0.25010   0.75001   0.02184   0.00000  Uiso   1.00
C188   C     0.25010   0.75006   0.31151   0.00000  Uiso   1.00
C189   C     0.04675   0.78641   0.18855   0.00000  Uiso   1.00
C190   C     0.45463   0.71213   0.18106   0.00000  Uiso   1.00
C191   C     0.45247   0.78899   0.14261   0.00000  Uiso   1.00
C192   C     0.33609   0.74999   0.16629   0.00000  Uiso   1.00
C193   C     0.04637   0.71579   0.13793   0.00000  Uiso   1.00
C194   C     0.09321   0.78639   0.19048   0.00000  Uiso   1.00
C195   C     0.40848   0.71078   0.18166   0.00000  Uiso   1.00
C196   C     0.40635   0.78844   0.14259   0.00000  Uiso   1.00
C197   C     0.09243   0.71360   0.14132   0.00000  Uiso   1.00
C198   C     0.11586   0.74983   0.16638   0.00000  Uiso   1.00
C199   C     0.38421   0.74988   0.16387   0.00000  Uiso   1.00
C200   C     0.02395   0.75165   0.16185   0.00000  Uiso   1.00
C201   C     0.47618   0.75094   0.16159   0.00000  Uiso   1.00
C202   C     0.10417   0.86422   0.21045   0.00000  Uiso   1.00
C203   C     0.23879   0.60087   0.12392   0.00000  Uiso   1.00
C204   C     0.39028   0.63387   0.17314   0.00000  Uiso   1.00
C205   C     0.37535   0.81952   0.07183   0.00000  Uiso   1.00
C206   C     0.10842   0.63592   0.14317   0.00000  Uiso   1.00
C207   C     0.28698   0.52312   0.05973   0.00000  Uiso   1.00
C208   C     0.35178   0.98002   0.18863   0.00000  Uiso   1.00
C209   C     0.21453   0.52435   0.27429   0.00000  Uiso   1.00
C210   C     0.14972   0.98316   0.14333   0.00000  Uiso   1.00
C211   C     0.28059   0.89805   0.19558   0.00000  Uiso   1.00
C212   C     0.26193   0.60111   0.20922   0.00000  Uiso   1.00
C213   C     0.21953   0.89810   0.13774   0.00000  Uiso   1.00
C214   C     0.24486   0.55192   0.12191   0.00000  Uiso   1.00
C215   C     0.28303   0.94733   0.19379   0.00000  Uiso   1.00
C216   C     0.25620   0.55212   0.21133   0.00000  Uiso   1.00
H217   H     0.02819   0.81237   0.20896   0.00000  Uiso   1.00
H218   H     0.42505   0.62067   0.17184   0.00000  Uiso   1.00
H219   H     0.35596   0.84959   0.05679   0.00000  Uiso   1.00
H220   H     0.35520   0.78743   0.06458   0.00000  Uiso   1.00
H221   H     0.40712   0.81785   0.05118   0.00000  Uiso   1.00
H222   H     0.11936   0.63908   0.18330   0.00000  Uiso   1.00
H223   H     0.12906   0.60837   0.12598   0.00000  Uiso   1.00
H224   H     0.07320   0.62402   0.14033   0.00000  Uiso   1.00
H225   H     0.30552   0.99833   0.08452   0.00000  Uiso   1.00
H226   H     0.30514   0.55695   0.05725   0.00000  Uiso   1.00
H227   H     0.28593   0.50746   0.02168   0.00000  Uiso   1.00
H228   H     0.47379   0.68339   0.19687   0.00000  Uiso   1.00
H229   H     0.34276   0.50942   0.16324   0.00000  Uiso   1.00
H230   H     0.36216   0.94893   0.16656   0.00000  Uiso   1.00
H231   H     0.38102   0.99136   0.21180   0.00000  Uiso   1.00
H232   H     0.19782   0.55874   0.27901   0.00000  Uiso   1.00
H233   H     0.19448   0.50143   0.24872   0.00000  Uiso   1.00
H234   H     0.21573   0.50700   0.31145   0.00000  Uiso   1.00
H235   H     0.15989   0.51325   0.16730   0.00000  Uiso   1.00
H236   H     0.13825   0.95364   0.16686   0.00000  Uiso   1.00
H237   H     0.12087   0.99467   0.11970   0.00000  Uiso   1.00
H238   H     0.46975   0.81888   0.12741   0.00000  Uiso   1.00
H239   H     0.02795   0.68931   0.11699   0.00000  Uiso   1.00
H240   H     0.09907   0.87090   0.16951   0.00000  Uiso   1.00
H241   H     0.13126   0.88769   0.22414   0.00000  Uiso   1.00
H242   H     0.07382   0.87344   0.23132   0.00000  Uiso   1.00
H243   H     0.37709   0.64108   0.13447   0.00000  Uiso   1.00
H244   H     0.36957   0.60564   0.18899   0.00000  Uiso   1.00
N245   N     0.25000   0.62624   0.16667   0.00000  Uiso   1.00
N246   N     0.25000   0.87377   0.16667   0.00000  Uiso   1.00
O247   O     0.18453   0.78974   0.16667   0.00000  Uiso   1.00
O248   O     0.38736   0.67360   0.20435   0.00000  Uiso   1.00
O249   O     0.38333   0.82662   0.12367   0.00000  Uiso   1.00
O250   O     0.11472   0.67817   0.11692   0.00000  Uiso   1.00
O251   O     0.24298   0.52952   0.07588   0.00000  Uiso   1.00
O252   O     0.31659   0.96973   0.22097   0.00000  Uiso   1.00
O253   O     0.25839   0.52983   0.25734   0.00000  Uiso   1.00
O254   O     0.18433   0.96982   0.11145   0.00000  Uiso   1.00
O255   O     0.31547   0.71026   0.16666   0.00000  Uiso   1.00
O256   O     0.31547   0.78974   0.16666   0.00000  Uiso   1.00
O257   O     0.18453   0.71026   0.16667   0.00000  Uiso   1.00
O258   O     0.25000   0.78973   0.09511   0.00000  Uiso   1.00
O259   O     0.25000   0.71027   0.23822   0.00000  Uiso   1.00
O260   O     0.25000   0.78973   0.23822   0.00000  Uiso   1.00
O261   O     0.25000   0.71027   0.09511   0.00000  Uiso   1.00
O262   O     0.11708   0.81773   0.22064   0.00000  Uiso   1.00
Zn263  Zn    0.25000   0.80307   0.16667   0.00000  Uiso   1.00
Zn264  Zn    0.25000   0.69693   0.16667   0.00000  Uiso   1.00
Br265  Br    0.71066   0.62742   0.06513   0.00000  Uiso   1.00
Br266  Br    0.82131   0.86636   0.24041   0.00000  Uiso   1.00
Br267  Br    0.79201   0.62806   0.26665   0.00000  Uiso   1.00
Br268  Br    0.67892   0.86640   0.09267   0.00000  Uiso   1.00
C269   C     0.66397   0.74993   0.16684   0.00000  Uiso   1.00
C270   C     0.71730   0.94742   0.13951   0.00000  Uiso   1.00
C271   C     0.75003   0.74999   0.07298   0.00000  Uiso   1.00
C272   C     0.75006   0.75003   0.26036   0.00000  Uiso   1.00
C273   C     0.75050   0.52622   0.16665   0.00000  Uiso   1.00
C274   C     0.75022   0.97313   0.16671   0.00000  Uiso   1.00
C275   C     0.75010   0.75001   0.02184   0.00000  Uiso   1.00
C276   C     0.75010   0.75006   0.31151   0.00000  Uiso   1.00
C277   C     0.54675   0.78641   0.18855   0.00000  Uiso   1.00
C278   C     0.95463   0.71213   0.18106   0.00000  Uiso   1.00
C279   C     0.95247   0.78899   0.14261   0.00000  Uiso   1.00
C280   C     0.83609   0.74999   0.16629   0.00000  Uiso   1.00
C281   C     0.54637   0.71579   0.13793   0.00000  Uiso   1.00
C282   C     0.59321   0.78639   0.19048   0.00000  Uiso   1.00
C283   C     0.90848   0.71078   0.18166   0.00000  Uiso   1.00
C284   C     0.90635   0.78844   0.14259   0.00000  Uiso   1.00
C285   C     0.59243   0.71360   0.14132   0.00000  Uiso   1.00
C286   C     0.61586   0.74983   0.16638   0.00000  Uiso   1.00
C287   C     0.88421   0.74988   0.16387   0.00000  Uiso   1.00
C288   C     0.52395   0.75165   0.16185   0.00000  Uiso   1.00
C289   C     0.97618   0.75094   0.16159   0.00000  Uiso   1.00
C290   C     0.60417   0.86422   0.21045   0.00000  Uiso   1.00
C291   C     0.73879   0.60087   0.12392   0.00000  Uiso   1.00
C292   C     0.89028   0.63387   0.17314   0.00000  Uiso   1.00
C293   C     0.87535   0.81952   0.07183   0.00000  Uiso   1.00
C294   C     0.60842   0.63592   0.14317   0.00000  Uiso   1.00
C295   C     0.78698   0.52312   0.05973   0.00000  Uiso   1.00
C296   C     0.85178   0.98002   0.18863   0.00000  Uiso   1.00
C297   C     0.71453   0.52435   0.27429   0.00000  Uiso   1.00
C298   C     0.64972   0.98316   0.14333   0.00000  Uiso   1.00
C299   C     0.78059   0.89805   0.19558   0.00000  Uiso   1.00
C300   C     0.76193   0.60111   0.20922   0.00000  Uiso   1.00
C301   C     0.71953   0.89810   0.13774   0.00000  Uiso   1.00
C302   C     0.74486   0.55192   0.12191   0.00000  Uiso   1.00
C303   C     0.78303   0.94733   0.19379   0.00000  Uiso   1.00
C304   C     0.75620   0.55212   0.21133   0.00000  Uiso   1.00
H305   H     0.52819   0.81237   0.20896   0.00000  Uiso   1.00
H306   H     0.92505   0.62067   0.17184   0.00000  Uiso   1.00
H307   H     0.85596   0.84959   0.05679   0.00000  Uiso   1.00
H308   H     0.85520   0.78743   0.06458   0.00000  Uiso   1.00
H309   H     0.90712   0.81785   0.05118   0.00000  Uiso   1.00
H310   H     0.61936   0.63908   0.18330   0.00000  Uiso   1.00
H311   H     0.62906   0.60837   0.12598   0.00000  Uiso   1.00
H312   H     0.57320   0.62402   0.14033   0.00000  Uiso   1.00
H313   H     0.80552   0.99833   0.08452   0.00000  Uiso   1.00
H314   H     0.80514   0.55695   0.05725   0.00000  Uiso   1.00
H315   H     0.78593   0.50746   0.02168   0.00000  Uiso   1.00
H316   H     0.97379   0.68339   0.19687   0.00000  Uiso   1.00
H317   H     0.84276   0.50942   0.16324   0.00000  Uiso   1.00
H318   H     0.86216   0.94893   0.16656   0.00000  Uiso   1.00
H319   H     0.88102   0.99136   0.21180   0.00000  Uiso   1.00
H320   H     0.69782   0.55874   0.27901   0.00000  Uiso   1.00
H321   H     0.69448   0.50143   0.24872   0.00000  Uiso   1.00
H322   H     0.71573   0.50700   0.31145   0.00000  Uiso   1.00
H323   H     0.65989   0.51325   0.16730   0.00000  Uiso   1.00
H324   H     0.63825   0.95364   0.16686   0.00000  Uiso   1.00
H325   H     0.62087   0.99467   0.11970   0.00000  Uiso   1.00
H326   H     0.96975   0.81888   0.12741   0.00000  Uiso   1.00
H327   H     0.52795   0.68931   0.11699   0.00000  Uiso   1.00
H328   H     0.59907   0.87090   0.16951   0.00000  Uiso   1.00
H329   H     0.63126   0.88769   0.22414   0.00000  Uiso   1.00
H330   H     0.57382   0.87344   0.23132   0.00000  Uiso   1.00
H331   H     0.87709   0.64108   0.13447   0.00000  Uiso   1.00
H332   H     0.86957   0.60564   0.18899   0.00000  Uiso   1.00
N333   N     0.75000   0.62624   0.16667   0.00000  Uiso   1.00
N334   N     0.75000   0.87377   0.16667   0.00000  Uiso   1.00
O335   O     0.68453   0.78974   0.16667   0.00000  Uiso   1.00
O336   O     0.88736   0.67360   0.20435   0.00000  Uiso   1.00
O337   O     0.88333   0.82662   0.12367   0.00000  Uiso   1.00
O338   O     0.61472   0.67817   0.11692   0.00000  Uiso   1.00
O339   O     0.74298   0.52952   0.07588   0.00000  Uiso   1.00
O340   O     0.81659   0.96973   0.22097   0.00000  Uiso   1.00
O341   O     0.75839   0.52983   0.25734   0.00000  Uiso   1.00
O342   O     0.68433   0.96982   0.11145   0.00000  Uiso   1.00
O343   O     0.81547   0.71026   0.16666   0.00000  Uiso   1.00
O344   O     0.81547   0.78974   0.16666   0.00000  Uiso   1.00
O345   O     0.68453   0.71026   0.16667   0.00000  Uiso   1.00
O346   O     0.75000   0.78973   0.09511   0.00000  Uiso   1.00
O347   O     0.75000   0.71027   0.23822   0.00000  Uiso   1.00
O348   O     0.75000   0.78973   0.23822   0.00000  Uiso   1.00
O349   O     0.75000   0.71027   0.09511   0.00000  Uiso   1.00
O350   O     0.61708   0.81773   0.22064   0.00000  Uiso   1.00
Zn351  Zn    0.75000   0.80307   0.16667   0.00000  Uiso   1.00
Zn352  Zn    0.75000   0.69693   0.16667   0.00000  Uiso   1.00
Br353  Br    0.21066   0.12742   0.39846   0.00000  Uiso   1.00
Br354  Br    0.32131   0.36636   0.57375   0.00000  Uiso   1.00
Br355  Br    0.29201   0.12806   0.59999   0.00000  Uiso   1.00
Br356  Br    0.17892   0.36640   0.42601   0.00000  Uiso   1.00
C357   C     0.16397   0.24993   0.50017   0.00000  Uiso   1.00
C358   C     0.21730   0.44742   0.47284   0.00000  Uiso   1.00
C359   C     0.25003   0.24999   0.40632   0.00000  Uiso   1.00
C360   C     0.25006   0.25003   0.59369   0.00000  Uiso   1.00
C361   C     0.25050   0.02622   0.49998   0.00000  Uiso   1.00
C362   C     0.25022   0.47313   0.50004   0.00000  Uiso   1.00
C363   C     0.25010   0.25001   0.35517   0.00000  Uiso   1.00
C364   C     0.25010   0.25006   0.64484   0.00000  Uiso   1.00
C365   C     0.04675   0.28641   0.52188   0.00000  Uiso   1.00
C366   C     0.45463   0.21213   0.51440   0.00000  Uiso   1.00
C367   C     0.45247   0.28899   0.47594   0.00000  Uiso   1.00
C368   C     0.33609   0.24999   0.49962   0.00000  Uiso   1.00
C369   C     0.04637   0.21579   0.47126   0.00000  Uiso   1.00
C370   C     0.09321   0.28639   0.52381   0.00000  Uiso   1.00
C371   C     0.40848   0.21078   0.51500   0.00000  Uiso   1.00
C372   C     0.40635   0.28844   0.47593   0.00000  Uiso   1.00
C373   C     0.09243   0.21360   0.47465   0.00000  Uiso   1.00
C374   C     0.11586   0.24983   0.49971   0.00000  Uiso   1.00
C375   C     0.38421   0.24988   0.49721   0.00000  Uiso   1.00
C376   C     0.02395   0.25165   0.49518   0.00000  Uiso   1.00
C377   C     0.47618   0.25094   0.49492   0.00000  Uiso   1.00
C378   C     0.10417   0.36422   0.54379   0.00000  Uiso   1.00
C379   C     0.23879   0.10087   0.45726   0.00000  Uiso   1.00
C380   C     0.39028   0.13387   0.50647   0.00000  Uiso   1.00
C381   C     0.37535   0.31952   0.40516   0.00000  Uiso   1.00
C382   C     0.10842   0.13592   0.47650   0.00000  Uiso   1.00
C383   C     0.28698   0.02312   0.39306   0.00000  Uiso   1.00
C384   C     0.35178   0.48002   0.52197   0.00000  Uiso   1.00
C385   C     0.21453   0.02435   0.60763   0.00000  Uiso   1.00
C386   C     0.14972   0.48316   0.47666   0.00000  Uiso   1.00
C387   C     0.28059   0.39805   0.52891   0.00000  Uiso   1.00
C388   C     0.26193   0.10111   0.54255   0.00000  Uiso   1.00
C389   C     0.21953   0.39810   0.47107   0.00000  Uiso   1.00
C390   C     0.24486   0.05192   0.45525   0.00000  Uiso   1.00
C391   C     0.28303   0.44733   0.52712   0.00000  Uiso   1.00
C392   C     0.25620   0.05212   0.54466   0.00000  Uiso   1.00
H393   H     0.02819   0.31237   0.54230   0.00000  Uiso   1.00
H394   H     0.42505   0.12067   0.50517   0.00000  Uiso   1.00
H395   H     0.35596   0.34959   0.39012   0.00000  Uiso   1.00
H396   H     0.35520   0.28743   0.39791   0.00000  Uiso   1.00
H397   H     0.40712   0.31785   0.38451   0.00000  Uiso   1.00
H398   H     0.11936   0.13908   0.51663   0.00000  Uiso   1.00
H399   H     0.12906   0.10837   0.45931   0.00000  Uiso   1.00
H400   H     0.07320   0.12402   0.47366   0.00000  Uiso   1.00
H401   H     0.30552   0.49833   0.41785   0.00000  Uiso   1.00
H402   H     0.30514   0.05695   0.39058   0.00000  Uiso   1.00
H403   H     0.28593   0.00746   0.35501   0.00000  Uiso   1.00
H404   H     0.47379   0.18339   0.53020   0.00000  Uiso   1.00
H405   H     0.34276   0.00942   0.49657   0.00000  Uiso   1.00
H406   H     0.36216   0.44893   0.49990   0.00000  Uiso   1.00
H407   H     0.38102   0.49136   0.54513   0.00000  Uiso   1.00
H408   H     0.19782   0.05874   0.61234   0.00000  Uiso   1.00
H409   H     0.19448   0.00143   0.58206   0.00000  Uiso   1.00
H410   H     0.21573   0.00700   0.64478   0.00000  Uiso   1.00
H411   H     0.15989   0.01325   0.50064   0.00000  Uiso   1.00
H412   H     0.13825   0.45364   0.50019   0.00000  Uiso   1.00
H413   H     0.12087   0.49467   0.45303   0.00000  Uiso   1.00
H414   H     0.46975   0.31888   0.46074   0.00000  Uiso   1.00
H415   H     0.02795   0.18931   0.45033   0.00000  Uiso   1.00
H416   H     0.09907   0.37090   0.50284   0.00000  Uiso   1.00
H417   H     0.13126   0.38769   0.55747   0.00000  Uiso   1.00
H418   H     0.07382   0.37344   0.56465   0.00000  Uiso   1.00
H419   H     0.37709   0.14108   0.46780   0.00000  Uiso   1.00
H420   H     0.36957   0.10564   0.52233   0.00000  Uiso   1.00
N421   N     0.25000   0.12624   0.50000   0.00000  Uiso   1.00
N422   N     0.25000   0.37377   0.50000   0.00000  Uiso   1.00
O423   O     0.18453   0.28974   0.50000   0.00000  Uiso   1.00
O424   O     0.38736   0.17360   0.53768   0.00000  Uiso   1.00
O425   O     0.38333   0.32662   0.45700   0.00000  Uiso   1.00
O426   O     0.11472   0.17817   0.45025   0.00000  Uiso   1.00
O427   O     0.24298   0.02952   0.40921   0.00000  Uiso   1.00
O428   O     0.31659   0.46973   0.55430   0.00000  Uiso   1.00
O429   O     0.25839   0.02983   0.59067   0.00000  Uiso   1.00
O430   O     0.18433   0.46982   0.44478   0.00000  Uiso   1.00
O431   O     0.31547   0.21026   0.50000   0.00000  Uiso   1.00
O432   O     0.31547   0.28974   0.50000   0.00000  Uiso   1.00
O433   O     0.18453   0.21026   0.50000   0.00000  Uiso   1.00
O434   O     0.25000   0.28973   0.42845   0.00000  Uiso   1.00
O435   O     0.25000   0.21027   0.57155   0.00000  Uiso   1.00
O436   O     0.25000   0.28973   0.57155   0.00000  Uiso   1.00
O437   O     0.25000   0.21027   0.42845   0.00000  Uiso   1.00
O438   O     0.11708   0.31773   0.55397   0.00000  Uiso   1.00
Zn439  Zn    0.25000   0.30307   0.50000   0.00000  Uiso   1.00
Zn440  Zn    0.25000   0.19693   0.50000   0.00000  Uiso   1.00
Br441  Br    0.71066   0.12742   0.39846   0.00000  Uiso   1.00
Br442  Br    0.82131   0.36636   0.57375   0.00000  Uiso   1.00
Br443  Br    0.79201   0.12806   0.59999   0.00000  Uiso   1.00
Br444  Br    0.67892   0.36640   0.42601   0.00000  Uiso   1.00
C445   C     0.66397   0.24993   0.50017   0.00000  Uiso   1.00
C446   C     0.71730   0.44742   0.47284   0.00000  Uiso   1.00
C447   C     0.75003   0.24999   0.40632   0.00000  Uiso   1.00
C448   C     0.75006   0.25003   0.59369   0.00000  Uiso   1.00
C449   C     0.75050   0.02622   0.49998   0.00000  Uiso   1.00
C450   C     0.75022   0.47313   0.50004   0.00000  Uiso   1.00
C451   C     0.75010   0.25001   0.35517   0.00000  Uiso   1.00
C452   C     0.75010   0.25006   0.64484   0.00000  Uiso   1.00
C453   C     0.54675   0.28641   0.52188   0.00000  Uiso   1.00
C454   C     0.95463   0.21213   0.51440   0.00000  Uiso   1.00
C455   C     0.95247   0.28899   0.47594   0.00000  Uiso   1.00
C456   C     0.83609   0.24999   0.49962   0.00000  Uiso   1.00
C457   C     0.54637   0.21579   0.47126   0.00000  Uiso   1.00
C458   C     0.59321   0.28639   0.52381   0.00000  Uiso   1.00
C459   C     0.90848   0.21078   0.51500   0.00000  Uiso   1.00
C460   C     0.90635   0.28844   0.47593   0.00000  Uiso   1.00
C461   C     0.59243   0.21360   0.47465   0.00000  Uiso   1.00
C462   C     0.61586   0.24983   0.49971   0.00000  Uiso   1.00
C463   C     0.88421   0.24988   0.49721   0.00000  Uiso   1.00
C464   C     0.52395   0.25165   0.49518   0.00000  Uiso   1.00
C465   C     0.97618   0.25094   0.49492   0.00000  Uiso   1.00
C466   C     0.60417   0.36422   0.54379   0.00000  Uiso   1.00
C467   C     0.73879   0.10087   0.45726   0.00000  Uiso   1.00
C468   C     0.89028   0.13387   0.50647   0.00000  Uiso   1.00
C469   C     0.87535   0.31952   0.40516   0.00000  Uiso   1.00
C470   C     0.60842   0.13592   0.47650   0.00000  Uiso   1.00
C471   C     0.78698   0.02312   0.39306   0.00000  Uiso   1.00
C472   C     0.85178   0.48002   0.52197   0.00000  Uiso   1.00
C473   C     0.71453   0.02435   0.60763   0.00000  Uiso   1.00
C474   C     0.64972   0.48316   0.47666   0.00000  Uiso   1.00
C475   C     0.78059   0.39805   0.52891   0.00000  Uiso   1.00
C476   C     0.76193   0.10111   0.54255   0.00000  Uiso   1.00
C477   C     0.71953   0.39810   0.47107   0.00000  Uiso   1.00
C478   C     0.74486   0.05192   0.45525   0.00000  Uiso   1.00
C479   C     0.78303   0.44733   0.52712   0.00000  Uiso   1.00
C480   C     0.75620   0.05212   0.54466   0.00000  Uiso   1.00
H481   H     0.52819   0.31237   0.54230   0.00000  Uiso   1.00
H482   H     0.92505   0.12067   0.50517   0.00000  Uiso   1.00
H483   H     0.85596   0.34959   0.39012   0.00000  Uiso   1.00
H484   H     0.85520   0.28743   0.39791   0.00000  Uiso   1.00
H485   H     0.90712   0.31785   0.38451   0.00000  Uiso   1.00
H486   H     0.61936   0.13908   0.51663   0.00000  Uiso   1.00
H487   H     0.62906   0.10837   0.45931   0.00000  Uiso   1.00
H488   H     0.57320   0.12402   0.47366   0.00000  Uiso   1.00
H489   H     0.80552   0.49833   0.41785   0.00000  Uiso   1.00
H490   H     0.80514   0.05695   0.39058   0.00000  Uiso   1.00
H491   H     0.78593   0.00746   0.35501   0.00000  Uiso   1.00
H492   H     0.97379   0.18339   0.53020   0.00000  Uiso   1.00
H493   H     0.84276   0.00942   0.49657   0.00000  Uiso   1.00
H494   H     0.86216   0.44893   0.49990   0.00000  Uiso   1.00
H495   H     0.88102   0.49136   0.54513   0.00000  Uiso   1.00
H496   H     0.69782   0.05874   0.61234   0.00000  Uiso   1.00
H497   H     0.69448   0.00143   0.58206   0.00000  Uiso   1.00
H498   H     0.71573   0.00700   0.64478   0.00000  Uiso   1.00
H499   H     0.65989   0.01325   0.50064   0.00000  Uiso   1.00
H500   H     0.63825   0.45364   0.50019   0.00000  Uiso   1.00
H501   H     0.62087   0.49467   0.45303   0.00000  Uiso   1.00
H502   H     0.96975   0.31888   0.46074   0.00000  Uiso   1.00
H503   H     0.52795   0.18931   0.45033   0.00000  Uiso   1.00
H504   H     0.59907   0.37090   0.50284   0.00000  Uiso   1.00
H505   H     0.63126   0.38769   0.55747   0.00000  Uiso   1.00
H506   H     0.57382   0.37344   0.56465   0.00000  Uiso   1.00
H507   H     0.87709   0.14108   0.46780   0.00000  Uiso   1.00
H508   H     0.86957   0.10564   0.52233   0.00000  Uiso   1.00
N509   N     0.75000   0.12624   0.50000   0.00000  Uiso   1.00
N510   N     0.75000   0.37377   0.50000   0.00000  Uiso   1.00
O511   O     0.68453   0.28974   0.50000   0.00000  Uiso   1.00
O512   O     0.88736   0.17360   0.53768   0.00000  Uiso   1.00
O513   O     0.88333   0.32662   0.45700   0.00000  Uiso   1.00
O514   O     0.61472   0.17817   0.45025   0.00000  Uiso   1.00
O515   O     0.74298   0.02952   0.40921   0.00000  Uiso   1.00
O516   O     0.81659   0.46973   0.55430   0.00000  Uiso   1.00
O517   O     0.75839   0.02983   0.59067   0.00000  Uiso   1.00
O518   O     0.68433   0.46982   0.44478   0.00000  Uiso   1.00
O519   O     0.81547   0.21026   0.50000   0.00000  Uiso   1.00
O520   O     0.81547   0.28974   0.50000   0.00000  Uiso   1.00
O521   O     0.68453   0.21026   0.50000   0.00000  Uiso   1.00
O522   O     0.75000   0.28973   0.42845   0.00000  Uiso   1.00
O523   O     0.75000   0.21027   0.57155   0.00000  Uiso   1.00
O524   O     0.75000   0.28973   0.57155   0.00000  Uiso   1.00
O525   O     0.75000   0.21027   0.42845   0.00000  Uiso   1.00
O526   O     0.61708   0.31773   0.55397   0.00000  Uiso   1.00
Zn527  Zn    0.75000   0.30307   0.50000   0.00000  Uiso   1.00
Zn528  Zn    0.75000   0.19693   0.50000   0.00000  Uiso   1.00
Br529  Br    0.21066   0.62742   0.39846   0.00000  Uiso   1.00
Br530  Br    0.32131   0.86636   0.57375   0.00000  Uiso   1.00
Br531  Br    0.29201   0.62806   0.59999   0.00000  Uiso   1.00
Br532  Br    0.17892   0.86640   0.42601   0.00000  Uiso   1.00
C533   C     0.16397   0.74993   0.50017   0.00000  Uiso   1.00
C534   C     0.21730   0.94742   0.47284   0.00000  Uiso   1.00
C535   C     0.25003   0.74999   0.40632   0.00000  Uiso   1.00
C536   C     0.25006   0.75003   0.59369   0.00000  Uiso   1.00
C537   C     0.25050   0.52622   0.49998   0.00000  Uiso   1.00
C538   C     0.25022   0.97313   0.50004   0.00000  Uiso   1.00
C539   C     0.25010   0.75001   0.35517   0.00000  Uiso   1.00
C540   C     0.25010   0.75006   0.64484   0.00000  Uiso   1.00
C541   C     0.04675   0.78641   0.52188   0.00000  Uiso   1.00
C542   C     0.45463   0.71213   0.51440   0.00000  Uiso   1.00
C543   C     0.45247   0.78899   0.47594   0.00000  Uiso   1.00
C544   C     0.33609   0.74999   0.49962   0.00000  Uiso   1.00
C545   C     0.04637   0.71579   0.47126   0.00000  Uiso   1.00
C546   C     0.09321   0.78639   0.52381   0.00000  Uiso   1.00
C547   C     0.40848   0.71078   0.51500   0.00000  Uiso   1.00
C548   C     0.40635   0.78844   0.47593   0.00000  Uiso   1.00
C549   C     0.09243   0.71360   0.47465   0.00000  Uiso   1.00
C550   C     0.11586   0.74983   0.49971   0.00000  Uiso   1.00
C551   C     0.38421   0.74988   0.49721   0.00000  Uiso   1.00
C552   C     0.02395   0.75165   0.49518   0.00000  Uiso   1.00
C553   C     0.47618   0.75094   0.49492   0.00000  Uiso   1.00
C554   C     0.10417   0.86422   0.54379   0.00000  Uiso   1.00
C555   C     0.23879   0.60087   0.45726   0.00000  Uiso   1.00
C556   C     0.39028   0.63387   0.50647   0.00000  Uiso   1.00
C557   C     0.37535   0.81952   0.40516   0.00000  Uiso   1.00
C558   C     0.10842   0.63592   0.47650   0.00000  Uiso   1.00
C559   C     0.28698   0.52312   0.39306   0.00000  Uiso   1.00
C560   C     0.35178   0.98002   0.52197   0.00000  Uiso   1.00
C561   C     0.21453   0.52435   0.60763   0.00000  Uiso   1.00
C562   C     0.14972   0.98316   0.47666   0.00000  Uiso   1.00
C563   C     0.28059   0.89805   0.52891   0.00000  Uiso   1.00
C564   C     0.26193   0.60111   0.54255   0.00000  Uiso   1.00
C565   C     0.21953   0.89810   0.47107   0.00000  Uiso   1.00
C566   C     0.24486   0.55192   0.45525   0.00000  Uiso   1.00
C567   C     0.28303   0.94733   0.52712   0.00000  Uiso   1.00
C568   C     0.25620   0.55212   0.54466   0.00000  Uiso   1.00
H569   H     0.02819   0.81237   0.54230   0.00000  Uiso   1.00
H570   H     0.42505   0.62067   0.50517   0.00000  Uiso   1.00
H571   H     0.35596   0.84959   0.39012   0.00000  Uiso   1.00
H572   H     0.35520   0.78743   0.39791   0.00000  Uiso   1.00
H573   H     0.40712   0.81785   0.38451   0.00000  Uiso   1.00
H574   H     0.11936   0.63908   0.51663   0.00000  Uiso   1.00
H575   H     0.12906   0.60837   0.45931   0.00000  Uiso   1.00
H576   H     0.07320   0.62402   0.47366   0.00000  Uiso   1.00
H577   H     0.30552   0.99833   0.41785   0.00000  Uiso   1.00
H578   H     0.30514   0.55695   0.39058   0.00000  Uiso   1.00
H579   H     0.28593   0.50746   0.35501   0.00000  Uiso   1.00
H580   H     0.47379   0.68339   0.53020   0.00000  Uiso   1.00
H581   H     0.34276   0.50942   0.49657   0.00000  Uiso   1.00
H582   H     0.36216   0.94893   0.49990   0.00000  Uiso   1.00
H583   H     0.38102   0.99136   0.54513   0.00000  Uiso   1.00
H584   H     0.19782   0.55874   0.61234   0.00000  Uiso   1.00
H585   H     0.19448   0.50143   0.58206   0.00000  Uiso   1.00
H586   H     0.21573   0.50700   0.64478   0.00000  Uiso   1.00
H587   H     0.15989   0.51325   0.50064   0.00000  Uiso   1.00
H588   H     0.13825   0.95364   0.50019   0.00000  Uiso   1.00
H589   H     0.12087   0.99467   0.45303   0.00000  Uiso   1.00
H590   H     0.46975   0.81888   0.46074   0.00000  Uiso   1.00
H591   H     0.02795   0.68931   0.45033   0.00000  Uiso   1.00
H592   H     0.09907   0.87090   0.50284   0.00000  Uiso   1.00
H593   H     0.13126   0.88769   0.55747   0.00000  Uiso   1.00
H594   H     0.07382   0.87344   0.56465   0.00000  Uiso   1.00
H595   H     0.37709   0.64108   0.46780   0.00000  Uiso   1.00
H596   H     0.36957   0.60564   0.52233   0.00000  Uiso   1.00
N597   N     0.25000   0.62624   0.50000   0.00000  Uiso   1.00
N598   N     0.25000   0.87377   0.50000   0.00000  Uiso   1.00
O599   O     0.18453   0.78974   0.50000   0.00000  Uiso   1.00
O600   O     0.38736   0.67360   0.53768   0.00000  Uiso   1.00
O601   O     0.38333   0.82662   0.45700   0.00000  Uiso   1.00
O602   O     0.11472   0.67817   0.45025   0.00000  Uiso   1.00
O603   O     0.24298   0.52952   0.40921   0.00000  Uiso   1.00
O604   O     0.31659   0.96973   0.55430   0.00000  Uiso   1.00
O605   O     0.25839   0.52983   0.59067   0.00000  Uiso   1.00
O606   O     0.18433   0.96982   0.44478   0.00000  Uiso   1.00
O607   O     0.31547   0.71026   0.50000   0.00000  Uiso   1.00
O608   O     0.31547   0.78974   0.50000   0.00000  Uiso   1.00
O609   O     0.18453   0.71026   0.50000   0.00000  Uiso   1.00
O610   O     0.25000   0.78973   0.42845   0.00000  Uiso   1.00
O611   O     0.25000   0.71027   0.57155   0.00000  Uiso   1.00
O612   O     0.25000   0.78973   0.57155   0.00000  Uiso   1.00
O613   O     0.25000   0.71027   0.42845   0.00000  Uiso   1.00
O614   O     0.11708   0.81773   0.55397   0.00000  Uiso   1.00
Zn615  Zn    0.25000   0.80307   0.50000   0.00000  Uiso   1.00
Zn616  Zn    0.25000   0.69693   0.50000   0.00000  Uiso   1.00
Br617  Br    0.71066   0.62742   0.39846   0.00000  Uiso   1.00
Br618  Br    0.82131   0.86636   0.57375   0.00000  Uiso   1.00
Br619  Br    0.79201   0.62806   0.59999   0.00000  Uiso   1.00
Br620  Br    0.67892   0.86640   0.42601   0.00000  Uiso   1.00
C621   C     0.66397   0.74993   0.50017   0.00000  Uiso   1.00
C622   C     0.71730   0.94742   0.47284   0.00000  Uiso   1.00
C623   C     0.75003   0.74999   0.40632   0.00000  Uiso   1.00
C624   C     0.75006   0.75003   0.59369   0.00000  Uiso   1.00
C625   C     0.75050   0.52622   0.49998   0.00000  Uiso   1.00
C626   C     0.75022   0.97313   0.50004   0.00000  Uiso   1.00
C627   C     0.75010   0.75001   0.35517   0.00000  Uiso   1.00
C628   C     0.75010   0.75006   0.64484   0.00000  Uiso   1.00
C629   C     0.54675   0.78641   0.52188   0.00000  Uiso   1.00
C630   C     0.95463   0.71213   0.51440   0.00000  Uiso   1.00
C631   C     0.95247   0.78899   0.47594   0.00000  Uiso   1.00
C632   C     0.83609   0.74999   0.49962   0.00000  Uiso   1.00
C633   C     0.54637   0.71579   0.47126   0.00000  Uiso   1.00
C634   C     0.59321   0.78639   0.52381   0.00000  Uiso   1.00
C635   C     0.90848   0.71078   0.51500   0.00000  Uiso   1.00
C636   C     0.90635   0.78844   0.47593   0.00000  Uiso   1.00
C637   C     0.59243   0.71360   0.47465   0.00000  Uiso   1.00
C638   C     0.61586   0.74983   0.49971   0.00000  Uiso   1.00
C639   C     0.88421   0.74988   0.49721   0.00000  Uiso   1.00
C640   C     0.52395   0.75165   0.49518   0.00000  Uiso   1.00
C641   C     0.97618   0.75094   0.49492   0.00000  Uiso   1.00
C642   C     0.60417   0.86422   0.54379   0.00000  Uiso   1.00
C643   C     0.73879   0.60087   0.45726   0.00000  Uiso   1.00
C644   C     0.89028   0.63387   0.50647   0.00000  Uiso   1.00
C645   C     0.87535   0.81952   0.40516   0.00000  Uiso   1.00
C646   C     0.60842   0.63592   0.47650   0.00000  Uiso   1.00
C647   C     0.78698   0.52312   0.39306   0.00000  Uiso   1.00
C648   C     0.85178   0.98002   0.52197   0.00000  Uiso   1.00
C649   C     0.71453   0.52435   0.60763   0.00000  Uiso   1.00
C650   C     0.64972   0.98316   0.47666   0.00000  Uiso   1.00
C651   C     0.78059   0.89805   0.52891   0.00000  Uiso   1.00
C652   C     0.76193   0.60111   0.54255   0.00000  Uiso   1.00
C653   C     0.71953   0.89810   0.47107   0.00000  Uiso   1.00
C654   C     0.74486   0.55192   0.45525   0.00000  Uiso   1.00
C655   C     0.78303   0.94733   0.52712   0.00000  Uiso   1.00
C656   C     0.75620   0.55212   0.54466   0.00000  Uiso   1.00
H657   H     0.52819   0.81237   0.54230   0.00000  Uiso   1.00
H658   H     0.92505   0.62067   0.50517   0.00000  Uiso   1.00
H659   H     0.85596   0.84959   0.39012   0.00000  Uiso   1.00
H660   H     0.85520   0.78743   0.39791   0.00000  Uiso   1.00
H661   H     0.90712   0.81785   0.38451   0.00000  Uiso   1.00
H662   H     0.61936   0.63908   0.51663   0.00000  Uiso   1.00
H663   H     0.62906   0.60837   0.45931   0.00000  Uiso   1.00
H664   H     0.57320   0.62402   0.47366   0.00000  Uiso   1.00
H665   H     0.80552   0.99833   0.41785   0.00000  Uiso   1.00
H666   H     0.80514   0.55695   0.39058   0.00000  Uiso   1.00
H667   H     0.78593   0.50746   0.35501   0.00000  Uiso   1.00
H668   H     0.97379   0.68339   0.53020   0.00000  Uiso   1.00
H669   H     0.84276   0.50942   0.49657   0.00000  Uiso   1.00
H670   H     0.86216   0.94893   0.49990   0.00000  Uiso   1.00
H671   H     0.88102   0.99136   0.54513   0.00000  Uiso   1.00
H672   H     0.69782   0.55874   0.61234   0.00000  Uiso   1.00
H673   H     0.69448   0.50143   0.58206   0.00000  Uiso   1.00
H674   H     0.71573   0.50700   0.64478   0.00000  Uiso   1.00
H675   H     0.65989   0.51325   0.50064   0.00000  Uiso   1.00
H676   H     0.63825   0.95364   0.50019   0.00000  Uiso   1.00
H677   H     0.62087   0.99467   0.45303   0.00000  Uiso   1.00
H678   H     0.96975   0.81888   0.46074   0.00000  Uiso   1.00
H679   H     0.52795   0.68931   0.45033   0.00000  Uiso   1.00
H680   H     0.59907   0.87090   0.50284   0.00000  Uiso   1.00
H681   H     0.63126   0.88769   0.55747   0.00000  Uiso   1.00
H682   H     0.57382   0.87344   0.56465   0.00000  Uiso   1.00
H683   H     0.87709   0.64108   0.46780   0.00000  Uiso   1.00
H684   H     0.86957   0.60564   0.52233   0.00000  Uiso   1.00
N685   N     0.75000   0.62624   0.50000   0.00000  Uiso   1.00
N686   N     0.75000   0.87377   0.50000   0.00000  Uiso   1.00
O687   O     0.68453   0.78974   0.50000   0.00000  Uiso   1.00
O688   O     0.88736   0.67360   0.53768   0.00000  Uiso   1.00
O689   O     0.88333   0.82662   0.45700   0.00000  Uiso   1.00
O690   O     0.61472   0.67817   0.45025   0.00000  Uiso   1.00
O691   O     0.74298   0.52952   0.40921   0.00000  Uiso   1.00
O692   O     0.81659   0.96973   0.55430   0.00000  Uiso   1.00
O693   O     0.75839   0.52983   0.59067   0.00000  Uiso   1.00
O694   O     0.68433   0.96982   0.44478   0.00000  Uiso   1.00
O695   O     0.81547   0.71026   0.50000   0.00000  Uiso   1.00
O696   O     0.81547   0.78974   0.50000   0.00000  Uiso   1.00
O697   O     0.68453   0.71026   0.50000   0.00000  Uiso   1.00
O698   O     0.75000   0.78973   0.42845   0.00000  Uiso   1.00
O699   O     0.75000   0.71027   0.57155   0.00000  Uiso   1.00
O700   O     0.75000   0.78973   0.57155   0.00000  Uiso   1.00
O701   O     0.75000   0.71027   0.42845   0.00000  Uiso   1.00
O702   O     0.61708   0.81773   0.55397   0.00000  Uiso   1.00
Zn703  Zn    0.75000   0.80307   0.50000   0.00000  Uiso   1.00
Zn704  Zn    0.75000   0.69693   0.50000   0.00000  Uiso   1.00
Br705  Br    0.21066   0.12742   0.73180   0.00000  Uiso   1.00
Br706  Br    0.32131   0.36636   0.90708   0.00000  Uiso   1.00
Br707  Br    0.29201   0.12806   0.93332   0.00000  Uiso   1.00
Br708  Br    0.17892   0.36640   0.75934   0.00000  Uiso   1.00
C709   C     0.16397   0.24993   0.83350   0.00000  Uiso   1.00
C710   C     0.21730   0.44742   0.80618   0.00000  Uiso   1.00
C711   C     0.25003   0.24999   0.73965   0.00000  Uiso   1.00
C712   C     0.25006   0.25003   0.92702   0.00000  Uiso   1.00
C713   C     0.25050   0.02622   0.83331   0.00000  Uiso   1.00
C714   C     0.25022   0.47313   0.83338   0.00000  Uiso   1.00
C715   C     0.25010   0.25001   0.68851   0.00000  Uiso   1.00
C716   C     0.25010   0.25006   0.97817   0.00000  Uiso   1.00
C717   C     0.04675   0.28641   0.85522   0.00000  Uiso   1.00
C718   C     0.45463   0.21213   0.84773   0.00000  Uiso   1.00
C719   C     0.45247   0.28899   0.80927   0.00000  Uiso   1.00
C720   C     0.33609   0.24999   0.83296   0.00000  Uiso   1.00
C721   C     0.04637   0.21579   0.80459   0.00000  Uiso   1.00
C722   C     0.09321   0.28639   0.85715   0.00000  Uiso   1.00
C723   C     0.40848   0.21078   0.84833   0.00000  Uiso   1.00
C724   C     0.40635   0.28844   0.80926   0.00000  Uiso   1.00
C725   C     0.09243   0.21360   0.80798   0.00000  Uiso   1.00
C726   C     0.11586   0.24983   0.83304   0.00000  Uiso   1.00
C727   C     0.38421   0.24988   0.83054   0.00000  Uiso   1.00
C728   C     0.02395   0.25165   0.82852   0.00000  Uiso   1.00
C729   C     0.47618   0.25094   0.82826   0.00000  Uiso   1.00
C730   C     0.10417   0.36422   0.87712   0.00000  Uiso   1.00
C731   C     0.23879   0.10087   0.79059   0.00000  Uiso   1.00
C732   C     0.39028   0.13387   0.83980   0.00000  Uiso   1.00
C733   C     0.37535   0.31952   0.73849   0.00000  Uiso   1.00
C734   C     0.10842   0.13592   0.80984   0.00000  Uiso   1.00
C735   C     0.28698   0.02312   0.72639   0.00000  Uiso   1.00
C736   C     0.35178   0.48002   0.85530   0.00000  Uiso   1.00
C737   C     0.21453   0.02435   0.94096   0.00000  Uiso   1.00
C738   C     0.14972   0.48316   0.80999   0.00000  Uiso   1.00
C739   C     0.28059   0.39805   0.86225   0.00000  Uiso   1.00
C740   C     0.26193   0.10111   0.87588   0.00000  Uiso   1.00
C741   C     0.21953   0.39810   0.80441   0.00000  Uiso   1.00
C742   C     0.24486   0.05192   0.78858   0.00000  Uiso   1.00
C743   C     0.28303   0.44733   0.86045   0.00000  Uiso   1.00
C744   C     0.25620   0.05212   0.87799   0.00000  Uiso   1.00
H745   H     0.02819   0.31237   0.87563   0.00000  Uiso   1.00
H746   H     0.42505   0.12067   0.83851   0.00000  Uiso   1.00
H747   H     0.35596   0.34959   0.72346   0.00000  Uiso   1.00
H748   H     0.35520   0.28743   0.73125   0.00000  Uiso   1.00
H749   H     0.40712   0.31785   0.71785   0.00000  Uiso   1.00
H750   H     0.11936   0.13908   0.84996   0.00000  Uiso   1.00
H751   H     0.12906   0.10837   0.79265   0.00000  Uiso   1.00
H752   H     0.07320   0.12402   0.80700   0.00000  Uiso   1.00
H753   H     0.30552   0.49833   0.75118   0.00000  Uiso   1.00
H754   H     0.30514   0.05695   0.72392   0.00000  Uiso   1.00
H755   H     0.28593   0.00746   0.68834   0.00000  Uiso   1.00
H756   H     0.47379   0.18339   0.86354   0.00000  Uiso   1.00
H757   H     0.34276   0.00942   0.82990   0.00000  Uiso   1.00
H758   H     0.36216   0.44893   0.83323   0.00000  Uiso   1.00
H759   H     0.38102   0.49136   0.87846   0.00000  Uiso   1.00
H760   H     0.19782   0.05874   0.94568   0.00000  Uiso   1.00
H761   H     0.19448   0.00143   0.91539   0.00000  Uiso   1.00
H762   H     0.21573   0.00700   0.97811   0.00000  Uiso   1.00
H763   H     0.15989   0.01325   0.83397   0.00000  Uiso   1.00
H764   H     0.13825   0.45364   0.83353   0.00000  Uiso   1.00
H765   H     0.12087   0.49467   0.78636   0.00000  Uiso   1.00
H766   H     0.46975   0.31888   0.79408   0.00000  Uiso   1.00
H767   H     0.02795   0.18931   0.78366   0.00000  Uiso   1.00
H768   H     0.09907   0.37090   0.83617   0.00000  Uiso   1.00
H769   H     0.13126   0.38769   0.89081   0.00000  Uiso   1.00
H770   H     0.07382   0.37344   0.89799   0.00000  Uiso   1.00
H771   H     0.37709   0.14108   0.80113   0.00000  Uiso   1.00
H772   H     0.36957   0.10564   0.85566   0.00000  Uiso   1.00
N773   N     0.25000   0.12624   0.83333   0.00000  Uiso   1.00
N774   N     0.25000   0.37377   0.83333   0.00000  Uiso   1.00
O775   O     0.18453   0.28974   0.83334   0.00000  Uiso   1.00
O776   O     0.38736   0.17360   0.87101   0.00000  Uiso   1.00
O777   O     0.38333   0.32662   0.79034   0.00000  Uiso   1.00
O778   O     0.11472   0.17817   0.78359   0.00000  Uiso   1.00
O779   O     0.24298   0.02952   0.74255   0.00000  Uiso   1.00
O780   O     0.31659   0.46973   0.88764   0.00000  Uiso   1.00
O781   O     0.25839   0.02983   0.92400   0.00000  Uiso   1.00
O782   O     0.18433   0.46982   0.77812   0.00000  Uiso   1.00
O783   O     0.31547   0.21026   0.83333   0.00000  Uiso   1.00
O784   O     0.31547   0.28974   0.83333   0.00000  Uiso   1.00
O785   O     0.18453   0.21026   0.83334   0.00000  Uiso   1.00
O786   O     0.25000   0.28973   0.76178   0.00000  Uiso   1.00
O787   O     0.25000   0.21027   0.90489   0.00000  Uiso   1.00
O788   O     0.25000   0.28973   0.90489   0.00000  Uiso   1.00
O789   O     0.25000   0.21027   0.76178   0.00000  Uiso   1.00
O790   O     0.11708   0.31773   0.88731   0.00000  Uiso   1.00
Zn791  Zn    0.25000   0.30307   0.83333   0.00000  Uiso   1.00
Zn792  Zn    0.25000   0.19693   0.83333   0.00000  Uiso   1.00
Br793  Br    0.71066   0.12742   0.73180   0.00000  Uiso   1.00
Br794  Br    0.82131   0.36636   0.90708   0.00000  Uiso   1.00
Br795  Br    0.79201   0.12806   0.93332   0.00000  Uiso   1.00
Br796  Br    0.67892   0.36640   0.75934   0.00000  Uiso   1.00
C797   C     0.66397   0.24993   0.83350   0.00000  Uiso   1.00
C798   C     0.71730   0.44742   0.80618   0.00000  Uiso   1.00
C799   C     0.75003   0.24999   0.73965   0.00000  Uiso   1.00
C800   C     0.75006   0.25003   0.92702   0.00000  Uiso   1.00
C801   C     0.75050   0.02622   0.83331   0.00000  Uiso   1.00
C802   C     0.75022   0.47313   0.83338   0.00000  Uiso   1.00
C803   C     0.75010   0.25001   0.68851   0.00000  Uiso   1.00
C804   C     0.75010   0.25006   0.97817   0.00000  Uiso   1.00
C805   C     0.54675   0.28641   0.85522   0.00000  Uiso   1.00
C806   C     0.95463   0.21213   0.84773   0.00000  Uiso   1.00
C807   C     0.95247   0.28899   0.80927   0.00000  Uiso   1.00
C808   C     0.83609   0.24999   0.83296   0.00000  Uiso   1.00
C809   C     0.54637   0.21579   0.80459   0.00000  Uiso   1.00
C810   C     0.59321   0.28639   0.85715   0.00000  Uiso   1.00
C811   C     0.90848   0.21078   0.84833   0.00000  Uiso   1.00
C812   C     0.90635   0.28844   0.80926   0.00000  Uiso   1.00
C813   C     0.59243   0.21360   0.80798   0.00000  Uiso   1.00
C814   C     0.61586   0.24983   0.83304   0.00000  Uiso   1.00
C815   C     0.88421   0.24988   0.83054   0.00000  Uiso   1.00
C816   C     0.52395   0.25165   0.82852   0.00000  Uiso   1.00
C817   C     0.97618   0.25094   0.82826   0.00000  Uiso   1.00
C818   C     0.60417   0.36422   0.87712   0.00000  Uiso   1.00
C819   C     0.73879   0.10087   0.79059   0.00000  Uiso   1.00
C820   C     0.89028   0.13387   0.83980   0.00000  Uiso   1.00
C821   C     0.87535   0.31952   0.73849   0.00000  Uiso   1.00
C822   C     0.60842   0.13592   0.80984   0.00000  Uiso   1.00
C823   C     0.78698   0.02312   0.72639   0.00000  Uiso   1.00
C824   C     0.85178   0.48002   0.85530   0.00000  Uiso   1.00
C825   C     0.71453   0.02435   0.94096   0.00000  Uiso   1.00
C826   C     0.64972   0.48316   0.80999   0.00000  Uiso   1.00
C827   C     0.78059   0.39805   0.86225   0.00000  Uiso   1.00
C828   C     0.76193   0.10111   0.87588   0.00000  Uiso   1.00
C829   C     0.71953   0.39810   0.80441   0.00000  Uiso   1.00
C830   C     0.74486   0.05192   0.78858   0.00000  Uiso   1.00
C831   C     0.78303   0.44733   0.86045   0.00000  Uiso   1.00
C832   C     0.75620   0.05212   0.87799   0.00000  Uiso   1.00
H833   H     0.52819   0.31237   0.87563   0.00000  Uiso   1.00
H834   H     0.92505   0.12067   0.83851   0.00000  Uiso   1.00
H835   H     0.85596   0.34959   0.72346   0.00000  Uiso   1.00
H836   H     0.85520   0.28743   0.73125   0.00000  Uiso   1.00
H837   H     0.90712   0.31785   0.71785   0.00000  Uiso   1.00
H838   H     0.61936   0.13908   0.84996   0.00000  Uiso   1.00
H839   H     0.62906   0.10837   0.79265   0.00000  Uiso   1.00
H840   H     0.57320   0.12402   0.80700   0.00000  Uiso   1.00
H841   H     0.80552   0.49833   0.75118   0.00000  Uiso   1.00
H842   H     0.80514   0.05695   0.72392   0.00000  Uiso   1.00
H843   H     0.78593   0.00746   0.68834   0.00000  Uiso   1.00
H844   H     0.97379   0.18339   0.86354   0.00000  Uiso   1.00
H845   H     0.84276   0.00942   0.82990   0.00000  Uiso   1.00
H846   H     0.86216   0.44893   0.83323   0.00000  Uiso   1.00
H847   H     0.88102   0.49136   0.87846   0.00000  Uiso   1.00
H848   H     0.69782   0.05874   0.94568   0.00000  Uiso   1.00
H849   H     0.69448   0.00143   0.91539   0.00000  Uiso   1.00
H850   H     0.71573   0.00700   0.97811   0.00000  Uiso   1.00
H851   H     0.65989   0.01325   0.83397   0.00000  Uiso   1.00
H852   H     0.63825   0.45364   0.83353   0.00000  Uiso   1.00
H853   H     0.62087   0.49467   0.78636   0.00000  Uiso   1.00
H854   H     0.96975   0.31888   0.79408   0.00000  Uiso   1.00
H855   H     0.52795   0.18931   0.78366   0.00000  Uiso   1.00
H856   H     0.59907   0.37090   0.83617   0.00000  Uiso   1.00
H857   H     0.63126   0.38769   0.89081   0.00000  Uiso   1.00
H858   H     0.57382   0.37344   0.89799   0.00000  Uiso   1.00
H859   H     0.87709   0.14108   0.80113   0.00000  Uiso   1.00
H860   H     0.86957   0.10564   0.85566   0.00000  Uiso   1.00
N861   N     0.75000   0.12624   0.83333   0.00000  Uiso   1.00
N862   N     0.75000   0.37377   0.83333   0.00000  Uiso   1.00
O863   O     0.68453   0.28974   0.83334   0.00000  Uiso   1.00
O864   O     0.88736   0.17360   0.87101   0.00000  Uiso   1.00
O865   O     0.88333   0.32662   0.79034   0.00000  Uiso   1.00
O866   O     0.61472   0.17817   0.78359   0.00000  Uiso   1.00
O867   O     0.74298   0.02952   0.74255   0.00000  Uiso   1.00
O868   O     0.81659   0.46973   0.88764   0.00000  Uiso   1.00
O869   O     0.75839   0.02983   0.92400   0.00000  Uiso   1.00
O870   O     0.68433   0.46982   0.77812   0.00000  Uiso   1.00
O871   O     0.81547   0.21026   0.83333   0.00000  Uiso   1.00
O872   O     0.81547   0.28974   0.83333   0.00000  Uiso   1.00
O873   O     0.68453   0.21026   0.83334   0.00000  Uiso   1.00
O874   O     0.75000   0.28973   0.76178   0.00000  Uiso   1.00
O875   O     0.75000   0.21027   0.90489   0.00000  Uiso   1.00
O876   O     0.75000   0.28973   0.90489   0.00000  Uiso   1.00
O877   O     0.75000   0.21027   0.76178   0.00000  Uiso   1.00
O878   O     0.61708   0.31773   0.88731   0.00000  Uiso   1.00
Zn879  Zn    0.75000   0.30307   0.83333   0.00000  Uiso   1.00
Zn880  Zn    0.75000   0.19693   0.83333   0.00000  Uiso   1.00
Br881  Br    0.21066   0.62742   0.73180   0.00000  Uiso   1.00
Br882  Br    0.32131   0.86636   0.90708   0.00000  Uiso   1.00
Br883  Br    0.29201   0.62806   0.93332   0.00000  Uiso   1.00
Br884  Br    0.17892   0.86640   0.75934   0.00000  Uiso   1.00
C885   C     0.16397   0.74993   0.83350   0.00000  Uiso   1.00
C886   C     0.21730   0.94742   0.80618   0.00000  Uiso   1.00
C887   C     0.25003   0.74999   0.73965   0.00000  Uiso   1.00
C888   C     0.25006   0.75003   0.92702   0.00000  Uiso   1.00
C889   C     0.25050   0.52622   0.83331   0.00000  Uiso   1.00
C890   C     0.25022   0.97313   0.83338   0.00000  Uiso   1.00
C891   C     0.25010   0.75001   0.68851   0.00000  Uiso   1.00
C892   C     0.25010   0.75006   0.97817   0.00000  Uiso   1.00
C893   C     0.04675   0.78641   0.85522   0.00000  Uiso   1.00
C894   C     0.45463   0.71213   0.84773   0.00000  Uiso   1.00
C895   C     0.45247   0.78899   0.80927   0.00000  Uiso   1.00
C896   C     0.33609   0.74999   0.83296   0.00000  Uiso   1.00
C897   C     0.04637   0.71579   0.80459   0.00000  Uiso   1.00
C898   C     0.09321   0.78639   0.85715   0.00000  Uiso   1.00
C899   C     0.40848   0.71078   0.84833   0.00000  Uiso   1.00
C900   C     0.40635   0.78844   0.80926   0.00000  Uiso   1.00
C901   C     0.09243   0.71360   0.80798   0.00000  Uiso   1.00
C902   C     0.11586   0.74983   0.83304   0.00000  Uiso   1.00
C903   C     0.38421   0.74988   0.83054   0.00000  Uiso   1.00
C904   C     0.02395   0.75165   0.82852   0.00000  Uiso   1.00
C905   C     0.47618   0.75094   0.82826   0.00000  Uiso   1.00
C906   C     0.10417   0.86422   0.87712   0.00000  Uiso   1.00
C907   C     0.23879   0.60087   0.79059   0.00000  Uiso   1.00
C908   C     0.39028   0.63387   0.83980   0.00000  Uiso   1.00
C909   C     0.37535   0.81952   0.73849   0.00000  Uiso   1.00
C910   C     0.10842   0.63592   0.80984   0.00000  Uiso   1.00
C911   C     0.28698   0.52312   0.72639   0.00000  Uiso   1.00
C912   C     0.35178   0.98002   0.85530   0.00000  Uiso   1.00
C913   C     0.21453   0.52435   0.94096   0.00000  Uiso   1.00
C914   C     0.14972   0.98316   0.80999   0.00000  Uiso   1.00
C915   C     0.28059   0.89805   0.86225   0.00000  Uiso   1.00
C916   C     0.26193   0.60111   0.87588   0.00000  Uiso   1.00
C917   C     0.21953   0.89810   0.80441   0.00000  Uiso   1.00
C918   C     0.24486   0.55192   0.78858   0.00000  Uiso   1.00
C919   C     0.28303   0.94733   0.86045   0.00000  Uiso   1.00
C920   C     0.25620   0.55212   0.87799   0.00000  Uiso   1.00
H921   H     0.02819   0.81237   0.87563   0.00000  Uiso   1.00
H922   H     0.42505   0.62067   0.83851   0.00000  Uiso   1.00
H923   H     0.35596   0.84959   0.72346   0.00000  Uiso   1.00
H924   H     0.35520   0.78743   0.73125   0.00000  Uiso   1.00
H925   H     0.40712   0.81785   0.71785   0.00000  Uiso   1.00
H926   H     0.11936   0.63908   0.84996   0.00000  Uiso   1.00
H927   H     0.12906   0.60837   0.79265   0.00000  Uiso   1.00
H928   H     0.07320   0.62402   0.80700   0.00000  Uiso   1.00
H929   H     0.30552   0.99833   0.75118   0.00000  Uiso   1.00
H930   H     0.30514   0.55695   0.72392   0.00000  Uiso   1.00
H931   H     0.28593   0.50746   0.68834   0.00000  Uiso   1.00
H932   H     0.47379   0.68339   0.86354   0.00000  Uiso   1.00
H933   H     0.34276   0.50942   0.82990   0.00000  Uiso   1.00
H934   H     0.36216   0.94893   0.83323   0.00000  Uiso   1.00
H935   H     0.38102   0.99136   0.87846   0.00000  Uiso   1.00
H936   H     0.19782   0.55874   0.94568   0.00000  Uiso   1.00
H937   H     0.19448   0.50143   0.91539   0.00000  Uiso   1.00
H938   H     0.21573   0.50700   0.97811   0.00000  Uiso   1.00
H939   H     0.15989   0.51325   0.83397   0.00000  Uiso   1.00
H940   H     0.13825   0.95364   0.83353   0.00000  Uiso   1.00
H941   H     0.12087   0.99467   0.78636   0.00000  Uiso   1.00
H942   H     0.46975   0.81888   0.79408   0.00000  Uiso   1.00
H943   H     0.02795   0.68931   0.78366   0.00000  Uiso   1.00
H944   H     0.09907   0.87090   0.83617   0.00000  Uiso   1.00
H945   H     0.13126   0.88769   0.89081   0.00000  Uiso   1.00
H946   H     0.07382   0.87344   0.89799   0.00000  Uiso   1.00
H947   H     0.37709   0.64108   0.80113   0.00000  Uiso   1.00
H948   H     0.36957   0.60564   0.85566   0.00000  Uiso   1.00
N949   N     0.25000   0.62624   0.83333   0.00000  Uiso   1.00
N950   N     0.25000   0.87377   0.83333   0.00000  Uiso   1.00
O951   O     0.18453   0.78974   0.83334   0.00000  Uiso   1.00
O952   O     0.38736   0.67360   0.87101   0.00000  Uiso   1.00
O953   O     0.38333   0.82662   0.79034   0.00000  Uiso   1.00
O954   O     0.11472   0.67817   0.78359   0.00000  Uiso   1.00
O955   O     0.24298   0.52952   0.74255   0.00000  Uiso   1.00
O956   O     0.31659   0.96973   0.88764   0.00000  Uiso   1.00
O957   O     0.25839   0.52983   0.92400   0.00000  Uiso   1.00
O958   O     0.18433   0.96982   0.77812   0.00000  Uiso   1.00
O959   O     0.31547   0.71026   0.83333   0.00000  Uiso   1.00
O960   O     0.31547   0.78974   0.83333   0.00000  Uiso   1.00
O961   O     0.18453   0.71026   0.83334   0.00000  Uiso   1.00
O962   O     0.25000   0.78973   0.76178   0.00000  Uiso   1.00
O963   O     0.25000   0.71027   0.90489   0.00000  Uiso   1.00
O964   O     0.25000   0.78973   0.90489   0.00000  Uiso   1.00
O965   O     0.25000   0.71027   0.76178   0.00000  Uiso   1.00
O966   O     0.11708   0.81773   0.88731   0.00000  Uiso   1.00
Zn967  Zn    0.25000   0.80307   0.83333   0.00000  Uiso   1.00
Zn968  Zn    0.25000   0.69693   0.83333   0.00000  Uiso   1.00
Br969  Br    0.71066   0.62742   0.73180   0.00000  Uiso   1.00
Br970  Br    0.82131   0.86636   0.90708   0.00000  Uiso   1.00
Br971  Br    0.79201   0.62806   0.93332   0.00000  Uiso   1.00
Br972  Br    0.67892   0.86640   0.75934   0.00000  Uiso   1.00
C973   C     0.66397   0.74993   0.83350   0.00000  Uiso   1.00
C974   C     0.71730   0.94742   0.80618   0.00000  Uiso   1.00
C975   C     0.75003   0.74999   0.73965   0.00000  Uiso   1.00
C976   C     0.75006   0.75003   0.92702   0.00000  Uiso   1.00
C977   C     0.75050   0.52622   0.83331   0.00000  Uiso   1.00
C978   C     0.75022   0.97313   0.83338   0.00000  Uiso   1.00
C979   C     0.75010   0.75001   0.68851   0.00000  Uiso   1.00
C980   C     0.75010   0.75006   0.97817   0.00000  Uiso   1.00
C981   C     0.54675   0.78641   0.85522   0.00000  Uiso   1.00
C982   C     0.95463   0.71213   0.84773   0.00000  Uiso   1.00
C983   C     0.95247   0.78899   0.80927   0.00000  Uiso   1.00
C984   C     0.83609   0.74999   0.83296   0.00000  Uiso   1.00
C985   C     0.54637   0.71579   0.80459   0.00000  Uiso   1.00
C986   C     0.59321   0.78639   0.85715   0.00000  Uiso   1.00
C987   C     0.90848   0.71078   0.84833   0.00000  Uiso   1.00
C988   C     0.90635   0.78844   0.80926   0.00000  Uiso   1.00
C989   C     0.59243   0.71360   0.80798   0.00000  Uiso   1.00
C990   C     0.61586   0.74983   0.83304   0.00000  Uiso   1.00
C991   C     0.88421   0.74988   0.83054   0.00000  Uiso   1.00
C992   C     0.52395   0.75165   0.82852   0.00000  Uiso   1.00
C993   C     0.97618   0.75094   0.82826   0.00000  Uiso   1.00
C994   C     0.60417   0.86422   0.87712   0.00000  Uiso   1.00
C995   C     0.73879   0.60087   0.79059   0.00000  Uiso   1.00
C996   C     0.89028   0.63387   0.83980   0.00000  Uiso   1.00
C997   C     0.87535   0.81952   0.73849   0.00000  Uiso   1.00
C998   C     0.60842   0.63592   0.80984   0.00000  Uiso   1.00
C999   C     0.78698   0.52312   0.72639   0.00000  Uiso   1.00
C1000  C     0.85178   0.98002   0.85530   0.00000  Uiso   1.00
C1001  C     0.71453   0.52435   0.94096   0.00000  Uiso   1.00
C1002  C     0.64972   0.98316   0.80999   0.00000  Uiso   1.00
C1003  C     0.78059   0.89805   0.86225   0.00000  Uiso   1.00
C1004  C     0.76193   0.60111   0.87588   0.00000  Uiso   1.00
C1005  C     0.71953   0.89810   0.80441   0.00000  Uiso   1.00
C1006  C     0.74486   0.55192   0.78858   0.00000  Uiso   1.00
C1007  C     0.78303   0.94733   0.86045   0.00000  Uiso   1.00
C1008  C     0.75620   0.55212   0.87799   0.00000  Uiso   1.00
H1009  H     0.52819   0.81237   0.87563   0.00000  Uiso   1.00
H1010  H     0.92505   0.62067   0.83851   0.00000  Uiso   1.00
H1011  H     0.85596   0.84959   0.72346   0.00000  Uiso   1.00
H1012  H     0.85520   0.78743   0.73125   0.00000  Uiso   1.00
H1013  H     0.90712   0.81785   0.71785   0.00000  Uiso   1.00
H1014  H     0.61936   0.63908   0.84996   0.00000  Uiso   1.00
H1015  H     0.62906   0.60837   0.79265   0.00000  Uiso   1.00
H1016  H     0.57320   0.62402   0.80700   0.00000  Uiso   1.00
H1017  H     0.80552   0.99833   0.75118   0.00000  Uiso   1.00
H1018  H     0.80514   0.55695   0.72392   0.00000  Uiso   1.00
H1019  H     0.78593   0.50746   0.68834   0.00000  Uiso   1.00
H1020  H     0.97379   0.68339   0.86354   0.00000  Uiso   1.00
H1021  H     0.84276   0.50942   0.82990   0.00000  Uiso   1.00
H1022  H     0.86216   0.94893   0.83323   0.00000  Uiso   1.00
H1023  H     0.88102   0.99136   0.87846   0.00000  Uiso   1.00
H1024  H     0.69782   0.55874   0.94568   0.00000  Uiso   1.00
H1025  H     0.69448   0.50143   0.91539   0.00000  Uiso   1.00
H1026  H     0.71573   0.50700   0.97811   0.00000  Uiso   1.00
H1027  H     0.65989   0.51325   0.83397   0.00000  Uiso   1.00
H1028  H     0.63825   0.95364   0.83353   0.00000  Uiso   1.00
H1029  H     0.62087   0.99467   0.78636   0.00000  Uiso   1.00
H1030  H     0.96975   0.81888   0.79408   0.00000  Uiso   1.00
H1031  H     0.52795   0.68931   0.78366   0.00000  Uiso   1.00
H1032  H     0.59907   0.87090   0.83617   0.00000  Uiso   1.00
H1033  H     0.63126   0.88769   0.89081   0.00000  Uiso   1.00
H1034  H     0.57382   0.87344   0.89799   0.00000  Uiso   1.00
H1035  H     0.87709   0.64108   0.80113   0.00000  Uiso   1.00
H1036  H     0.86957   0.60564   0.85566   0.00000  Uiso   1.00
N1037  N     0.75000   0.62624   0.83333   0.00000  Uiso   1.00
N1038  N     0.75000   0.87377   0.83333   0.00000  Uiso   1.00
O1039  O     0.68453   0.78974   0.83334   0.00000  Uiso   1.00
O1040  O     0.88736   0.67360   0.87101   0.00000  Uiso   1.00
O1041  O     0.88333   0.82662   0.79034   0.00000  Uiso   1.00
O1042  O     0.61472   0.67817   0.78359   0.00000  Uiso   1.00
O1043  O     0.74298   0.52952   0.74255   0.00000  Uiso   1.00
O1044  O     0.81659   0.96973   0.88764   0.00000  Uiso   1.00
O1045  O     0.75839   0.52983   0.92400   0.00000  Uiso   1.00
O1046  O     0.68433   0.96982   0.77812   0.00000  Uiso   1.00
O1047  O     0.81547   0.71026   0.83333   0.00000  Uiso   1.00
O1048  O     0.81547   0.78974   0.83333   0.00000  Uiso   1.00
O1049  O     0.68453   0.71026   0.83334   0.00000  Uiso   1.00
O1050  O     0.75000   0.78973   0.76178   0.00000  Uiso   1.00
O1051  O     0.75000   0.71027   0.90489   0.00000  Uiso   1.00
O1052  O     0.75000   0.78973   0.90489   0.00000  Uiso   1.00
O1053  O     0.75000   0.71027   0.76178   0.00000  Uiso   1.00
O1054  O     0.61708   0.81773   0.88731   0.00000  Uiso   1.00
Zn1055 Zn    0.75000   0.80307   0.83333   0.00000  Uiso   1.00
Zn1056 Zn    0.75000   0.69693   0.83333   0.00000  Uiso   1.00
loop_
_geom_bond_atom_site_label_1
_geom_bond_atom_site_label_2
_geom_bond_distance
_geom_bond_site_symmetry_2
_ccdc_geom_bond_type
Br1    C27     1.919   .     S
Br2    C35     1.918   .     S
Br3    C36     1.919   .     S
Br4    C37     1.917   .     S
C5     C22     1.444   .     S
C5     O81     1.293   .     A
C5     O71     1.296   .     A
C6     C10     1.417   .     A
C6     C37     1.414   .     A
C6     O78     1.384   .     S
C7     C11     1.362   .     S
C7     O85     1.282   .     A
C7     O82     1.281   .     A
C8     O83     1.281   .     A
C8     O84     1.281   .     A
C8     C12     1.362   .     S
C9     C38     1.408   .     A
C9     C40     1.408   .     A
C9     C186    1.520   1_545 S
C10    C39     1.416   .     A
C10    C185    1.520   .     S
C11    C716    1.163   1_554 S
C12    C363    1.163   .     S
C13    H41     1.083   .     S
C13    C18     1.395   .     A
C13    C24     1.392   .     A
C14    H52     1.084   .     S
C14    C19     1.387   .     A
C14    C25     1.392   .     A
C15    C25     1.391   .     A
C15    C20     1.385   .     A
C15    H62     1.084   .     S
C16    O80     1.296   .     A
C16    C23     1.448   .     S
C16    O79     1.295   .     A
C17    C24     1.390   .     A
C17    C21     1.385   .     A
C17    H63     1.084   .     S
C18    O86     1.391   .     S
C18    C22     1.411   .     A
C19    O72     1.385   .     S
C19    C23     1.412   .     A
C20    C23     1.414   .     A
C20    O73     1.383   .     S
C21    O74     1.385   .     S
C21    C22     1.411   .     A
C24    C113    1.434   1_455 S
C25    C112    1.434   .     S
C26    H64     1.114   .     S
C26    O86     1.411   .     S
C26    H66     1.110   .     S
C26    H65     1.109   .     S
C27    C38     1.414   .     A
C27    N69     1.384   .     A
C28    H68     1.109   .     S
C28    O72     1.412   .     S
C28    H67     1.114   .     S
C28    H42     1.112   .     S
C29    O73     1.410   .     S
C29    H43     1.109   .     S
C29    H45     1.113   .     S
C29    H44     1.114   .     S
C30    H48     1.112   .     S
C30    O74     1.413   .     S
C30    H47     1.109   .     S
C30    H46     1.114   .     S
C31    O75     1.411   .     S
C31    H50     1.114   .     S
C31    H51     1.107   .     S
C31    H225    1.111   1_545 S
C32    H55     1.109   .     S
C32    H54     1.115   .     S
C32    O76     1.410   .     S
C32    H229    1.110   .     S
C33    H58     1.107   .     S
C33    H56     1.114   .     S
C33    H57     1.112   .     S
C33    O77     1.411   .     S
C34    H60     1.112   .     S
C34    H61     1.109   .     S
C34    O78     1.410   .     S
C34    H235    1.110   .     S
C35    C39     1.414   .     A
C35    N70     1.373   .     A
C36    C40     1.414   .     A
C36    N69     1.383   .     A
C37    N70     1.373   .     A
C38    O75     1.383   .     S
C39    O76     1.384   .     S
C40    O77     1.382   .     S
H49    C207    1.111   .     S
H53    C208    1.110   1_545 S
H59    C210    1.110   1_545 S
N69    Zn88    2.024   .     S
N70    Zn87    2.024   .     S
O71    Zn87    2.002   .     S
O79    Zn88    2.002   .     S
O80    Zn87    2.003   .     S
O81    Zn88    2.003   .     S
O82    Zn87    1.943   .     S
O83    Zn88    1.943   .     S
O84    Zn87    1.944   .     S
O85    Zn88    1.944   .     S
Br89   C115    1.919   .     S
Br90   C123    1.918   .     S
Br91   C124    1.919   .     S
Br92   C125    1.917   .     S
C93    C110    1.444   .     S
C93    O169    1.293   .     A
C93    O159    1.296   .     A
C94    C98     1.417   .     A
C94    C125    1.414   .     A
C94    O166    1.384   .     S
C95    C99     1.362   .     S
C95    O173    1.282   .     A
C95    O170    1.281   .     A
C96    O171    1.281   .     A
C96    O172    1.281   .     A
C96    C100    1.362   .     S
C97    C126    1.408   .     A
C97    C128    1.408   .     A
C97    C274    1.520   1_545 S
C98    C127    1.416   .     A
C98    C273    1.520   .     S
C99    C804    1.163   1_554 S
C100   C451    1.163   .     S
C101   H129    1.083   .     S
C101   C106    1.395   .     A
C101   C112    1.392   .     A
C102   H140    1.084   .     S
C102   C107    1.387   .     A
C102   C113    1.392   .     A
C103   C113    1.391   .     A
C103   C108    1.385   .     A
C103   H150    1.084   .     S
C104   O168    1.296   .     A
C104   C111    1.448   .     S
C104   O167    1.295   .     A
C105   C112    1.390   .     A
C105   C109    1.385   .     A
C105   H151    1.084   .     S
C106   O174    1.391   .     S
C106   C110    1.411   .     A
C107   O160    1.385   .     S
C107   C111    1.412   .     A
C108   C111    1.414   .     A
C108   O161    1.383   .     S
C109   O162    1.385   .     S
C109   C110    1.411   .     A
C113   C24     1.434   1_655 S
C114   H152    1.114   .     S
C114   O174    1.411   .     S
C114   H154    1.110   .     S
C114   H153    1.109   .     S
C115   C126    1.414   .     A
C115   N157    1.384   .     A
C116   H156    1.109   .     S
C116   O160    1.412   .     S
C116   H155    1.114   .     S
C116   H130    1.112   .     S
C117   O161    1.410   .     S
C117   H131    1.109   .     S
C117   H133    1.113   .     S
C117   H132    1.114   .     S
C118   H136    1.112   .     S
C118   O162    1.413   .     S
C118   H135    1.109   .     S
C118   H134    1.114   .     S
C119   O163    1.411   .     S
C119   H138    1.114   .     S
C119   H139    1.107   .     S
C119   H313    1.111   1_545 S
C120   H143    1.109   .     S
C120   H142    1.115   .     S
C120   O164    1.410   .     S
C120   H317    1.110   .     S
C121   H146    1.107   .     S
C121   H144    1.114   .     S
C121   H145    1.112   .     S
C121   O165    1.411   .     S
C122   H148    1.112   .     S
C122   H149    1.109   .     S
C122   O166    1.410   .     S
C122   H323    1.110   .     S
C123   C127    1.414   .     A
C123   N158    1.373   .     A
C124   C128    1.414   .     A
C124   N157    1.383   .     A
C125   N158    1.373   .     A
C126   O163    1.383   .     S
C127   O164    1.384   .     S
C128   O165    1.382   .     S
H137   C295    1.111   .     S
H141   C296    1.110   1_545 S
H147   C298    1.110   1_545 S
N157   Zn176   2.024   .     S
N158   Zn175   2.024   .     S
O159   Zn175   2.002   .     S
O167   Zn176   2.002   .     S
O168   Zn175   2.003   .     S
O169   Zn176   2.003   .     S
O170   Zn175   1.943   .     S
O171   Zn176   1.943   .     S
O172   Zn175   1.944   .     S
O173   Zn176   1.944   .     S
Br177  C203    1.919   .     S
Br178  C211    1.918   .     S
Br179  C212    1.919   .     S
Br180  C213    1.917   .     S
C181   C198    1.444   .     S
C181   O257    1.293   .     A
C181   O247    1.296   .     A
C182   C186    1.417   .     A
C182   C213    1.414   .     A
C182   O254    1.384   .     S
C183   C187    1.362   .     S
C183   O261    1.282   .     A
C183   O258    1.281   .     A
C184   O259    1.281   .     A
C184   O260    1.281   .     A
C184   C188    1.362   .     S
C185   C214    1.408   .     A
C185   C216    1.408   .     A
C186   C215    1.416   .     A
C186   C9      1.520   1_565 S
C187   C892    1.163   1_554 S
C188   C539    1.163   .     S
C189   H217    1.083   .     S
C189   C194    1.395   .     A
C189   C200    1.392   .     A
C190   H228    1.084   .     S
C190   C195    1.387   .     A
C190   C201    1.392   .     A
C191   C201    1.391   .     A
C191   C196    1.385   .     A
C191   H238    1.084   .     S
C192   O256    1.296   .     A
C192   C199    1.448   .     S
C192   O255    1.295   .     A
C193   C200    1.390   .     A
C193   C197    1.385   .     A
C193   H239    1.084   .     S
C194   O262    1.391   .     S
C194   C198    1.411   .     A
C195   O248    1.385   .     S
C195   C199    1.412   .     A
C196   C199    1.414   .     A
C196   O249    1.383   .     S
C197   O250    1.385   .     S
C197   C198    1.411   .     A
C200   C289    1.434   1_455 S
C201   C288    1.434   .     S
C202   H240    1.114   .     S
C202   O262    1.411   .     S
C202   H242    1.110   .     S
C202   H241    1.109   .     S
C203   C214    1.414   .     A
C203   N245    1.384   .     A
C204   H244    1.109   .     S
C204   O248    1.412   .     S
C204   H243    1.114   .     S
C204   H218    1.112   .     S
C205   O249    1.410   .     S
C205   H219    1.109   .     S
C205   H221    1.113   .     S
C205   H220    1.114   .     S
C206   H224    1.112   .     S
C206   O250    1.413   .     S
C206   H223    1.109   .     S
C206   H222    1.114   .     S
C207   O251    1.411   .     S
C207   H226    1.114   .     S
C207   H227    1.107   .     S
C208   H231    1.109   .     S
C208   H230    1.115   .     S
C208   O252    1.410   .     S
C208   H53     1.110   1_565 S
C209   H234    1.107   .     S
C209   H232    1.114   .     S
C209   H233    1.112   .     S
C209   O253    1.411   .     S
C210   H236    1.112   .     S
C210   H237    1.109   .     S
C210   O254    1.410   .     S
C210   H59     1.110   1_565 S
C211   C215    1.414   .     A
C211   N246    1.373   .     A
C212   C216    1.414   .     A
C212   N245    1.383   .     A
C213   N246    1.373   .     A
C214   O251    1.383   .     S
C215   O252    1.384   .     S
C216   O253    1.382   .     S
H225   C31     1.111   1_565 S
N245   Zn264   2.024   .     S
N246   Zn263   2.024   .     S
O247   Zn263   2.002   .     S
O255   Zn264   2.002   .     S
O256   Zn263   2.003   .     S
O257   Zn264   2.003   .     S
O258   Zn263   1.943   .     S
O259   Zn264   1.943   .     S
O260   Zn263   1.944   .     S
O261   Zn264   1.944   .     S
Br265  C291    1.919   .     S
Br266  C299    1.918   .     S
Br267  C300    1.919   .     S
Br268  C301    1.917   .     S
C269   C286    1.444   .     S
C269   O345    1.293   .     A
C269   O335    1.296   .     A
C270   C274    1.417   .     A
C270   C301    1.414   .     A
C270   O342    1.384   .     S
C271   C275    1.362   .     S
C271   O349    1.282   .     A
C271   O346    1.281   .     A
C272   O347    1.281   .     A
C272   O348    1.281   .     A
C272   C276    1.362   .     S
C273   C302    1.408   .     A
C273   C304    1.408   .     A
C274   C303    1.416   .     A
C274   C97     1.520   1_565 S
C275   C980    1.163   1_554 S
C276   C627    1.163   .     S
C277   H305    1.083   .     S
C277   C282    1.395   .     A
C277   C288    1.392   .     A
C278   H316    1.084   .     S
C278   C283    1.387   .     A
C278   C289    1.392   .     A
C279   C289    1.391   .     A
C279   C284    1.385   .     A
C279   H326    1.084   .     S
C280   O344    1.296   .     A
C280   C287    1.448   .     S
C280   O343    1.295   .     A
C281   C288    1.390   .     A
C281   C285    1.385   .     A
C281   H327    1.084   .     S
C282   O350    1.391   .     S
C282   C286    1.411   .     A
C283   O336    1.385   .     S
C283   C287    1.412   .     A
C284   C287    1.414   .     A
C284   O337    1.383   .     S
C285   O338    1.385   .     S
C285   C286    1.411   .     A
C289   C200    1.434   1_655 S
C290   H328    1.114   .     S
C290   O350    1.411   .     S
C290   H330    1.110   .     S
C290   H329    1.109   .     S
C291   C302    1.414   .     A
C291   N333    1.384   .     A
C292   H332    1.109   .     S
C292   O336    1.412   .     S
C292   H331    1.114   .     S
C292   H306    1.112   .     S
C293   O337    1.410   .     S
C293   H307    1.109   .     S
C293   H309    1.113   .     S
C293   H308    1.114   .     S
C294   H312    1.112   .     S
C294   O338    1.413   .     S
C294   H311    1.109   .     S
C294   H310    1.114   .     S
C295   O339    1.411   .     S
C295   H314    1.114   .     S
C295   H315    1.107   .     S
C296   H319    1.109   .     S
C296   H318    1.115   .     S
C296   O340    1.410   .     S
C296   H141    1.110   1_565 S
C297   H322    1.107   .     S
C297   H320    1.114   .     S
C297   H321    1.112   .     S
C297   O341    1.411   .     S
C298   H324    1.112   .     S
C298   H325    1.109   .     S
C298   O342    1.410   .     S
C298   H147    1.110   1_565 S
C299   C303    1.414   .     A
C299   N334    1.373   .     A
C300   C304    1.414   .     A
C300   N333    1.383   .     A
C301   N334    1.373   .     A
C302   O339    1.383   .     S
C303   O340    1.384   .     S
C304   O341    1.382   .     S
H313   C119    1.111   1_565 S
N333   Zn352   2.024   .     S
N334   Zn351   2.024   .     S
O335   Zn351   2.002   .     S
O343   Zn352   2.002   .     S
O344   Zn351   2.003   .     S
O345   Zn352   2.003   .     S
O346   Zn351   1.943   .     S
O347   Zn352   1.943   .     S
O348   Zn351   1.944   .     S
O349   Zn352   1.944   .     S
Br353  C379    1.919   .     S
Br354  C387    1.918   .     S
Br355  C388    1.919   .     S
Br356  C389    1.917   .     S
C357   C374    1.444   .     S
C357   O433    1.293   .     A
C357   O423    1.296   .     A
C358   C362    1.417   .     A
C358   C389    1.414   .     A
C358   O430    1.384   .     S
C359   C363    1.362   .     S
C359   O437    1.282   .     A
C359   O434    1.281   .     A
C360   O435    1.281   .     A
C360   O436    1.281   .     A
C360   C364    1.362   .     S
C361   C390    1.408   .     A
C361   C392    1.408   .     A
C361   C538    1.520   1_545 S
C362   C391    1.416   .     A
C362   C537    1.520   .     S
C364   C715    1.163   .     S
C365   H393    1.083   .     S
C365   C370    1.395   .     A
C365   C376    1.392   .     A
C366   H404    1.084   .     S
C366   C371    1.387   .     A
C366   C377    1.392   .     A
C367   C377    1.391   .     A
C367   C372    1.385   .     A
C367   H414    1.084   .     S
C368   O432    1.296   .     A
C368   C375    1.448   .     S
C368   O431    1.295   .     A
C369   C376    1.390   .     A
C369   C373    1.385   .     A
C369   H415    1.084   .     S
C370   O438    1.391   .     S
C370   C374    1.411   .     A
C371   O424    1.385   .     S
C371   C375    1.412   .     A
C372   C375    1.414   .     A
C372   O425    1.383   .     S
C373   O426    1.385   .     S
C373   C374    1.411   .     A
C376   C465    1.434   1_455 S
C377   C464    1.434   .     S
C378   H416    1.114   .     S
C378   O438    1.411   .     S
C378   H418    1.110   .     S
C378   H417    1.109   .     S
C379   C390    1.414   .     A
C379   N421    1.384   .     A
C380   H420    1.109   .     S
C380   O424    1.412   .     S
C380   H419    1.114   .     S
C380   H394    1.112   .     S
C381   O425    1.410   .     S
C381   H395    1.109   .     S
C381   H397    1.113   .     S
C381   H396    1.114   .     S
C382   H400    1.112   .     S
C382   O426    1.413   .     S
C382   H399    1.109   .     S
C382   H398    1.114   .     S
C383   O427    1.411   .     S
C383   H402    1.114   .     S
C383   H403    1.107   .     S
C383   H577    1.111   1_545 S
C384   H407    1.109   .     S
C384   H406    1.115   .     S
C384   O428    1.410   .     S
C384   H581    1.110   .     S
C385   H410    1.107   .     S
C385   H408    1.114   .     S
C385   H409    1.112   .     S
C385   O429    1.411   .     S
C386   H412    1.112   .     S
C386   H413    1.109   .     S
C386   O430    1.410   .     S
C386   H587    1.110   .     S
C387   C391    1.414   .     A
C387   N422    1.373   .     A
C388   C392    1.414   .     A
C388   N421    1.383   .     A
C389   N422    1.373   .     A
C390   O427    1.383   .     S
C391   O428    1.384   .     S
C392   O429    1.382   .     S
H401   C559    1.111   .     S
H405   C560    1.110   1_545 S
H411   C562    1.110   1_545 S
N421   Zn440   2.024   .     S
N422   Zn439   2.024   .     S
O423   Zn439   2.002   .     S
O431   Zn440   2.002   .     S
O432   Zn439   2.003   .     S
O433   Zn440   2.003   .     S
O434   Zn439   1.943   .     S
O435   Zn440   1.943   .     S
O436   Zn439   1.944   .     S
O437   Zn440   1.944   .     S
Br441  C467    1.919   .     S
Br442  C475    1.918   .     S
Br443  C476    1.919   .     S
Br444  C477    1.917   .     S
C445   C462    1.444   .     S
C445   O521    1.293   .     A
C445   O511    1.296   .     A
C446   C450    1.417   .     A
C446   C477    1.414   .     A
C446   O518    1.384   .     S
C447   C451    1.362   .     S
C447   O525    1.282   .     A
C447   O522    1.281   .     A
C448   O523    1.281   .     A
C448   O524    1.281   .     A
C448   C452    1.362   .     S
C449   C478    1.408   .     A
C449   C480    1.408   .     A
C449   C626    1.520   1_545 S
C450   C479    1.416   .     A
C450   C625    1.520   .     S
C452   C803    1.163   .     S
C453   H481    1.083   .     S
C453   C458    1.395   .     A
C453   C464    1.392   .     A
C454   H492    1.084   .     S
C454   C459    1.387   .     A
C454   C465    1.392   .     A
C455   C465    1.391   .     A
C455   C460    1.385   .     A
C455   H502    1.084   .     S
C456   O520    1.296   .     A
C456   C463    1.448   .     S
C456   O519    1.295   .     A
C457   C464    1.390   .     A
C457   C461    1.385   .     A
C457   H503    1.084   .     S
C458   O526    1.391   .     S
C458   C462    1.411   .     A
C459   O512    1.385   .     S
C459   C463    1.412   .     A
C460   C463    1.414   .     A
C460   O513    1.383   .     S
C461   O514    1.385   .     S
C461   C462    1.411   .     A
C465   C376    1.434   1_655 S
C466   H504    1.114   .     S
C466   O526    1.411   .     S
C466   H506    1.110   .     S
C466   H505    1.109   .     S
C467   C478    1.414   .     A
C467   N509    1.384   .     A
C468   H508    1.109   .     S
C468   O512    1.412   .     S
C468   H507    1.114   .     S
C468   H482    1.112   .     S
C469   O513    1.410   .     S
C469   H483    1.109   .     S
C469   H485    1.113   .     S
C469   H484    1.114   .     S
C470   H488    1.112   .     S
C470   O514    1.413   .     S
C470   H487    1.109   .     S
C470   H486    1.114   .     S
C471   O515    1.411   .     S
C471   H490    1.114   .     S
C471   H491    1.107   .     S
C471   H665    1.111   1_545 S
C472   H495    1.109   .     S
C472   H494    1.115   .     S
C472   O516    1.410   .     S
C472   H669    1.110   .     S
C473   H498    1.107   .     S
C473   H496    1.114   .     S
C473   H497    1.112   .     S
C473   O517    1.411   .     S
C474   H500    1.112   .     S
C474   H501    1.109   .     S
C474   O518    1.410   .     S
C474   H675    1.110   .     S
C475   C479    1.414   .     A
C475   N510    1.373   .     A
C476   C480    1.414   .     A
C476   N509    1.383   .     A
C477   N510    1.373   .     A
C478   O515    1.383   .     S
C479   O516    1.384   .     S
C480   O517    1.382   .     S
H489   C647    1.111   .     S
H493   C648    1.110   1_545 S
H499   C650    1.110   1_545 S
N509   Zn528   2.024   .     S
N510   Zn527   2.024   .     S
O511   Zn527   2.002   .     S
O519   Zn528   2.002   .     S
O520   Zn527   2.003   .     S
O521   Zn528   2.003   .     S
O522   Zn527   1.943   .     S
O523   Zn528   1.943   .     S
O524   Zn527   1.944   .     S
O525   Zn528   1.944   .     S
Br529  C555    1.919   .     S
Br530  C563    1.918   .     S
Br531  C564    1.919   .     S
Br532  C565    1.917   .     S
C533   C550    1.444   .     S
C533   O609    1.293   .     A
C533   O599    1.296   .     A
C534   C538    1.417   .     A
C534   C565    1.414   .     A
C534   O606    1.384   .     S
C535   C539    1.362   .     S
C535   O613    1.282   .     A
C535   O610    1.281   .     A
C536   O611    1.281   .     A
C536   O612    1.281   .     A
C536   C540    1.362   .     S
C537   C566    1.408   .     A
C537   C568    1.408   .     A
C538   C567    1.416   .     A
C538   C361    1.520   1_565 S
C540   C891    1.163   .     S
C541   H569    1.083   .     S
C541   C546    1.395   .     A
C541   C552    1.392   .     A
C542   H580    1.084   .     S
C542   C547    1.387   .     A
C542   C553    1.392   .     A
C543   C553    1.391   .     A
C543   C548    1.385   .     A
C543   H590    1.084   .     S
C544   O608    1.296   .     A
C544   C551    1.448   .     S
C544   O607    1.295   .     A
C545   C552    1.390   .     A
C545   C549    1.385   .     A
C545   H591    1.084   .     S
C546   O614    1.391   .     S
C546   C550    1.411   .     A
C547   O600    1.385   .     S
C547   C551    1.412   .     A
C548   C551    1.414   .     A
C548   O601    1.383   .     S
C549   O602    1.385   .     S
C549   C550    1.411   .     A
C552   C641    1.434   1_455 S
C553   C640    1.434   .     S
C554   H592    1.114   .     S
C554   O614    1.411   .     S
C554   H594    1.110   .     S
C554   H593    1.109   .     S
C555   C566    1.414   .     A
C555   N597    1.384   .     A
C556   H596    1.109   .     S
C556   O600    1.412   .     S
C556   H595    1.114   .     S
C556   H570    1.112   .     S
C557   O601    1.410   .     S
C557   H571    1.109   .     S
C557   H573    1.113   .     S
C557   H572    1.114   .     S
C558   H576    1.112   .     S
C558   O602    1.413   .     S
C558   H575    1.109   .     S
C558   H574    1.114   .     S
C559   O603    1.411   .     S
C559   H578    1.114   .     S
C559   H579    1.107   .     S
C560   H583    1.109   .     S
C560   H582    1.115   .     S
C560   O604    1.410   .     S
C560   H405    1.110   1_565 S
C561   H586    1.107   .     S
C561   H584    1.114   .     S
C561   H585    1.112   .     S
C561   O605    1.411   .     S
C562   H588    1.112   .     S
C562   H589    1.109   .     S
C562   O606    1.410   .     S
C562   H411    1.110   1_565 S
C563   C567    1.414   .     A
C563   N598    1.373   .     A
C564   C568    1.414   .     A
C564   N597    1.383   .     A
C565   N598    1.373   .     A
C566   O603    1.383   .     S
C567   O604    1.384   .     S
C568   O605    1.382   .     S
H577   C383    1.111   1_565 S
N597   Zn616   2.024   .     S
N598   Zn615   2.024   .     S
O599   Zn615   2.002   .     S
O607   Zn616   2.002   .     S
O608   Zn615   2.003   .     S
O609   Zn616   2.003   .     S
O610   Zn615   1.943   .     S
O611   Zn616   1.943   .     S
O612   Zn615   1.944   .     S
O613   Zn616   1.944   .     S
Br617  C643    1.919   .     S
Br618  C651    1.918   .     S
Br619  C652    1.919   .     S
Br620  C653    1.917   .     S
C621   C638    1.444   .     S
C621   O697    1.293   .     A
C621   O687    1.296   .     A
C622   C626    1.417   .     A
C622   C653    1.414   .     A
C622   O694    1.384   .     S
C623   C627    1.362   .     S
C623   O701    1.282   .     A
C623   O698    1.281   .     A
C624   O699    1.281   .     A
C624   O700    1.281   .     A
C624   C628    1.362   .     S
C625   C654    1.408   .     A
C625   C656    1.408   .     A
C626   C655    1.416   .     A
C626   C449    1.520   1_565 S
C628   C979    1.163   .     S
C629   H657    1.083   .     S
C629   C634    1.395   .     A
C629   C640    1.392   .     A
C630   H668    1.084   .     S
C630   C635    1.387   .     A
C630   C641    1.392   .     A
C631   C641    1.391   .     A
C631   C636    1.385   .     A
C631   H678    1.084   .     S
C632   O696    1.296   .     A
C632   C639    1.448   .     S
C632   O695    1.295   .     A
C633   C640    1.390   .     A
C633   C637    1.385   .     A
C633   H679    1.084   .     S
C634   O702    1.391   .     S
C634   C638    1.411   .     A
C635   O688    1.385   .     S
C635   C639    1.412   .     A
C636   C639    1.414   .     A
C636   O689    1.383   .     S
C637   O690    1.385   .     S
C637   C638    1.411   .     A
C641   C552    1.434   1_655 S
C642   H680    1.114   .     S
C642   O702    1.411   .     S
C642   H682    1.110   .     S
C642   H681    1.109   .     S
C643   C654    1.414   .     A
C643   N685    1.384   .     A
C644   H684    1.109   .     S
C644   O688    1.412   .     S
C644   H683    1.114   .     S
C644   H658    1.112   .     S
C645   O689    1.410   .     S
C645   H659    1.109   .     S
C645   H661    1.113   .     S
C645   H660    1.114   .     S
C646   H664    1.112   .     S
C646   O690    1.413   .     S
C646   H663    1.109   .     S
C646   H662    1.114   .     S
C647   O691    1.411   .     S
C647   H666    1.114   .     S
C647   H667    1.107   .     S
C648   H671    1.109   .     S
C648   H670    1.115   .     S
C648   O692    1.410   .     S
C648   H493    1.110   1_565 S
C649   H674    1.107   .     S
C649   H672    1.114   .     S
C649   H673    1.112   .     S
C649   O693    1.411   .     S
C650   H676    1.112   .     S
C650   H677    1.109   .     S
C650   O694    1.410   .     S
C650   H499    1.110   1_565 S
C651   C655    1.414   .     A
C651   N686    1.373   .     A
C652   C656    1.414   .     A
C652   N685    1.383   .     A
C653   N686    1.373   .     A
C654   O691    1.383   .     S
C655   O692    1.384   .     S
C656   O693    1.382   .     S
H665   C471    1.111   1_565 S
N685   Zn704   2.024   .     S
N686   Zn703   2.024   .     S
O687   Zn703   2.002   .     S
O695   Zn704   2.002   .     S
O696   Zn703   2.003   .     S
O697   Zn704   2.003   .     S
O698   Zn703   1.943   .     S
O699   Zn704   1.943   .     S
O700   Zn703   1.944   .     S
O701   Zn704   1.944   .     S
Br705  C731    1.919   .     S
Br706  C739    1.918   .     S
Br707  C740    1.919   .     S
Br708  C741    1.917   .     S
C709   C726    1.444   .     S
C709   O785    1.293   .     A
C709   O775    1.296   .     A
C710   C714    1.417   .     A
C710   C741    1.414   .     A
C710   O782    1.384   .     S
C711   C715    1.362   .     S
C711   O789    1.282   .     A
C711   O786    1.281   .     A
C712   O787    1.281   .     A
C712   O788    1.281   .     A
C712   C716    1.362   .     S
C713   C742    1.408   .     A
C713   C744    1.408   .     A
C713   C890    1.520   1_545 S
C714   C743    1.416   .     A
C714   C889    1.520   .     S
C716   C11     1.163   1_556 S
C717   H745    1.083   .     S
C717   C722    1.395   .     A
C717   C728    1.392   .     A
C718   H756    1.084   .     S
C718   C723    1.387   .     A
C718   C729    1.392   .     A
C719   C729    1.391   .     A
C719   C724    1.385   .     A
C719   H766    1.084   .     S
C720   O784    1.296   .     A
C720   C727    1.448   .     S
C720   O783    1.295   .     A
C721   C728    1.390   .     A
C721   C725    1.385   .     A
C721   H767    1.084   .     S
C722   O790    1.391   .     S
C722   C726    1.411   .     A
C723   O776    1.385   .     S
C723   C727    1.412   .     A
C724   C727    1.414   .     A
C724   O777    1.383   .     S
C725   O778    1.385   .     S
C725   C726    1.411   .     A
C728   C817    1.434   1_455 S
C729   C816    1.434   .     S
C730   H768    1.114   .     S
C730   O790    1.411   .     S
C730   H770    1.110   .     S
C730   H769    1.109   .     S
C731   C742    1.414   .     A
C731   N773    1.384   .     A
C732   H772    1.109   .     S
C732   O776    1.412   .     S
C732   H771    1.114   .     S
C732   H746    1.112   .     S
C733   O777    1.410   .     S
C733   H747    1.109   .     S
C733   H749    1.113   .     S
C733   H748    1.114   .     S
C734   H752    1.112   .     S
C734   O778    1.413   .     S
C734   H751    1.109   .     S
C734   H750    1.114   .     S
C735   O779    1.411   .     S
C735   H754    1.114   .     S
C735   H755    1.107   .     S
C735   H929    1.111   1_545 S
C736   H759    1.109   .     S
C736   H758    1.115   .     S
C736   O780    1.410   .     S
C736   H933    1.110   .     S
C737   H762    1.107   .     S
C737   H760    1.114   .     S
C737   H761    1.112   .     S
C737   O781    1.411   .     S
C738   H764    1.112   .     S
C738   H765    1.109   .     S
C738   O782    1.410   .     S
C738   H939    1.110   .     S
C739   C743    1.414   .     A
C739   N774    1.373   .     A
C740   C744    1.414   .     A
C740   N773    1.383   .     A
C741   N774    1.373   .     A
C742   O779    1.383   .     S
C743   O780    1.384   .     S
C744   O781    1.382   .     S
H753   C911    1.111   .     S
H757   C912    1.110   1_545 S
H763   C914    1.110   1_545 S
N773   Zn792   2.024   .     S
N774   Zn791   2.024   .     S
O775   Zn791   2.002   .     S
O783   Zn792   2.002   .     S
O784   Zn791   2.003   .     S
O785   Zn792   2.003   .     S
O786   Zn791   1.943   .     S
O787   Zn792   1.943   .     S
O788   Zn791   1.944   .     S
O789   Zn792   1.944   .     S
Br793  C819    1.919   .     S
Br794  C827    1.918   .     S
Br795  C828    1.919   .     S
Br796  C829    1.917   .     S
C797   C814    1.444   .     S
C797   O873    1.293   .     A
C797   O863    1.296   .     A
C798   C802    1.417   .     A
C798   C829    1.414   .     A
C798   O870    1.384   .     S
C799   C803    1.362   .     S
C799   O877    1.282   .     A
C799   O874    1.281   .     A
C800   O875    1.281   .     A
C800   O876    1.281   .     A
C800   C804    1.362   .     S
C801   C830    1.408   .     A
C801   C832    1.408   .     A
C801   C978    1.520   1_545 S
C802   C831    1.416   .     A
C802   C977    1.520   .     S
C804   C99     1.163   1_556 S
C805   H833    1.083   .     S
C805   C810    1.395   .     A
C805   C816    1.392   .     A
C806   H844    1.084   .     S
C806   C811    1.387   .     A
C806   C817    1.392   .     A
C807   C817    1.391   .     A
C807   C812    1.385   .     A
C807   H854    1.084   .     S
C808   O872    1.296   .     A
C808   C815    1.448   .     S
C808   O871    1.295   .     A
C809   C816    1.390   .     A
C809   C813    1.385   .     A
C809   H855    1.084   .     S
C810   O878    1.391   .     S
C810   C814    1.411   .     A
C811   O864    1.385   .     S
C811   C815    1.412   .     A
C812   C815    1.414   .     A
C812   O865    1.383   .     S
C813   O866    1.385   .     S
C813   C814    1.411   .     A
C817   C728    1.434   1_655 S
C818   H856    1.114   .     S
C818   O878    1.411   .     S
C818   H858    1.110   .     S
C818   H857    1.109   .     S
C819   C830    1.414   .     A
C819   N861    1.384   .     A
C820   H860    1.109   .     S
C820   O864    1.412   .     S
C820   H859    1.114   .     S
C820   H834    1.112   .     S
C821   O865    1.410   .     S
C821   H835    1.109   .     S
C821   H837    1.113   .     S
C821   H836    1.114   .     S
C822   H840    1.112   .     S
C822   O866    1.413   .     S
C822   H839    1.109   .     S
C822   H838    1.114   .     S
C823   O867    1.411   .     S
C823   H842    1.114   .     S
C823   H843    1.107   .     S
C823   H1017   1.111   1_545 S
C824   H847    1.109   .     S
C824   H846    1.115   .     S
C824   O868    1.410   .     S
C824   H1021   1.110   .     S
C825   H850    1.107   .     S
C825   H848    1.114   .     S
C825   H849    1.112   .     S
C825   O869    1.411   .     S
C826   H852    1.112   .     S
C826   H853    1.109   .     S
C826   O870    1.410   .     S
C826   H1027   1.110   .     S
C827   C831    1.414   .     A
C827   N862    1.373   .     A
C828   C832    1.414   .     A
C828   N861    1.383   .     A
C829   N862    1.373   .     A
C830   O867    1.383   .     S
C831   O868    1.384   .     S
C832   O869    1.382   .     S
H841   C999    1.111   .     S
H845   C1000   1.110   1_545 S
H851   C1002   1.110   1_545 S
N861   Zn880   2.024   .     S
N862   Zn879   2.024   .     S
O863   Zn879   2.002   .     S
O871   Zn880   2.002   .     S
O872   Zn879   2.003   .     S
O873   Zn880   2.003   .     S
O874   Zn879   1.943   .     S
O875   Zn880   1.943   .     S
O876   Zn879   1.944   .     S
O877   Zn880   1.944   .     S
Br881  C907    1.919   .     S
Br882  C915    1.918   .     S
Br883  C916    1.919   .     S
Br884  C917    1.917   .     S
C885   C902    1.444   .     S
C885   O961    1.293   .     A
C885   O951    1.296   .     A
C886   C890    1.417   .     A
C886   C917    1.414   .     A
C886   O958    1.384   .     S
C887   C891    1.362   .     S
C887   O965    1.282   .     A
C887   O962    1.281   .     A
C888   O963    1.281   .     A
C888   O964    1.281   .     A
C888   C892    1.362   .     S
C889   C918    1.408   .     A
C889   C920    1.408   .     A
C890   C919    1.416   .     A
C890   C713    1.520   1_565 S
C892   C187    1.163   1_556 S
C893   H921    1.083   .     S
C893   C898    1.395   .     A
C893   C904    1.392   .     A
C894   H932    1.084   .     S
C894   C899    1.387   .     A
C894   C905    1.392   .     A
C895   C905    1.391   .     A
C895   C900    1.385   .     A
C895   H942    1.084   .     S
C896   O960    1.296   .     A
C896   C903    1.448   .     S
C896   O959    1.295   .     A
C897   C904    1.390   .     A
C897   C901    1.385   .     A
C897   H943    1.084   .     S
C898   O966    1.391   .     S
C898   C902    1.411   .     A
C899   O952    1.385   .     S
C899   C903    1.412   .     A
C900   C903    1.414   .     A
C900   O953    1.383   .     S
C901   O954    1.385   .     S
C901   C902    1.411   .     A
C904   C993    1.434   1_455 S
C905   C992    1.434   .     S
C906   H944    1.114   .     S
C906   O966    1.411   .     S
C906   H946    1.110   .     S
C906   H945    1.109   .     S
C907   C918    1.414   .     A
C907   N949    1.384   .     A
C908   H948    1.109   .     S
C908   O952    1.412   .     S
C908   H947    1.114   .     S
C908   H922    1.112   .     S
C909   O953    1.410   .     S
C909   H923    1.109   .     S
C909   H925    1.113   .     S
C909   H924    1.114   .     S
C910   H928    1.112   .     S
C910   O954    1.413   .     S
C910   H927    1.109   .     S
C910   H926    1.114   .     S
C911   O955    1.411   .     S
C911   H930    1.114   .     S
C911   H931    1.107   .     S
C912   H935    1.109   .     S
C912   H934    1.115   .     S
C912   O956    1.410   .     S
C912   H757    1.110   1_565 S
C913   H938    1.107   .     S
C913   H936    1.114   .     S
C913   H937    1.112   .     S
C913   O957    1.411   .     S
C914   H940    1.112   .     S
C914   H941    1.109   .     S
C914   O958    1.410   .     S
C914   H763    1.110   1_565 S
C915   C919    1.414   .     A
C915   N950    1.373   .     A
C916   C920    1.414   .     A
C916   N949    1.383   .     A
C917   N950    1.373   .     A
C918   O955    1.383   .     S
C919   O956    1.384   .     S
C920   O957    1.382   .     S
H929   C735    1.111   1_565 S
N949   Zn968   2.024   .     S
N950   Zn967   2.024   .     S
O951   Zn967   2.002   .     S
O959   Zn968   2.002   .     S
O960   Zn967   2.003   .     S
O961   Zn968   2.003   .     S
O962   Zn967   1.943   .     S
O963   Zn968   1.943   .     S
O964   Zn967   1.944   .     S
O965   Zn968   1.944   .     S
Br969  C995    1.919   .     S
Br970  C1003   1.918   .     S
Br971  C1004   1.919   .     S
Br972  C1005   1.917   .     S
C973   C990    1.444   .     S
C973   O1049   1.293   .     A
C973   O1039   1.296   .     A
C974   C978    1.417   .     A
C974   C1005   1.414   .     A
C974   O1046   1.384   .     S
C975   C979    1.362   .     S
C975   O1053   1.282   .     A
C975   O1050   1.281   .     A
C976   O1051   1.281   .     A
C976   O1052   1.281   .     A
C976   C980    1.362   .     S
C977   C1006   1.408   .     A
C977   C1008   1.408   .     A
C978   C1007   1.416   .     A
C978   C801    1.520   1_565 S
C980   C275    1.163   1_556 S
C981   H1009   1.083   .     S
C981   C986    1.395   .     A
C981   C992    1.392   .     A
C982   H1020   1.084   .     S
C982   C987    1.387   .     A
C982   C993    1.392   .     A
C983   C993    1.391   .     A
C983   C988    1.385   .     A
C983   H1030   1.084   .     S
C984   O1048   1.296   .     A
C984   C991    1.448   .     S
C984   O1047   1.295   .     A
C985   C992    1.390   .     A
C985   C989    1.385   .     A
C985   H1031   1.084   .     S
C986   O1054   1.391   .     S
C986   C990    1.411   .     A
C987   O1040   1.385   .     S
C987   C991    1.412   .     A
C988   C991    1.414   .     A
C988   O1041   1.383   .     S
C989   O1042   1.385   .     S
C989   C990    1.411   .     A
C993   C904    1.434   1_655 S
C994   H1032   1.114   .     S
C994   O1054   1.411   .     S
C994   H1034   1.110   .     S
C994   H1033   1.109   .     S
C995   C1006   1.414   .     A
C995   N1037   1.384   .     A
C996   H1036   1.109   .     S
C996   O1040   1.412   .     S
C996   H1035   1.114   .     S
C996   H1010   1.112   .     S
C997   O1041   1.410   .     S
C997   H1011   1.109   .     S
C997   H1013   1.113   .     S
C997   H1012   1.114   .     S
C998   H1016   1.112   .     S
C998   O1042   1.413   .     S
C998   H1015   1.109   .     S
C998   H1014   1.114   .     S
C999   O1043   1.411   .     S
C999   H1018   1.114   .     S
C999   H1019   1.107   .     S
C1000  H1023   1.109   .     S
C1000  H1022   1.115   .     S
C1000  O1044   1.410   .     S
C1000  H845    1.110   1_565 S
C1001  H1026   1.107   .     S
C1001  H1024   1.114   .     S
C1001  H1025   1.112   .     S
C1001  O1045   1.411   .     S
C1002  H1028   1.112   .     S
C1002  H1029   1.109   .     S
C1002  O1046   1.410   .     S
C1002  H851    1.110   1_565 S
C1003  C1007   1.414   .     A
C1003  N1038   1.373   .     A
C1004  C1008   1.414   .     A
C1004  N1037   1.383   .     A
C1005  N1038   1.373   .     A
C1006  O1043   1.383   .     S
C1007  O1044   1.384   .     S
C1008  O1045   1.382   .     S
H1017  C823    1.111   1_565 S
N1037  Zn1056  2.024   .     S
N1038  Zn1055  2.024   .     S
O1039  Zn1055  2.002   .     S
O1047  Zn1056  2.002   .     S
O1048  Zn1055  2.003   .     S
O1049  Zn1056  2.003   .     S
O1050  Zn1055  1.943   .     S
O1051  Zn1056  1.943   .     S
O1052  Zn1055  1.944   .     S
O1053  Zn1056  1.944   .     S
