data_str_m3_o10_o17_pcu_sym.25
_audit_creation_date              2020-01-03
_audit_creation_method            'Materials Studio'
_symmetry_space_group_name_H-M    'P1'
_symmetry_Int_Tables_number       1
_symmetry_cell_setting            triclinic
loop_
_symmetry_equiv_pos_as_xyz
  x,y,z
_cell_length_a                    23.5540
_cell_length_b                    25.7137
_cell_length_c                    29.6961
_cell_angle_alpha                 91.4966
_cell_angle_beta                  85.2362
_cell_angle_gamma                 93.4553
loop_
_atom_site_label
_atom_site_type_symbol
_atom_site_fract_x
_atom_site_fract_y
_atom_site_fract_z
_atom_site_U_iso_or_equiv
_atom_site_adp_type
_atom_site_occupancy
C1     C     0.18178   0.26478   0.24886   0.00000  Uiso   1.00
C2     C     0.19207   0.20901   0.40559   0.00000  Uiso   1.00
C3     C     0.16562   0.16722   0.11616   0.00000  Uiso   1.00
C4     C     0.16772   0.16612   0.38384   0.00000  Uiso   1.00
C5     C     0.19099   0.20950   0.09293   0.00000  Uiso   1.00
C6     C     0.14238   0.12382   0.40706   0.00000  Uiso   1.00
C7     C     0.19086   0.21025   0.04624   0.00000  Uiso   1.00
C8     C     0.14251   0.12307   0.45375   0.00000  Uiso   1.00
C9     C     0.16709   0.16627   0.02334   0.00000  Uiso   1.00
C10    C     0.16627   0.16706   0.47665   0.00000  Uiso   1.00
C11    C     0.14503   0.12128   0.04737   0.00000  Uiso   1.00
C12    C     0.15155   0.06856   0.25114   0.00000  Uiso   1.00
C13    C     0.18832   0.21205   0.45263   0.00000  Uiso   1.00
C14    C     0.21284   0.25481   0.02269   0.00000  Uiso   1.00
C15    C     0.12053   0.07851   0.47731   0.00000  Uiso   1.00
C16    C     0.29456   0.29098   0.04779   0.00000  Uiso   1.00
C17    C     0.03880   0.04236   0.45220   0.00000  Uiso   1.00
C18    C     0.21523   0.31019   0.45394   0.00000  Uiso   1.00
C19    C     0.11810   0.02315   0.04606   0.00000  Uiso   1.00
C20    C     0.31743   0.10267   0.17546   0.00000  Uiso   1.00
C21    C     0.01590   0.23066   0.32454   0.00000  Uiso   1.00
C22    C     0.20703   0.25797   0.47605   0.00000  Uiso   1.00
C23    C     0.12632   0.07537   0.02395   0.00000  Uiso   1.00
C24    C     0.18970   0.31930   0.24816   0.00000  Uiso   1.00
C25    C     0.14363   0.01404   0.25184   0.00000  Uiso   1.00
C26    C     0.16702   0.16633   0.33625   0.00000  Uiso   1.00
C27    C     0.16631   0.16700   0.16374   0.00000  Uiso   1.00
C28    C     0.14126   0.12433   0.09441   0.00000  Uiso   1.00
H29    H     0.11910   0.09424   0.11499   0.00000  Uiso   1.00
H30    H     0.03085   0.07652   0.43188   0.00000  Uiso   1.00
H31    H     0.01708   0.04624   0.48678   0.00000  Uiso   1.00
H32    H     0.01965   0.00710   0.43568   0.00000  Uiso   1.00
H33    H     0.24516   0.05204   0.45708   0.00000  Uiso   1.00
H34    H     0.08817   0.28130   0.04293   0.00000  Uiso   1.00
H35    H     0.31579   0.13841   0.15539   0.00000  Uiso   1.00
H36    H     0.27470   0.08285   0.18235   0.00000  Uiso   1.00
H37    H     0.01036   0.07533   0.15447   0.00000  Uiso   1.00
H38    H     0.05864   0.25048   0.31766   0.00000  Uiso   1.00
H39    H     0.01755   0.19492   0.34461   0.00000  Uiso   1.00
H40    H     0.21420   0.23911   0.38500   0.00000  Uiso   1.00
H41    H     0.32297   0.25800   0.34553   0.00000  Uiso   1.00
H42    H     0.20885   0.24233   0.11185   0.00000  Uiso   1.00
H43    H     0.12454   0.09098   0.38815   0.00000  Uiso   1.00
H44    H     0.23328   0.00282   0.24461   0.00000  Uiso   1.00
H45    H     0.10005   0.33051   0.25539   0.00000  Uiso   1.00
H46    H     0.31626   0.28712   0.01321   0.00000  Uiso   1.00
H47    H     0.30255   0.25682   0.06810   0.00000  Uiso   1.00
H48    H     0.31371   0.32624   0.06432   0.00000  Uiso   1.00
N49    N     0.31678   0.15265   0.23783   0.00000  Uiso   1.00
N50    N     0.01656   0.18068   0.26217   0.00000  Uiso   1.00
O51    O     0.12975   0.24619   0.25298   0.00000  Uiso   1.00
O52    O     0.09764   0.03629   0.45372   0.00000  Uiso   1.00
O53    O     0.19321   0.31791   0.41906   0.00000  Uiso   1.00
O54    O     0.24445   0.01864   0.47461   0.00000  Uiso   1.00
O55    O     0.14011   0.01543   0.08095   0.00000  Uiso   1.00
O56    O     0.08889   0.31469   0.02540   0.00000  Uiso   1.00
O57    O     0.01036   0.11372   0.21554   0.00000  Uiso   1.00
O58    O     0.32298   0.21962   0.28446   0.00000  Uiso   1.00
O59    O     0.20358   0.08714   0.24701   0.00000  Uiso   1.00
O60    O     0.22613   0.23721   0.24518   0.00000  Uiso   1.00
O61    O     0.10720   0.09613   0.25481   0.00000  Uiso   1.00
O62    O     0.11847   0.17117   0.31997   0.00000  Uiso   1.00
O63    O     0.21486   0.16216   0.18002   0.00000  Uiso   1.00
O64    O     0.21485   0.16219   0.31217   0.00000  Uiso   1.00
O65    O     0.11848   0.17115   0.18782   0.00000  Uiso   1.00
O66    O     0.23571   0.29704   0.04628   0.00000  Uiso   1.00
Zn67   Zn    0.10231   0.17266   0.25521   0.00000  Uiso   1.00
Zn68   Zn    0.23102   0.16067   0.24479   0.00000  Uiso   1.00
C69    C     0.51511   0.26478   0.24886   0.00000  Uiso   1.00
C70    C     0.52540   0.20901   0.40559   0.00000  Uiso   1.00
C71    C     0.49895   0.16722   0.11616   0.00000  Uiso   1.00
C72    C     0.50105   0.16612   0.38384   0.00000  Uiso   1.00
C73    C     0.52433   0.20950   0.09293   0.00000  Uiso   1.00
C74    C     0.47571   0.12382   0.40706   0.00000  Uiso   1.00
C75    C     0.52419   0.21025   0.04624   0.00000  Uiso   1.00
C76    C     0.47584   0.12307   0.45375   0.00000  Uiso   1.00
C77    C     0.50042   0.16627   0.02334   0.00000  Uiso   1.00
C78    C     0.49960   0.16706   0.47665   0.00000  Uiso   1.00
C79    C     0.47836   0.12128   0.04737   0.00000  Uiso   1.00
C80    C     0.48489   0.06856   0.25114   0.00000  Uiso   1.00
C81    C     0.52165   0.21205   0.45263   0.00000  Uiso   1.00
C82    C     0.54617   0.25481   0.02269   0.00000  Uiso   1.00
C83    C     0.45386   0.07851   0.47731   0.00000  Uiso   1.00
C84    C     0.62790   0.29098   0.04779   0.00000  Uiso   1.00
C85    C     0.37213   0.04236   0.45220   0.00000  Uiso   1.00
C86    C     0.54857   0.31019   0.45394   0.00000  Uiso   1.00
C87    C     0.45143   0.02315   0.04606   0.00000  Uiso   1.00
C88    C     0.65077   0.10267   0.17546   0.00000  Uiso   1.00
C89    C     0.34923   0.23066   0.32454   0.00000  Uiso   1.00
C90    C     0.54036   0.25797   0.47605   0.00000  Uiso   1.00
C91    C     0.45965   0.07537   0.02395   0.00000  Uiso   1.00
C92    C     0.52304   0.31930   0.24816   0.00000  Uiso   1.00
C93    C     0.47696   0.01404   0.25184   0.00000  Uiso   1.00
C94    C     0.50036   0.16633   0.33625   0.00000  Uiso   1.00
C95    C     0.49964   0.16700   0.16374   0.00000  Uiso   1.00
C96    C     0.47459   0.12433   0.09441   0.00000  Uiso   1.00
H97    H     0.45243   0.09424   0.11499   0.00000  Uiso   1.00
H98    H     0.36418   0.07652   0.43188   0.00000  Uiso   1.00
H99    H     0.35042   0.04624   0.48678   0.00000  Uiso   1.00
H100   H     0.35299   0.00710   0.43568   0.00000  Uiso   1.00
H101   H     0.57849   0.05204   0.45708   0.00000  Uiso   1.00
H102   H     0.42150   0.28130   0.04293   0.00000  Uiso   1.00
H103   H     0.64912   0.13841   0.15539   0.00000  Uiso   1.00
H104   H     0.60803   0.08285   0.18235   0.00000  Uiso   1.00
H105   H     0.34369   0.07533   0.15447   0.00000  Uiso   1.00
H106   H     0.39197   0.25048   0.31766   0.00000  Uiso   1.00
H107   H     0.35088   0.19492   0.34461   0.00000  Uiso   1.00
H108   H     0.54753   0.23911   0.38500   0.00000  Uiso   1.00
H109   H     0.65631   0.25800   0.34553   0.00000  Uiso   1.00
H110   H     0.54218   0.24233   0.11185   0.00000  Uiso   1.00
H111   H     0.45788   0.09098   0.38815   0.00000  Uiso   1.00
H112   H     0.56662   0.00282   0.24461   0.00000  Uiso   1.00
H113   H     0.43338   0.33051   0.25539   0.00000  Uiso   1.00
H114   H     0.64960   0.28712   0.01321   0.00000  Uiso   1.00
H115   H     0.63588   0.25682   0.06810   0.00000  Uiso   1.00
H116   H     0.64704   0.32624   0.06432   0.00000  Uiso   1.00
N117   N     0.65011   0.15265   0.23783   0.00000  Uiso   1.00
N118   N     0.34989   0.18068   0.26217   0.00000  Uiso   1.00
O119   O     0.46308   0.24619   0.25298   0.00000  Uiso   1.00
O120   O     0.43098   0.03629   0.45372   0.00000  Uiso   1.00
O121   O     0.52655   0.31791   0.41906   0.00000  Uiso   1.00
O122   O     0.57778   0.01864   0.47461   0.00000  Uiso   1.00
O123   O     0.47344   0.01543   0.08095   0.00000  Uiso   1.00
O124   O     0.42223   0.31469   0.02540   0.00000  Uiso   1.00
O125   O     0.34369   0.11372   0.21554   0.00000  Uiso   1.00
O126   O     0.65631   0.21962   0.28446   0.00000  Uiso   1.00
O127   O     0.53692   0.08714   0.24701   0.00000  Uiso   1.00
O128   O     0.55946   0.23721   0.24518   0.00000  Uiso   1.00
O129   O     0.44054   0.09613   0.25481   0.00000  Uiso   1.00
O130   O     0.45181   0.17117   0.31997   0.00000  Uiso   1.00
O131   O     0.54819   0.16216   0.18002   0.00000  Uiso   1.00
O132   O     0.54819   0.16219   0.31217   0.00000  Uiso   1.00
O133   O     0.45181   0.17115   0.18782   0.00000  Uiso   1.00
O134   O     0.56904   0.29704   0.04628   0.00000  Uiso   1.00
Zn135  Zn    0.43565   0.17266   0.25521   0.00000  Uiso   1.00
Zn136  Zn    0.56435   0.16067   0.24479   0.00000  Uiso   1.00
C137   C     0.84845   0.26478   0.24886   0.00000  Uiso   1.00
C138   C     0.85873   0.20901   0.40559   0.00000  Uiso   1.00
C139   C     0.83228   0.16722   0.11616   0.00000  Uiso   1.00
C140   C     0.83439   0.16612   0.38384   0.00000  Uiso   1.00
C141   C     0.85766   0.20950   0.09293   0.00000  Uiso   1.00
C142   C     0.80904   0.12382   0.40706   0.00000  Uiso   1.00
C143   C     0.85753   0.21025   0.04624   0.00000  Uiso   1.00
C144   C     0.80917   0.12307   0.45375   0.00000  Uiso   1.00
C145   C     0.83376   0.16627   0.02334   0.00000  Uiso   1.00
C146   C     0.83294   0.16706   0.47665   0.00000  Uiso   1.00
C147   C     0.81169   0.12128   0.04737   0.00000  Uiso   1.00
C148   C     0.81822   0.06856   0.25114   0.00000  Uiso   1.00
C149   C     0.85499   0.21205   0.45263   0.00000  Uiso   1.00
C150   C     0.87950   0.25481   0.02269   0.00000  Uiso   1.00
C151   C     0.78719   0.07851   0.47731   0.00000  Uiso   1.00
C152   C     0.96123   0.29098   0.04779   0.00000  Uiso   1.00
C153   C     0.70547   0.04236   0.45220   0.00000  Uiso   1.00
C154   C     0.88190   0.31019   0.45394   0.00000  Uiso   1.00
C155   C     0.78477   0.02315   0.04606   0.00000  Uiso   1.00
C156   C     0.98410   0.10267   0.17546   0.00000  Uiso   1.00
C157   C     0.68257   0.23066   0.32454   0.00000  Uiso   1.00
C158   C     0.87370   0.25797   0.47605   0.00000  Uiso   1.00
C159   C     0.79299   0.07537   0.02395   0.00000  Uiso   1.00
C160   C     0.85637   0.31930   0.24816   0.00000  Uiso   1.00
C161   C     0.81030   0.01404   0.25184   0.00000  Uiso   1.00
C162   C     0.83369   0.16633   0.33625   0.00000  Uiso   1.00
C163   C     0.83298   0.16700   0.16374   0.00000  Uiso   1.00
C164   C     0.80792   0.12433   0.09441   0.00000  Uiso   1.00
H165   H     0.78576   0.09424   0.11499   0.00000  Uiso   1.00
H166   H     0.69751   0.07652   0.43188   0.00000  Uiso   1.00
H167   H     0.68375   0.04624   0.48678   0.00000  Uiso   1.00
H168   H     0.68632   0.00710   0.43568   0.00000  Uiso   1.00
H169   H     0.91182   0.05204   0.45708   0.00000  Uiso   1.00
H170   H     0.75483   0.28130   0.04293   0.00000  Uiso   1.00
H171   H     0.98245   0.13841   0.15539   0.00000  Uiso   1.00
H172   H     0.94136   0.08285   0.18235   0.00000  Uiso   1.00
H173   H     0.67703   0.07533   0.15447   0.00000  Uiso   1.00
H174   H     0.72530   0.25048   0.31766   0.00000  Uiso   1.00
H175   H     0.68421   0.19492   0.34461   0.00000  Uiso   1.00
H176   H     0.88087   0.23911   0.38500   0.00000  Uiso   1.00
H177   H     0.98964   0.25800   0.34553   0.00000  Uiso   1.00
H178   H     0.87551   0.24233   0.11185   0.00000  Uiso   1.00
H179   H     0.79121   0.09098   0.38815   0.00000  Uiso   1.00
H180   H     0.89995   0.00282   0.24461   0.00000  Uiso   1.00
H181   H     0.76672   0.33051   0.25539   0.00000  Uiso   1.00
H182   H     0.98293   0.28712   0.01321   0.00000  Uiso   1.00
H183   H     0.96921   0.25682   0.06810   0.00000  Uiso   1.00
H184   H     0.98038   0.32624   0.06432   0.00000  Uiso   1.00
N185   N     0.98344   0.15265   0.23783   0.00000  Uiso   1.00
N186   N     0.68322   0.18068   0.26217   0.00000  Uiso   1.00
O187   O     0.79642   0.24619   0.25298   0.00000  Uiso   1.00
O188   O     0.76431   0.03629   0.45372   0.00000  Uiso   1.00
O189   O     0.85988   0.31791   0.41906   0.00000  Uiso   1.00
O190   O     0.91111   0.01864   0.47461   0.00000  Uiso   1.00
O191   O     0.80677   0.01543   0.08095   0.00000  Uiso   1.00
O192   O     0.75556   0.31469   0.02540   0.00000  Uiso   1.00
O193   O     0.67702   0.11372   0.21554   0.00000  Uiso   1.00
O194   O     0.98964   0.21962   0.28446   0.00000  Uiso   1.00
O195   O     0.87025   0.08714   0.24701   0.00000  Uiso   1.00
O196   O     0.89280   0.23721   0.24518   0.00000  Uiso   1.00
O197   O     0.77387   0.09613   0.25481   0.00000  Uiso   1.00
O198   O     0.78514   0.17117   0.31997   0.00000  Uiso   1.00
O199   O     0.88153   0.16216   0.18002   0.00000  Uiso   1.00
O200   O     0.88152   0.16219   0.31217   0.00000  Uiso   1.00
O201   O     0.78515   0.17115   0.18782   0.00000  Uiso   1.00
O202   O     0.90238   0.29704   0.04628   0.00000  Uiso   1.00
Zn203  Zn    0.76898   0.17266   0.25521   0.00000  Uiso   1.00
Zn204  Zn    0.89769   0.16067   0.24479   0.00000  Uiso   1.00
C205   C     0.18178   0.59811   0.24886   0.00000  Uiso   1.00
C206   C     0.19207   0.54234   0.40559   0.00000  Uiso   1.00
C207   C     0.16562   0.50055   0.11616   0.00000  Uiso   1.00
C208   C     0.16772   0.49945   0.38384   0.00000  Uiso   1.00
C209   C     0.19099   0.54284   0.09293   0.00000  Uiso   1.00
C210   C     0.14238   0.45715   0.40706   0.00000  Uiso   1.00
C211   C     0.19086   0.54359   0.04624   0.00000  Uiso   1.00
C212   C     0.14251   0.45640   0.45375   0.00000  Uiso   1.00
C213   C     0.16709   0.49960   0.02334   0.00000  Uiso   1.00
C214   C     0.16627   0.50039   0.47665   0.00000  Uiso   1.00
C215   C     0.14503   0.45462   0.04737   0.00000  Uiso   1.00
C216   C     0.15155   0.40189   0.25114   0.00000  Uiso   1.00
C217   C     0.18832   0.54538   0.45263   0.00000  Uiso   1.00
C218   C     0.21284   0.58815   0.02269   0.00000  Uiso   1.00
C219   C     0.12053   0.41185   0.47731   0.00000  Uiso   1.00
C220   C     0.29456   0.62432   0.04779   0.00000  Uiso   1.00
C221   C     0.03880   0.37569   0.45220   0.00000  Uiso   1.00
C222   C     0.21523   0.64352   0.45394   0.00000  Uiso   1.00
C223   C     0.11810   0.35648   0.04606   0.00000  Uiso   1.00
C224   C     0.31743   0.43601   0.17546   0.00000  Uiso   1.00
C225   C     0.01590   0.56399   0.32454   0.00000  Uiso   1.00
C226   C     0.20703   0.59130   0.47605   0.00000  Uiso   1.00
C227   C     0.12632   0.40870   0.02395   0.00000  Uiso   1.00
C228   C     0.18970   0.65263   0.24816   0.00000  Uiso   1.00
C229   C     0.14363   0.34737   0.25184   0.00000  Uiso   1.00
C230   C     0.16702   0.49967   0.33625   0.00000  Uiso   1.00
C231   C     0.16631   0.50033   0.16374   0.00000  Uiso   1.00
C232   C     0.14126   0.45766   0.09441   0.00000  Uiso   1.00
H233   H     0.11910   0.42757   0.11499   0.00000  Uiso   1.00
H234   H     0.03085   0.40985   0.43188   0.00000  Uiso   1.00
H235   H     0.01708   0.37957   0.48678   0.00000  Uiso   1.00
H236   H     0.01965   0.34043   0.43568   0.00000  Uiso   1.00
H237   H     0.24516   0.38537   0.45708   0.00000  Uiso   1.00
H238   H     0.08817   0.61463   0.04293   0.00000  Uiso   1.00
H239   H     0.31579   0.47175   0.15539   0.00000  Uiso   1.00
H240   H     0.27470   0.41619   0.18235   0.00000  Uiso   1.00
H241   H     0.01036   0.40867   0.15447   0.00000  Uiso   1.00
H242   H     0.05864   0.58381   0.31766   0.00000  Uiso   1.00
H243   H     0.01755   0.52825   0.34461   0.00000  Uiso   1.00
H244   H     0.21420   0.57244   0.38500   0.00000  Uiso   1.00
H245   H     0.32297   0.59133   0.34553   0.00000  Uiso   1.00
H246   H     0.20885   0.57566   0.11185   0.00000  Uiso   1.00
H247   H     0.12454   0.42432   0.38815   0.00000  Uiso   1.00
H248   H     0.23328   0.33615   0.24461   0.00000  Uiso   1.00
H249   H     0.10005   0.66385   0.25539   0.00000  Uiso   1.00
H250   H     0.31626   0.62046   0.01321   0.00000  Uiso   1.00
H251   H     0.30255   0.59015   0.06810   0.00000  Uiso   1.00
H252   H     0.31371   0.65957   0.06432   0.00000  Uiso   1.00
N253   N     0.31678   0.48598   0.23783   0.00000  Uiso   1.00
N254   N     0.01656   0.51402   0.26217   0.00000  Uiso   1.00
O255   O     0.12975   0.57952   0.25298   0.00000  Uiso   1.00
O256   O     0.09764   0.36963   0.45372   0.00000  Uiso   1.00
O257   O     0.19321   0.65125   0.41906   0.00000  Uiso   1.00
O258   O     0.24445   0.35198   0.47461   0.00000  Uiso   1.00
O259   O     0.14011   0.34876   0.08095   0.00000  Uiso   1.00
O260   O     0.08889   0.64802   0.02540   0.00000  Uiso   1.00
O261   O     0.01036   0.44705   0.21554   0.00000  Uiso   1.00
O262   O     0.32298   0.55295   0.28446   0.00000  Uiso   1.00
O263   O     0.20358   0.42048   0.24701   0.00000  Uiso   1.00
O264   O     0.22613   0.57054   0.24518   0.00000  Uiso   1.00
O265   O     0.10720   0.42946   0.25481   0.00000  Uiso   1.00
O266   O     0.11847   0.50450   0.31997   0.00000  Uiso   1.00
O267   O     0.21486   0.49550   0.18002   0.00000  Uiso   1.00
O268   O     0.21485   0.49552   0.31217   0.00000  Uiso   1.00
O269   O     0.11848   0.50448   0.18782   0.00000  Uiso   1.00
O270   O     0.23571   0.63037   0.04628   0.00000  Uiso   1.00
Zn271  Zn    0.10231   0.50600   0.25521   0.00000  Uiso   1.00
Zn272  Zn    0.23102   0.49400   0.24479   0.00000  Uiso   1.00
C273   C     0.51511   0.59811   0.24886   0.00000  Uiso   1.00
C274   C     0.52540   0.54234   0.40559   0.00000  Uiso   1.00
C275   C     0.49895   0.50055   0.11616   0.00000  Uiso   1.00
C276   C     0.50105   0.49945   0.38384   0.00000  Uiso   1.00
C277   C     0.52433   0.54284   0.09293   0.00000  Uiso   1.00
C278   C     0.47571   0.45715   0.40706   0.00000  Uiso   1.00
C279   C     0.52419   0.54359   0.04624   0.00000  Uiso   1.00
C280   C     0.47584   0.45640   0.45375   0.00000  Uiso   1.00
C281   C     0.50042   0.49960   0.02334   0.00000  Uiso   1.00
C282   C     0.49960   0.50039   0.47665   0.00000  Uiso   1.00
C283   C     0.47836   0.45462   0.04737   0.00000  Uiso   1.00
C284   C     0.48489   0.40189   0.25114   0.00000  Uiso   1.00
C285   C     0.52165   0.54538   0.45263   0.00000  Uiso   1.00
C286   C     0.54617   0.58815   0.02269   0.00000  Uiso   1.00
C287   C     0.45386   0.41185   0.47731   0.00000  Uiso   1.00
C288   C     0.62790   0.62432   0.04779   0.00000  Uiso   1.00
C289   C     0.37213   0.37569   0.45220   0.00000  Uiso   1.00
C290   C     0.54857   0.64352   0.45394   0.00000  Uiso   1.00
C291   C     0.45143   0.35648   0.04606   0.00000  Uiso   1.00
C292   C     0.65077   0.43601   0.17546   0.00000  Uiso   1.00
C293   C     0.34923   0.56399   0.32454   0.00000  Uiso   1.00
C294   C     0.54036   0.59130   0.47605   0.00000  Uiso   1.00
C295   C     0.45965   0.40870   0.02395   0.00000  Uiso   1.00
C296   C     0.52304   0.65263   0.24816   0.00000  Uiso   1.00
C297   C     0.47696   0.34737   0.25184   0.00000  Uiso   1.00
C298   C     0.50036   0.49967   0.33625   0.00000  Uiso   1.00
C299   C     0.49964   0.50033   0.16374   0.00000  Uiso   1.00
C300   C     0.47459   0.45766   0.09441   0.00000  Uiso   1.00
H301   H     0.45243   0.42757   0.11499   0.00000  Uiso   1.00
H302   H     0.36418   0.40985   0.43188   0.00000  Uiso   1.00
H303   H     0.35042   0.37957   0.48678   0.00000  Uiso   1.00
H304   H     0.35299   0.34043   0.43568   0.00000  Uiso   1.00
H305   H     0.57849   0.38537   0.45708   0.00000  Uiso   1.00
H306   H     0.42150   0.61463   0.04293   0.00000  Uiso   1.00
H307   H     0.64912   0.47175   0.15539   0.00000  Uiso   1.00
H308   H     0.60803   0.41619   0.18235   0.00000  Uiso   1.00
H309   H     0.34369   0.40867   0.15447   0.00000  Uiso   1.00
H310   H     0.39197   0.58381   0.31766   0.00000  Uiso   1.00
H311   H     0.35088   0.52825   0.34461   0.00000  Uiso   1.00
H312   H     0.54753   0.57244   0.38500   0.00000  Uiso   1.00
H313   H     0.65631   0.59133   0.34553   0.00000  Uiso   1.00
H314   H     0.54218   0.57566   0.11185   0.00000  Uiso   1.00
H315   H     0.45788   0.42432   0.38815   0.00000  Uiso   1.00
H316   H     0.56662   0.33615   0.24461   0.00000  Uiso   1.00
H317   H     0.43338   0.66385   0.25539   0.00000  Uiso   1.00
H318   H     0.64960   0.62046   0.01321   0.00000  Uiso   1.00
H319   H     0.63588   0.59015   0.06810   0.00000  Uiso   1.00
H320   H     0.64704   0.65957   0.06432   0.00000  Uiso   1.00
N321   N     0.65011   0.48598   0.23783   0.00000  Uiso   1.00
N322   N     0.34989   0.51402   0.26217   0.00000  Uiso   1.00
O323   O     0.46308   0.57952   0.25298   0.00000  Uiso   1.00
O324   O     0.43098   0.36963   0.45372   0.00000  Uiso   1.00
O325   O     0.52655   0.65125   0.41906   0.00000  Uiso   1.00
O326   O     0.57778   0.35198   0.47461   0.00000  Uiso   1.00
O327   O     0.47344   0.34876   0.08095   0.00000  Uiso   1.00
O328   O     0.42223   0.64802   0.02540   0.00000  Uiso   1.00
O329   O     0.34369   0.44705   0.21554   0.00000  Uiso   1.00
O330   O     0.65631   0.55295   0.28446   0.00000  Uiso   1.00
O331   O     0.53692   0.42048   0.24701   0.00000  Uiso   1.00
O332   O     0.55946   0.57054   0.24518   0.00000  Uiso   1.00
O333   O     0.44054   0.42946   0.25481   0.00000  Uiso   1.00
O334   O     0.45181   0.50450   0.31997   0.00000  Uiso   1.00
O335   O     0.54819   0.49550   0.18002   0.00000  Uiso   1.00
O336   O     0.54819   0.49552   0.31217   0.00000  Uiso   1.00
O337   O     0.45181   0.50448   0.18782   0.00000  Uiso   1.00
O338   O     0.56904   0.63037   0.04628   0.00000  Uiso   1.00
Zn339  Zn    0.43565   0.50600   0.25521   0.00000  Uiso   1.00
Zn340  Zn    0.56435   0.49400   0.24479   0.00000  Uiso   1.00
C341   C     0.84845   0.59811   0.24886   0.00000  Uiso   1.00
C342   C     0.85873   0.54234   0.40559   0.00000  Uiso   1.00
C343   C     0.83228   0.50055   0.11616   0.00000  Uiso   1.00
C344   C     0.83439   0.49945   0.38384   0.00000  Uiso   1.00
C345   C     0.85766   0.54284   0.09293   0.00000  Uiso   1.00
C346   C     0.80904   0.45715   0.40706   0.00000  Uiso   1.00
C347   C     0.85753   0.54359   0.04624   0.00000  Uiso   1.00
C348   C     0.80917   0.45640   0.45375   0.00000  Uiso   1.00
C349   C     0.83376   0.49960   0.02334   0.00000  Uiso   1.00
C350   C     0.83294   0.50039   0.47665   0.00000  Uiso   1.00
C351   C     0.81169   0.45462   0.04737   0.00000  Uiso   1.00
C352   C     0.81822   0.40189   0.25114   0.00000  Uiso   1.00
C353   C     0.85499   0.54538   0.45263   0.00000  Uiso   1.00
C354   C     0.87950   0.58815   0.02269   0.00000  Uiso   1.00
C355   C     0.78719   0.41185   0.47731   0.00000  Uiso   1.00
C356   C     0.96123   0.62432   0.04779   0.00000  Uiso   1.00
C357   C     0.70547   0.37569   0.45220   0.00000  Uiso   1.00
C358   C     0.88190   0.64352   0.45394   0.00000  Uiso   1.00
C359   C     0.78477   0.35648   0.04606   0.00000  Uiso   1.00
C360   C     0.98410   0.43601   0.17546   0.00000  Uiso   1.00
C361   C     0.68257   0.56399   0.32454   0.00000  Uiso   1.00
C362   C     0.87370   0.59130   0.47605   0.00000  Uiso   1.00
C363   C     0.79299   0.40870   0.02395   0.00000  Uiso   1.00
C364   C     0.85637   0.65263   0.24816   0.00000  Uiso   1.00
C365   C     0.81030   0.34737   0.25184   0.00000  Uiso   1.00
C366   C     0.83369   0.49967   0.33625   0.00000  Uiso   1.00
C367   C     0.83298   0.50033   0.16374   0.00000  Uiso   1.00
C368   C     0.80792   0.45766   0.09441   0.00000  Uiso   1.00
H369   H     0.78576   0.42757   0.11499   0.00000  Uiso   1.00
H370   H     0.69751   0.40985   0.43188   0.00000  Uiso   1.00
H371   H     0.68375   0.37957   0.48678   0.00000  Uiso   1.00
H372   H     0.68632   0.34043   0.43568   0.00000  Uiso   1.00
H373   H     0.91182   0.38537   0.45708   0.00000  Uiso   1.00
H374   H     0.75483   0.61463   0.04293   0.00000  Uiso   1.00
H375   H     0.98245   0.47175   0.15539   0.00000  Uiso   1.00
H376   H     0.94136   0.41619   0.18235   0.00000  Uiso   1.00
H377   H     0.67703   0.40867   0.15447   0.00000  Uiso   1.00
H378   H     0.72530   0.58381   0.31766   0.00000  Uiso   1.00
H379   H     0.68421   0.52825   0.34461   0.00000  Uiso   1.00
H380   H     0.88087   0.57244   0.38500   0.00000  Uiso   1.00
H381   H     0.98964   0.59133   0.34553   0.00000  Uiso   1.00
H382   H     0.87551   0.57566   0.11185   0.00000  Uiso   1.00
H383   H     0.79121   0.42432   0.38815   0.00000  Uiso   1.00
H384   H     0.89995   0.33615   0.24461   0.00000  Uiso   1.00
H385   H     0.76672   0.66385   0.25539   0.00000  Uiso   1.00
H386   H     0.98293   0.62046   0.01321   0.00000  Uiso   1.00
H387   H     0.96921   0.59015   0.06810   0.00000  Uiso   1.00
H388   H     0.98038   0.65957   0.06432   0.00000  Uiso   1.00
N389   N     0.98344   0.48598   0.23783   0.00000  Uiso   1.00
N390   N     0.68322   0.51402   0.26217   0.00000  Uiso   1.00
O391   O     0.79642   0.57952   0.25298   0.00000  Uiso   1.00
O392   O     0.76431   0.36963   0.45372   0.00000  Uiso   1.00
O393   O     0.85988   0.65125   0.41906   0.00000  Uiso   1.00
O394   O     0.91111   0.35198   0.47461   0.00000  Uiso   1.00
O395   O     0.80677   0.34876   0.08095   0.00000  Uiso   1.00
O396   O     0.75556   0.64802   0.02540   0.00000  Uiso   1.00
O397   O     0.67702   0.44705   0.21554   0.00000  Uiso   1.00
O398   O     0.98964   0.55295   0.28446   0.00000  Uiso   1.00
O399   O     0.87025   0.42048   0.24701   0.00000  Uiso   1.00
O400   O     0.89280   0.57054   0.24518   0.00000  Uiso   1.00
O401   O     0.77387   0.42946   0.25481   0.00000  Uiso   1.00
O402   O     0.78514   0.50450   0.31997   0.00000  Uiso   1.00
O403   O     0.88153   0.49550   0.18002   0.00000  Uiso   1.00
O404   O     0.88152   0.49552   0.31217   0.00000  Uiso   1.00
O405   O     0.78515   0.50448   0.18782   0.00000  Uiso   1.00
O406   O     0.90238   0.63037   0.04628   0.00000  Uiso   1.00
Zn407  Zn    0.76898   0.50600   0.25521   0.00000  Uiso   1.00
Zn408  Zn    0.89769   0.49400   0.24479   0.00000  Uiso   1.00
C409   C     0.18178   0.93144   0.24886   0.00000  Uiso   1.00
C410   C     0.19207   0.87568   0.40559   0.00000  Uiso   1.00
C411   C     0.16562   0.83388   0.11616   0.00000  Uiso   1.00
C412   C     0.16772   0.83278   0.38384   0.00000  Uiso   1.00
C413   C     0.19099   0.87617   0.09293   0.00000  Uiso   1.00
C414   C     0.14238   0.79048   0.40706   0.00000  Uiso   1.00
C415   C     0.19086   0.87692   0.04624   0.00000  Uiso   1.00
C416   C     0.14251   0.78974   0.45375   0.00000  Uiso   1.00
C417   C     0.16709   0.83294   0.02334   0.00000  Uiso   1.00
C418   C     0.16627   0.83372   0.47665   0.00000  Uiso   1.00
C419   C     0.14503   0.78795   0.04737   0.00000  Uiso   1.00
C420   C     0.15155   0.73522   0.25114   0.00000  Uiso   1.00
C421   C     0.18832   0.87871   0.45263   0.00000  Uiso   1.00
C422   C     0.21284   0.92148   0.02269   0.00000  Uiso   1.00
C423   C     0.12053   0.74518   0.47731   0.00000  Uiso   1.00
C424   C     0.29456   0.95765   0.04779   0.00000  Uiso   1.00
C425   C     0.03880   0.70903   0.45220   0.00000  Uiso   1.00
C426   C     0.21523   0.97685   0.45394   0.00000  Uiso   1.00
C427   C     0.11810   0.68982   0.04606   0.00000  Uiso   1.00
C428   C     0.31743   0.76934   0.17546   0.00000  Uiso   1.00
C429   C     0.01590   0.89733   0.32454   0.00000  Uiso   1.00
C430   C     0.20703   0.92463   0.47605   0.00000  Uiso   1.00
C431   C     0.12632   0.74203   0.02395   0.00000  Uiso   1.00
C432   C     0.18970   0.98596   0.24816   0.00000  Uiso   1.00
C433   C     0.14363   0.68070   0.25184   0.00000  Uiso   1.00
C434   C     0.16702   0.83300   0.33625   0.00000  Uiso   1.00
C435   C     0.16631   0.83367   0.16374   0.00000  Uiso   1.00
C436   C     0.14126   0.79100   0.09441   0.00000  Uiso   1.00
H437   H     0.11910   0.76090   0.11499   0.00000  Uiso   1.00
H438   H     0.03085   0.74318   0.43188   0.00000  Uiso   1.00
H439   H     0.01708   0.71291   0.48678   0.00000  Uiso   1.00
H440   H     0.01965   0.67377   0.43568   0.00000  Uiso   1.00
H441   H     0.24516   0.71871   0.45708   0.00000  Uiso   1.00
H442   H     0.08817   0.94796   0.04293   0.00000  Uiso   1.00
H443   H     0.31579   0.80508   0.15539   0.00000  Uiso   1.00
H444   H     0.27470   0.74952   0.18235   0.00000  Uiso   1.00
H445   H     0.01036   0.74200   0.15447   0.00000  Uiso   1.00
H446   H     0.05864   0.91715   0.31766   0.00000  Uiso   1.00
H447   H     0.01755   0.86159   0.34461   0.00000  Uiso   1.00
H448   H     0.21420   0.90578   0.38500   0.00000  Uiso   1.00
H449   H     0.32297   0.92467   0.34553   0.00000  Uiso   1.00
H450   H     0.20885   0.90900   0.11185   0.00000  Uiso   1.00
H451   H     0.12454   0.75765   0.38815   0.00000  Uiso   1.00
H452   H     0.23328   0.66949   0.24461   0.00000  Uiso   1.00
H453   H     0.10005   0.99718   0.25539   0.00000  Uiso   1.00
H454   H     0.31626   0.95379   0.01321   0.00000  Uiso   1.00
H455   H     0.30255   0.92349   0.06810   0.00000  Uiso   1.00
H456   H     0.31371   0.99291   0.06432   0.00000  Uiso   1.00
N457   N     0.31678   0.81932   0.23783   0.00000  Uiso   1.00
N458   N     0.01656   0.84735   0.26217   0.00000  Uiso   1.00
O459   O     0.12975   0.91286   0.25298   0.00000  Uiso   1.00
O460   O     0.09764   0.70296   0.45372   0.00000  Uiso   1.00
O461   O     0.19321   0.98458   0.41906   0.00000  Uiso   1.00
O462   O     0.24445   0.68531   0.47461   0.00000  Uiso   1.00
O463   O     0.14011   0.68210   0.08095   0.00000  Uiso   1.00
O464   O     0.08889   0.98136   0.02540   0.00000  Uiso   1.00
O465   O     0.01036   0.78039   0.21554   0.00000  Uiso   1.00
O466   O     0.32298   0.88628   0.28446   0.00000  Uiso   1.00
O467   O     0.20358   0.75381   0.24701   0.00000  Uiso   1.00
O468   O     0.22613   0.90387   0.24518   0.00000  Uiso   1.00
O469   O     0.10720   0.76279   0.25481   0.00000  Uiso   1.00
O470   O     0.11847   0.83784   0.31997   0.00000  Uiso   1.00
O471   O     0.21486   0.82883   0.18002   0.00000  Uiso   1.00
O472   O     0.21485   0.82885   0.31217   0.00000  Uiso   1.00
O473   O     0.11848   0.83781   0.18782   0.00000  Uiso   1.00
O474   O     0.23571   0.96370   0.04628   0.00000  Uiso   1.00
Zn475  Zn    0.10231   0.83933   0.25521   0.00000  Uiso   1.00
Zn476  Zn    0.23102   0.82734   0.24479   0.00000  Uiso   1.00
C477   C     0.51511   0.93144   0.24886   0.00000  Uiso   1.00
C478   C     0.52540   0.87568   0.40559   0.00000  Uiso   1.00
C479   C     0.49895   0.83388   0.11616   0.00000  Uiso   1.00
C480   C     0.50105   0.83278   0.38384   0.00000  Uiso   1.00
C481   C     0.52433   0.87617   0.09293   0.00000  Uiso   1.00
C482   C     0.47571   0.79048   0.40706   0.00000  Uiso   1.00
C483   C     0.52419   0.87692   0.04624   0.00000  Uiso   1.00
C484   C     0.47584   0.78974   0.45375   0.00000  Uiso   1.00
C485   C     0.50042   0.83294   0.02334   0.00000  Uiso   1.00
C486   C     0.49960   0.83372   0.47665   0.00000  Uiso   1.00
C487   C     0.47836   0.78795   0.04737   0.00000  Uiso   1.00
C488   C     0.48489   0.73522   0.25114   0.00000  Uiso   1.00
C489   C     0.52165   0.87871   0.45263   0.00000  Uiso   1.00
C490   C     0.54617   0.92148   0.02269   0.00000  Uiso   1.00
C491   C     0.45386   0.74518   0.47731   0.00000  Uiso   1.00
C492   C     0.62790   0.95765   0.04779   0.00000  Uiso   1.00
C493   C     0.37213   0.70903   0.45220   0.00000  Uiso   1.00
C494   C     0.54857   0.97685   0.45394   0.00000  Uiso   1.00
C495   C     0.45143   0.68982   0.04606   0.00000  Uiso   1.00
C496   C     0.65077   0.76934   0.17546   0.00000  Uiso   1.00
C497   C     0.34923   0.89733   0.32454   0.00000  Uiso   1.00
C498   C     0.54036   0.92463   0.47605   0.00000  Uiso   1.00
C499   C     0.45965   0.74203   0.02395   0.00000  Uiso   1.00
C500   C     0.52304   0.98596   0.24816   0.00000  Uiso   1.00
C501   C     0.47696   0.68070   0.25184   0.00000  Uiso   1.00
C502   C     0.50036   0.83300   0.33625   0.00000  Uiso   1.00
C503   C     0.49964   0.83367   0.16374   0.00000  Uiso   1.00
C504   C     0.47459   0.79100   0.09441   0.00000  Uiso   1.00
H505   H     0.45243   0.76090   0.11499   0.00000  Uiso   1.00
H506   H     0.36418   0.74318   0.43188   0.00000  Uiso   1.00
H507   H     0.35042   0.71291   0.48678   0.00000  Uiso   1.00
H508   H     0.35299   0.67377   0.43568   0.00000  Uiso   1.00
H509   H     0.57849   0.71871   0.45708   0.00000  Uiso   1.00
H510   H     0.42150   0.94796   0.04293   0.00000  Uiso   1.00
H511   H     0.64912   0.80508   0.15539   0.00000  Uiso   1.00
H512   H     0.60803   0.74952   0.18235   0.00000  Uiso   1.00
H513   H     0.34369   0.74200   0.15447   0.00000  Uiso   1.00
H514   H     0.39197   0.91715   0.31766   0.00000  Uiso   1.00
H515   H     0.35088   0.86159   0.34461   0.00000  Uiso   1.00
H516   H     0.54753   0.90578   0.38500   0.00000  Uiso   1.00
H517   H     0.65631   0.92467   0.34553   0.00000  Uiso   1.00
H518   H     0.54218   0.90900   0.11185   0.00000  Uiso   1.00
H519   H     0.45788   0.75765   0.38815   0.00000  Uiso   1.00
H520   H     0.56662   0.66949   0.24461   0.00000  Uiso   1.00
H521   H     0.43338   0.99718   0.25539   0.00000  Uiso   1.00
H522   H     0.64960   0.95379   0.01321   0.00000  Uiso   1.00
H523   H     0.63588   0.92349   0.06810   0.00000  Uiso   1.00
H524   H     0.64704   0.99291   0.06432   0.00000  Uiso   1.00
N525   N     0.65011   0.81932   0.23783   0.00000  Uiso   1.00
N526   N     0.34989   0.84735   0.26217   0.00000  Uiso   1.00
O527   O     0.46308   0.91286   0.25298   0.00000  Uiso   1.00
O528   O     0.43098   0.70296   0.45372   0.00000  Uiso   1.00
O529   O     0.52655   0.98458   0.41906   0.00000  Uiso   1.00
O530   O     0.57778   0.68531   0.47461   0.00000  Uiso   1.00
O531   O     0.47344   0.68210   0.08095   0.00000  Uiso   1.00
O532   O     0.42223   0.98136   0.02540   0.00000  Uiso   1.00
O533   O     0.34369   0.78039   0.21554   0.00000  Uiso   1.00
O534   O     0.65631   0.88628   0.28446   0.00000  Uiso   1.00
O535   O     0.53692   0.75381   0.24701   0.00000  Uiso   1.00
O536   O     0.55946   0.90387   0.24518   0.00000  Uiso   1.00
O537   O     0.44054   0.76279   0.25481   0.00000  Uiso   1.00
O538   O     0.45181   0.83784   0.31997   0.00000  Uiso   1.00
O539   O     0.54819   0.82883   0.18002   0.00000  Uiso   1.00
O540   O     0.54819   0.82885   0.31217   0.00000  Uiso   1.00
O541   O     0.45181   0.83781   0.18782   0.00000  Uiso   1.00
O542   O     0.56904   0.96370   0.04628   0.00000  Uiso   1.00
Zn543  Zn    0.43565   0.83933   0.25521   0.00000  Uiso   1.00
Zn544  Zn    0.56435   0.82734   0.24479   0.00000  Uiso   1.00
C545   C     0.84845   0.93144   0.24886   0.00000  Uiso   1.00
C546   C     0.85873   0.87568   0.40559   0.00000  Uiso   1.00
C547   C     0.83228   0.83388   0.11616   0.00000  Uiso   1.00
C548   C     0.83439   0.83278   0.38384   0.00000  Uiso   1.00
C549   C     0.85766   0.87617   0.09293   0.00000  Uiso   1.00
C550   C     0.80904   0.79048   0.40706   0.00000  Uiso   1.00
C551   C     0.85753   0.87692   0.04624   0.00000  Uiso   1.00
C552   C     0.80917   0.78974   0.45375   0.00000  Uiso   1.00
C553   C     0.83376   0.83294   0.02334   0.00000  Uiso   1.00
C554   C     0.83294   0.83372   0.47665   0.00000  Uiso   1.00
C555   C     0.81169   0.78795   0.04737   0.00000  Uiso   1.00
C556   C     0.81822   0.73522   0.25114   0.00000  Uiso   1.00
C557   C     0.85499   0.87871   0.45263   0.00000  Uiso   1.00
C558   C     0.87950   0.92148   0.02269   0.00000  Uiso   1.00
C559   C     0.78719   0.74518   0.47731   0.00000  Uiso   1.00
C560   C     0.96123   0.95765   0.04779   0.00000  Uiso   1.00
C561   C     0.70547   0.70903   0.45220   0.00000  Uiso   1.00
C562   C     0.88190   0.97685   0.45394   0.00000  Uiso   1.00
C563   C     0.78477   0.68982   0.04606   0.00000  Uiso   1.00
C564   C     0.98410   0.76934   0.17546   0.00000  Uiso   1.00
C565   C     0.68257   0.89733   0.32454   0.00000  Uiso   1.00
C566   C     0.87370   0.92463   0.47605   0.00000  Uiso   1.00
C567   C     0.79299   0.74203   0.02395   0.00000  Uiso   1.00
C568   C     0.85637   0.98596   0.24816   0.00000  Uiso   1.00
C569   C     0.81030   0.68070   0.25184   0.00000  Uiso   1.00
C570   C     0.83369   0.83300   0.33625   0.00000  Uiso   1.00
C571   C     0.83298   0.83367   0.16374   0.00000  Uiso   1.00
C572   C     0.80792   0.79100   0.09441   0.00000  Uiso   1.00
H573   H     0.78576   0.76090   0.11499   0.00000  Uiso   1.00
H574   H     0.69751   0.74318   0.43188   0.00000  Uiso   1.00
H575   H     0.68375   0.71291   0.48678   0.00000  Uiso   1.00
H576   H     0.68632   0.67377   0.43568   0.00000  Uiso   1.00
H577   H     0.91182   0.71871   0.45708   0.00000  Uiso   1.00
H578   H     0.75483   0.94796   0.04293   0.00000  Uiso   1.00
H579   H     0.98245   0.80508   0.15539   0.00000  Uiso   1.00
H580   H     0.94136   0.74952   0.18235   0.00000  Uiso   1.00
H581   H     0.67703   0.74200   0.15447   0.00000  Uiso   1.00
H582   H     0.72530   0.91715   0.31766   0.00000  Uiso   1.00
H583   H     0.68421   0.86159   0.34461   0.00000  Uiso   1.00
H584   H     0.88087   0.90578   0.38500   0.00000  Uiso   1.00
H585   H     0.98964   0.92467   0.34553   0.00000  Uiso   1.00
H586   H     0.87551   0.90900   0.11185   0.00000  Uiso   1.00
H587   H     0.79121   0.75765   0.38815   0.00000  Uiso   1.00
H588   H     0.89995   0.66949   0.24461   0.00000  Uiso   1.00
H589   H     0.76672   0.99718   0.25539   0.00000  Uiso   1.00
H590   H     0.98293   0.95379   0.01321   0.00000  Uiso   1.00
H591   H     0.96921   0.92349   0.06810   0.00000  Uiso   1.00
H592   H     0.98038   0.99291   0.06432   0.00000  Uiso   1.00
N593   N     0.98344   0.81932   0.23783   0.00000  Uiso   1.00
N594   N     0.68322   0.84735   0.26217   0.00000  Uiso   1.00
O595   O     0.79642   0.91286   0.25298   0.00000  Uiso   1.00
O596   O     0.76431   0.70296   0.45372   0.00000  Uiso   1.00
O597   O     0.85988   0.98458   0.41906   0.00000  Uiso   1.00
O598   O     0.91111   0.68531   0.47461   0.00000  Uiso   1.00
O599   O     0.80677   0.68210   0.08095   0.00000  Uiso   1.00
O600   O     0.75556   0.98136   0.02540   0.00000  Uiso   1.00
O601   O     0.67702   0.78039   0.21554   0.00000  Uiso   1.00
O602   O     0.98964   0.88628   0.28446   0.00000  Uiso   1.00
O603   O     0.87025   0.75381   0.24701   0.00000  Uiso   1.00
O604   O     0.89280   0.90387   0.24518   0.00000  Uiso   1.00
O605   O     0.77387   0.76279   0.25481   0.00000  Uiso   1.00
O606   O     0.78514   0.83784   0.31997   0.00000  Uiso   1.00
O607   O     0.88153   0.82883   0.18002   0.00000  Uiso   1.00
O608   O     0.88152   0.82885   0.31217   0.00000  Uiso   1.00
O609   O     0.78515   0.83781   0.18782   0.00000  Uiso   1.00
O610   O     0.90238   0.96370   0.04628   0.00000  Uiso   1.00
Zn611  Zn    0.76898   0.83933   0.25521   0.00000  Uiso   1.00
Zn612  Zn    0.89769   0.82734   0.24479   0.00000  Uiso   1.00
C613   C     0.18178   0.26478   0.74886   0.00000  Uiso   1.00
C614   C     0.19207   0.20901   0.90559   0.00000  Uiso   1.00
C615   C     0.16562   0.16722   0.61616   0.00000  Uiso   1.00
C616   C     0.16772   0.16612   0.88384   0.00000  Uiso   1.00
C617   C     0.19099   0.20950   0.59293   0.00000  Uiso   1.00
C618   C     0.14238   0.12382   0.90706   0.00000  Uiso   1.00
C619   C     0.19086   0.21025   0.54624   0.00000  Uiso   1.00
C620   C     0.14251   0.12307   0.95375   0.00000  Uiso   1.00
C621   C     0.16709   0.16627   0.52334   0.00000  Uiso   1.00
C622   C     0.16627   0.16706   0.97665   0.00000  Uiso   1.00
C623   C     0.14503   0.12128   0.54737   0.00000  Uiso   1.00
C624   C     0.15155   0.06856   0.75114   0.00000  Uiso   1.00
C625   C     0.18832   0.21205   0.95263   0.00000  Uiso   1.00
C626   C     0.21284   0.25481   0.52269   0.00000  Uiso   1.00
C627   C     0.12053   0.07851   0.97731   0.00000  Uiso   1.00
C628   C     0.29456   0.29098   0.54779   0.00000  Uiso   1.00
C629   C     0.03880   0.04236   0.95220   0.00000  Uiso   1.00
C630   C     0.21523   0.31019   0.95394   0.00000  Uiso   1.00
C631   C     0.11810   0.02315   0.54606   0.00000  Uiso   1.00
C632   C     0.31743   0.10267   0.67546   0.00000  Uiso   1.00
C633   C     0.01590   0.23066   0.82454   0.00000  Uiso   1.00
C634   C     0.20703   0.25797   0.97605   0.00000  Uiso   1.00
C635   C     0.12632   0.07537   0.52395   0.00000  Uiso   1.00
C636   C     0.18970   0.31930   0.74816   0.00000  Uiso   1.00
C637   C     0.14363   0.01404   0.75184   0.00000  Uiso   1.00
C638   C     0.16702   0.16633   0.83625   0.00000  Uiso   1.00
C639   C     0.16631   0.16700   0.66374   0.00000  Uiso   1.00
C640   C     0.14126   0.12433   0.59441   0.00000  Uiso   1.00
H641   H     0.11910   0.09424   0.61499   0.00000  Uiso   1.00
H642   H     0.03085   0.07652   0.93188   0.00000  Uiso   1.00
H643   H     0.01708   0.04624   0.98678   0.00000  Uiso   1.00
H644   H     0.01965   0.00710   0.93568   0.00000  Uiso   1.00
H645   H     0.24516   0.05204   0.95708   0.00000  Uiso   1.00
H646   H     0.08817   0.28130   0.54293   0.00000  Uiso   1.00
H647   H     0.31579   0.13841   0.65539   0.00000  Uiso   1.00
H648   H     0.27470   0.08285   0.68235   0.00000  Uiso   1.00
H649   H     0.01036   0.07533   0.65447   0.00000  Uiso   1.00
H650   H     0.05864   0.25048   0.81766   0.00000  Uiso   1.00
H651   H     0.01755   0.19492   0.84461   0.00000  Uiso   1.00
H652   H     0.21420   0.23911   0.88500   0.00000  Uiso   1.00
H653   H     0.32297   0.25800   0.84553   0.00000  Uiso   1.00
H654   H     0.20885   0.24233   0.61185   0.00000  Uiso   1.00
H655   H     0.12454   0.09098   0.88815   0.00000  Uiso   1.00
H656   H     0.23328   0.00282   0.74461   0.00000  Uiso   1.00
H657   H     0.10005   0.33051   0.75539   0.00000  Uiso   1.00
H658   H     0.31626   0.28712   0.51321   0.00000  Uiso   1.00
H659   H     0.30255   0.25682   0.56810   0.00000  Uiso   1.00
H660   H     0.31371   0.32624   0.56432   0.00000  Uiso   1.00
N661   N     0.31678   0.15265   0.73783   0.00000  Uiso   1.00
N662   N     0.01656   0.18068   0.76217   0.00000  Uiso   1.00
O663   O     0.12975   0.24619   0.75298   0.00000  Uiso   1.00
O664   O     0.09764   0.03629   0.95372   0.00000  Uiso   1.00
O665   O     0.19321   0.31791   0.91906   0.00000  Uiso   1.00
O666   O     0.24445   0.01864   0.97461   0.00000  Uiso   1.00
O667   O     0.14011   0.01543   0.58095   0.00000  Uiso   1.00
O668   O     0.08889   0.31469   0.52540   0.00000  Uiso   1.00
O669   O     0.01036   0.11372   0.71554   0.00000  Uiso   1.00
O670   O     0.32298   0.21962   0.78446   0.00000  Uiso   1.00
O671   O     0.20358   0.08714   0.74701   0.00000  Uiso   1.00
O672   O     0.22613   0.23721   0.74518   0.00000  Uiso   1.00
O673   O     0.10720   0.09613   0.75481   0.00000  Uiso   1.00
O674   O     0.11847   0.17117   0.81997   0.00000  Uiso   1.00
O675   O     0.21486   0.16216   0.68002   0.00000  Uiso   1.00
O676   O     0.21485   0.16219   0.81217   0.00000  Uiso   1.00
O677   O     0.11848   0.17115   0.68782   0.00000  Uiso   1.00
O678   O     0.23571   0.29704   0.54628   0.00000  Uiso   1.00
Zn679  Zn    0.10231   0.17266   0.75521   0.00000  Uiso   1.00
Zn680  Zn    0.23102   0.16067   0.74479   0.00000  Uiso   1.00
C681   C     0.51511   0.26478   0.74886   0.00000  Uiso   1.00
C682   C     0.52540   0.20901   0.90559   0.00000  Uiso   1.00
C683   C     0.49895   0.16722   0.61616   0.00000  Uiso   1.00
C684   C     0.50105   0.16612   0.88384   0.00000  Uiso   1.00
C685   C     0.52433   0.20950   0.59293   0.00000  Uiso   1.00
C686   C     0.47571   0.12382   0.90706   0.00000  Uiso   1.00
C687   C     0.52419   0.21025   0.54624   0.00000  Uiso   1.00
C688   C     0.47584   0.12307   0.95375   0.00000  Uiso   1.00
C689   C     0.50042   0.16627   0.52334   0.00000  Uiso   1.00
C690   C     0.49960   0.16706   0.97665   0.00000  Uiso   1.00
C691   C     0.47836   0.12128   0.54737   0.00000  Uiso   1.00
C692   C     0.48489   0.06856   0.75114   0.00000  Uiso   1.00
C693   C     0.52165   0.21205   0.95263   0.00000  Uiso   1.00
C694   C     0.54617   0.25481   0.52269   0.00000  Uiso   1.00
C695   C     0.45386   0.07851   0.97731   0.00000  Uiso   1.00
C696   C     0.62790   0.29098   0.54779   0.00000  Uiso   1.00
C697   C     0.37213   0.04236   0.95220   0.00000  Uiso   1.00
C698   C     0.54857   0.31019   0.95394   0.00000  Uiso   1.00
C699   C     0.45143   0.02315   0.54606   0.00000  Uiso   1.00
C700   C     0.65077   0.10267   0.67546   0.00000  Uiso   1.00
C701   C     0.34923   0.23066   0.82454   0.00000  Uiso   1.00
C702   C     0.54036   0.25797   0.97605   0.00000  Uiso   1.00
C703   C     0.45965   0.07537   0.52395   0.00000  Uiso   1.00
C704   C     0.52304   0.31930   0.74816   0.00000  Uiso   1.00
C705   C     0.47696   0.01404   0.75184   0.00000  Uiso   1.00
C706   C     0.50036   0.16633   0.83625   0.00000  Uiso   1.00
C707   C     0.49964   0.16700   0.66374   0.00000  Uiso   1.00
C708   C     0.47459   0.12433   0.59441   0.00000  Uiso   1.00
H709   H     0.45243   0.09424   0.61499   0.00000  Uiso   1.00
H710   H     0.36418   0.07652   0.93188   0.00000  Uiso   1.00
H711   H     0.35042   0.04624   0.98678   0.00000  Uiso   1.00
H712   H     0.35299   0.00710   0.93568   0.00000  Uiso   1.00
H713   H     0.57849   0.05204   0.95708   0.00000  Uiso   1.00
H714   H     0.42150   0.28130   0.54293   0.00000  Uiso   1.00
H715   H     0.64912   0.13841   0.65539   0.00000  Uiso   1.00
H716   H     0.60803   0.08285   0.68235   0.00000  Uiso   1.00
H717   H     0.34369   0.07533   0.65447   0.00000  Uiso   1.00
H718   H     0.39197   0.25048   0.81766   0.00000  Uiso   1.00
H719   H     0.35088   0.19492   0.84461   0.00000  Uiso   1.00
H720   H     0.54753   0.23911   0.88500   0.00000  Uiso   1.00
H721   H     0.65631   0.25800   0.84553   0.00000  Uiso   1.00
H722   H     0.54218   0.24233   0.61185   0.00000  Uiso   1.00
H723   H     0.45788   0.09098   0.88815   0.00000  Uiso   1.00
H724   H     0.56662   0.00282   0.74461   0.00000  Uiso   1.00
H725   H     0.43338   0.33051   0.75539   0.00000  Uiso   1.00
H726   H     0.64960   0.28712   0.51321   0.00000  Uiso   1.00
H727   H     0.63588   0.25682   0.56810   0.00000  Uiso   1.00
H728   H     0.64704   0.32624   0.56432   0.00000  Uiso   1.00
N729   N     0.65011   0.15265   0.73783   0.00000  Uiso   1.00
N730   N     0.34989   0.18068   0.76217   0.00000  Uiso   1.00
O731   O     0.46308   0.24619   0.75298   0.00000  Uiso   1.00
O732   O     0.43098   0.03629   0.95372   0.00000  Uiso   1.00
O733   O     0.52655   0.31791   0.91906   0.00000  Uiso   1.00
O734   O     0.57778   0.01864   0.97461   0.00000  Uiso   1.00
O735   O     0.47344   0.01543   0.58095   0.00000  Uiso   1.00
O736   O     0.42223   0.31469   0.52540   0.00000  Uiso   1.00
O737   O     0.34369   0.11372   0.71554   0.00000  Uiso   1.00
O738   O     0.65631   0.21962   0.78446   0.00000  Uiso   1.00
O739   O     0.53692   0.08714   0.74701   0.00000  Uiso   1.00
O740   O     0.55946   0.23721   0.74518   0.00000  Uiso   1.00
O741   O     0.44054   0.09613   0.75481   0.00000  Uiso   1.00
O742   O     0.45181   0.17117   0.81997   0.00000  Uiso   1.00
O743   O     0.54819   0.16216   0.68002   0.00000  Uiso   1.00
O744   O     0.54819   0.16219   0.81217   0.00000  Uiso   1.00
O745   O     0.45181   0.17115   0.68782   0.00000  Uiso   1.00
O746   O     0.56904   0.29704   0.54628   0.00000  Uiso   1.00
Zn747  Zn    0.43565   0.17266   0.75521   0.00000  Uiso   1.00
Zn748  Zn    0.56435   0.16067   0.74479   0.00000  Uiso   1.00
C749   C     0.84845   0.26478   0.74886   0.00000  Uiso   1.00
C750   C     0.85873   0.20901   0.90559   0.00000  Uiso   1.00
C751   C     0.83228   0.16722   0.61616   0.00000  Uiso   1.00
C752   C     0.83439   0.16612   0.88384   0.00000  Uiso   1.00
C753   C     0.85766   0.20950   0.59293   0.00000  Uiso   1.00
C754   C     0.80904   0.12382   0.90706   0.00000  Uiso   1.00
C755   C     0.85753   0.21025   0.54624   0.00000  Uiso   1.00
C756   C     0.80917   0.12307   0.95375   0.00000  Uiso   1.00
C757   C     0.83376   0.16627   0.52334   0.00000  Uiso   1.00
C758   C     0.83294   0.16706   0.97665   0.00000  Uiso   1.00
C759   C     0.81169   0.12128   0.54737   0.00000  Uiso   1.00
C760   C     0.81822   0.06856   0.75114   0.00000  Uiso   1.00
C761   C     0.85499   0.21205   0.95263   0.00000  Uiso   1.00
C762   C     0.87950   0.25481   0.52269   0.00000  Uiso   1.00
C763   C     0.78719   0.07851   0.97731   0.00000  Uiso   1.00
C764   C     0.96123   0.29098   0.54779   0.00000  Uiso   1.00
C765   C     0.70547   0.04236   0.95220   0.00000  Uiso   1.00
C766   C     0.88190   0.31019   0.95394   0.00000  Uiso   1.00
C767   C     0.78477   0.02315   0.54606   0.00000  Uiso   1.00
C768   C     0.98410   0.10267   0.67546   0.00000  Uiso   1.00
C769   C     0.68257   0.23066   0.82454   0.00000  Uiso   1.00
C770   C     0.87370   0.25797   0.97605   0.00000  Uiso   1.00
C771   C     0.79299   0.07537   0.52395   0.00000  Uiso   1.00
C772   C     0.85637   0.31930   0.74816   0.00000  Uiso   1.00
C773   C     0.81030   0.01404   0.75184   0.00000  Uiso   1.00
C774   C     0.83369   0.16633   0.83625   0.00000  Uiso   1.00
C775   C     0.83298   0.16700   0.66374   0.00000  Uiso   1.00
C776   C     0.80792   0.12433   0.59441   0.00000  Uiso   1.00
H777   H     0.78576   0.09424   0.61499   0.00000  Uiso   1.00
H778   H     0.69751   0.07652   0.93188   0.00000  Uiso   1.00
H779   H     0.68375   0.04624   0.98678   0.00000  Uiso   1.00
H780   H     0.68632   0.00710   0.93568   0.00000  Uiso   1.00
H781   H     0.91182   0.05204   0.95708   0.00000  Uiso   1.00
H782   H     0.75483   0.28130   0.54293   0.00000  Uiso   1.00
H783   H     0.98245   0.13841   0.65539   0.00000  Uiso   1.00
H784   H     0.94136   0.08285   0.68235   0.00000  Uiso   1.00
H785   H     0.67703   0.07533   0.65447   0.00000  Uiso   1.00
H786   H     0.72530   0.25048   0.81766   0.00000  Uiso   1.00
H787   H     0.68421   0.19492   0.84461   0.00000  Uiso   1.00
H788   H     0.88087   0.23911   0.88500   0.00000  Uiso   1.00
H789   H     0.98964   0.25800   0.84553   0.00000  Uiso   1.00
H790   H     0.87551   0.24233   0.61185   0.00000  Uiso   1.00
H791   H     0.79121   0.09098   0.88815   0.00000  Uiso   1.00
H792   H     0.89995   0.00282   0.74461   0.00000  Uiso   1.00
H793   H     0.76672   0.33051   0.75539   0.00000  Uiso   1.00
H794   H     0.98293   0.28712   0.51321   0.00000  Uiso   1.00
H795   H     0.96921   0.25682   0.56810   0.00000  Uiso   1.00
H796   H     0.98038   0.32624   0.56432   0.00000  Uiso   1.00
N797   N     0.98344   0.15265   0.73783   0.00000  Uiso   1.00
N798   N     0.68322   0.18068   0.76217   0.00000  Uiso   1.00
O799   O     0.79642   0.24619   0.75298   0.00000  Uiso   1.00
O800   O     0.76431   0.03629   0.95372   0.00000  Uiso   1.00
O801   O     0.85988   0.31791   0.91906   0.00000  Uiso   1.00
O802   O     0.91111   0.01864   0.97461   0.00000  Uiso   1.00
O803   O     0.80677   0.01543   0.58095   0.00000  Uiso   1.00
O804   O     0.75556   0.31469   0.52540   0.00000  Uiso   1.00
O805   O     0.67702   0.11372   0.71554   0.00000  Uiso   1.00
O806   O     0.98964   0.21962   0.78446   0.00000  Uiso   1.00
O807   O     0.87025   0.08714   0.74701   0.00000  Uiso   1.00
O808   O     0.89280   0.23721   0.74518   0.00000  Uiso   1.00
O809   O     0.77387   0.09613   0.75481   0.00000  Uiso   1.00
O810   O     0.78514   0.17117   0.81997   0.00000  Uiso   1.00
O811   O     0.88153   0.16216   0.68002   0.00000  Uiso   1.00
O812   O     0.88152   0.16219   0.81217   0.00000  Uiso   1.00
O813   O     0.78515   0.17115   0.68782   0.00000  Uiso   1.00
O814   O     0.90238   0.29704   0.54628   0.00000  Uiso   1.00
Zn815  Zn    0.76898   0.17266   0.75521   0.00000  Uiso   1.00
Zn816  Zn    0.89769   0.16067   0.74479   0.00000  Uiso   1.00
C817   C     0.18178   0.59811   0.74886   0.00000  Uiso   1.00
C818   C     0.19207   0.54234   0.90559   0.00000  Uiso   1.00
C819   C     0.16562   0.50055   0.61616   0.00000  Uiso   1.00
C820   C     0.16772   0.49945   0.88384   0.00000  Uiso   1.00
C821   C     0.19099   0.54284   0.59293   0.00000  Uiso   1.00
C822   C     0.14238   0.45715   0.90706   0.00000  Uiso   1.00
C823   C     0.19086   0.54359   0.54624   0.00000  Uiso   1.00
C824   C     0.14251   0.45640   0.95375   0.00000  Uiso   1.00
C825   C     0.16709   0.49960   0.52334   0.00000  Uiso   1.00
C826   C     0.16627   0.50039   0.97665   0.00000  Uiso   1.00
C827   C     0.14503   0.45462   0.54737   0.00000  Uiso   1.00
C828   C     0.15155   0.40189   0.75114   0.00000  Uiso   1.00
C829   C     0.18832   0.54538   0.95263   0.00000  Uiso   1.00
C830   C     0.21284   0.58815   0.52269   0.00000  Uiso   1.00
C831   C     0.12053   0.41185   0.97731   0.00000  Uiso   1.00
C832   C     0.29456   0.62432   0.54779   0.00000  Uiso   1.00
C833   C     0.03880   0.37569   0.95220   0.00000  Uiso   1.00
C834   C     0.21523   0.64352   0.95394   0.00000  Uiso   1.00
C835   C     0.11810   0.35648   0.54606   0.00000  Uiso   1.00
C836   C     0.31743   0.43601   0.67546   0.00000  Uiso   1.00
C837   C     0.01590   0.56399   0.82454   0.00000  Uiso   1.00
C838   C     0.20703   0.59130   0.97605   0.00000  Uiso   1.00
C839   C     0.12632   0.40870   0.52395   0.00000  Uiso   1.00
C840   C     0.18970   0.65263   0.74816   0.00000  Uiso   1.00
C841   C     0.14363   0.34737   0.75184   0.00000  Uiso   1.00
C842   C     0.16702   0.49967   0.83625   0.00000  Uiso   1.00
C843   C     0.16631   0.50033   0.66374   0.00000  Uiso   1.00
C844   C     0.14126   0.45766   0.59441   0.00000  Uiso   1.00
H845   H     0.11910   0.42757   0.61499   0.00000  Uiso   1.00
H846   H     0.03085   0.40985   0.93188   0.00000  Uiso   1.00
H847   H     0.01708   0.37957   0.98678   0.00000  Uiso   1.00
H848   H     0.01965   0.34043   0.93568   0.00000  Uiso   1.00
H849   H     0.24516   0.38537   0.95708   0.00000  Uiso   1.00
H850   H     0.08817   0.61463   0.54293   0.00000  Uiso   1.00
H851   H     0.31579   0.47175   0.65539   0.00000  Uiso   1.00
H852   H     0.27470   0.41619   0.68235   0.00000  Uiso   1.00
H853   H     0.01036   0.40867   0.65447   0.00000  Uiso   1.00
H854   H     0.05864   0.58381   0.81766   0.00000  Uiso   1.00
H855   H     0.01755   0.52825   0.84461   0.00000  Uiso   1.00
H856   H     0.21420   0.57244   0.88500   0.00000  Uiso   1.00
H857   H     0.32297   0.59133   0.84553   0.00000  Uiso   1.00
H858   H     0.20885   0.57566   0.61185   0.00000  Uiso   1.00
H859   H     0.12454   0.42432   0.88815   0.00000  Uiso   1.00
H860   H     0.23328   0.33615   0.74461   0.00000  Uiso   1.00
H861   H     0.10005   0.66385   0.75539   0.00000  Uiso   1.00
H862   H     0.31626   0.62046   0.51321   0.00000  Uiso   1.00
H863   H     0.30255   0.59015   0.56810   0.00000  Uiso   1.00
H864   H     0.31371   0.65957   0.56432   0.00000  Uiso   1.00
N865   N     0.31678   0.48598   0.73783   0.00000  Uiso   1.00
N866   N     0.01656   0.51402   0.76217   0.00000  Uiso   1.00
O867   O     0.12975   0.57952   0.75298   0.00000  Uiso   1.00
O868   O     0.09764   0.36963   0.95372   0.00000  Uiso   1.00
O869   O     0.19321   0.65125   0.91906   0.00000  Uiso   1.00
O870   O     0.24445   0.35198   0.97461   0.00000  Uiso   1.00
O871   O     0.14011   0.34876   0.58095   0.00000  Uiso   1.00
O872   O     0.08889   0.64802   0.52540   0.00000  Uiso   1.00
O873   O     0.01036   0.44705   0.71554   0.00000  Uiso   1.00
O874   O     0.32298   0.55295   0.78446   0.00000  Uiso   1.00
O875   O     0.20358   0.42048   0.74701   0.00000  Uiso   1.00
O876   O     0.22613   0.57054   0.74518   0.00000  Uiso   1.00
O877   O     0.10720   0.42946   0.75481   0.00000  Uiso   1.00
O878   O     0.11847   0.50450   0.81997   0.00000  Uiso   1.00
O879   O     0.21486   0.49550   0.68002   0.00000  Uiso   1.00
O880   O     0.21485   0.49552   0.81217   0.00000  Uiso   1.00
O881   O     0.11848   0.50448   0.68782   0.00000  Uiso   1.00
O882   O     0.23571   0.63037   0.54628   0.00000  Uiso   1.00
Zn883  Zn    0.10231   0.50600   0.75521   0.00000  Uiso   1.00
Zn884  Zn    0.23102   0.49400   0.74479   0.00000  Uiso   1.00
C885   C     0.51511   0.59811   0.74886   0.00000  Uiso   1.00
C886   C     0.52540   0.54234   0.90559   0.00000  Uiso   1.00
C887   C     0.49895   0.50055   0.61616   0.00000  Uiso   1.00
C888   C     0.50105   0.49945   0.88384   0.00000  Uiso   1.00
C889   C     0.52433   0.54284   0.59293   0.00000  Uiso   1.00
C890   C     0.47571   0.45715   0.90706   0.00000  Uiso   1.00
C891   C     0.52419   0.54359   0.54624   0.00000  Uiso   1.00
C892   C     0.47584   0.45640   0.95375   0.00000  Uiso   1.00
C893   C     0.50042   0.49960   0.52334   0.00000  Uiso   1.00
C894   C     0.49960   0.50039   0.97665   0.00000  Uiso   1.00
C895   C     0.47836   0.45462   0.54737   0.00000  Uiso   1.00
C896   C     0.48489   0.40189   0.75114   0.00000  Uiso   1.00
C897   C     0.52165   0.54538   0.95263   0.00000  Uiso   1.00
C898   C     0.54617   0.58815   0.52269   0.00000  Uiso   1.00
C899   C     0.45386   0.41185   0.97731   0.00000  Uiso   1.00
C900   C     0.62790   0.62432   0.54779   0.00000  Uiso   1.00
C901   C     0.37213   0.37569   0.95220   0.00000  Uiso   1.00
C902   C     0.54857   0.64352   0.95394   0.00000  Uiso   1.00
C903   C     0.45143   0.35648   0.54606   0.00000  Uiso   1.00
C904   C     0.65077   0.43601   0.67546   0.00000  Uiso   1.00
C905   C     0.34923   0.56399   0.82454   0.00000  Uiso   1.00
C906   C     0.54036   0.59130   0.97605   0.00000  Uiso   1.00
C907   C     0.45965   0.40870   0.52395   0.00000  Uiso   1.00
C908   C     0.52304   0.65263   0.74816   0.00000  Uiso   1.00
C909   C     0.47696   0.34737   0.75184   0.00000  Uiso   1.00
C910   C     0.50036   0.49967   0.83625   0.00000  Uiso   1.00
C911   C     0.49964   0.50033   0.66374   0.00000  Uiso   1.00
C912   C     0.47459   0.45766   0.59441   0.00000  Uiso   1.00
H913   H     0.45243   0.42757   0.61499   0.00000  Uiso   1.00
H914   H     0.36418   0.40985   0.93188   0.00000  Uiso   1.00
H915   H     0.35042   0.37957   0.98678   0.00000  Uiso   1.00
H916   H     0.35299   0.34043   0.93568   0.00000  Uiso   1.00
H917   H     0.57849   0.38537   0.95708   0.00000  Uiso   1.00
H918   H     0.42150   0.61463   0.54293   0.00000  Uiso   1.00
H919   H     0.64912   0.47175   0.65539   0.00000  Uiso   1.00
H920   H     0.60803   0.41619   0.68235   0.00000  Uiso   1.00
H921   H     0.34369   0.40867   0.65447   0.00000  Uiso   1.00
H922   H     0.39197   0.58381   0.81766   0.00000  Uiso   1.00
H923   H     0.35088   0.52825   0.84461   0.00000  Uiso   1.00
H924   H     0.54753   0.57244   0.88500   0.00000  Uiso   1.00
H925   H     0.65631   0.59133   0.84553   0.00000  Uiso   1.00
H926   H     0.54218   0.57566   0.61185   0.00000  Uiso   1.00
H927   H     0.45788   0.42432   0.88815   0.00000  Uiso   1.00
H928   H     0.56662   0.33615   0.74461   0.00000  Uiso   1.00
H929   H     0.43338   0.66385   0.75539   0.00000  Uiso   1.00
H930   H     0.64960   0.62046   0.51321   0.00000  Uiso   1.00
H931   H     0.63588   0.59015   0.56810   0.00000  Uiso   1.00
H932   H     0.64704   0.65957   0.56432   0.00000  Uiso   1.00
N933   N     0.65011   0.48598   0.73783   0.00000  Uiso   1.00
N934   N     0.34989   0.51402   0.76217   0.00000  Uiso   1.00
O935   O     0.46308   0.57952   0.75298   0.00000  Uiso   1.00
O936   O     0.43098   0.36963   0.95372   0.00000  Uiso   1.00
O937   O     0.52655   0.65125   0.91906   0.00000  Uiso   1.00
O938   O     0.57778   0.35198   0.97461   0.00000  Uiso   1.00
O939   O     0.47344   0.34876   0.58095   0.00000  Uiso   1.00
O940   O     0.42223   0.64802   0.52540   0.00000  Uiso   1.00
O941   O     0.34369   0.44705   0.71554   0.00000  Uiso   1.00
O942   O     0.65631   0.55295   0.78446   0.00000  Uiso   1.00
O943   O     0.53692   0.42048   0.74701   0.00000  Uiso   1.00
O944   O     0.55946   0.57054   0.74518   0.00000  Uiso   1.00
O945   O     0.44054   0.42946   0.75481   0.00000  Uiso   1.00
O946   O     0.45181   0.50450   0.81997   0.00000  Uiso   1.00
O947   O     0.54819   0.49550   0.68002   0.00000  Uiso   1.00
O948   O     0.54819   0.49552   0.81217   0.00000  Uiso   1.00
O949   O     0.45181   0.50448   0.68782   0.00000  Uiso   1.00
O950   O     0.56904   0.63037   0.54628   0.00000  Uiso   1.00
Zn951  Zn    0.43565   0.50600   0.75521   0.00000  Uiso   1.00
Zn952  Zn    0.56435   0.49400   0.74479   0.00000  Uiso   1.00
C953   C     0.84845   0.59811   0.74886   0.00000  Uiso   1.00
C954   C     0.85873   0.54234   0.90559   0.00000  Uiso   1.00
C955   C     0.83228   0.50055   0.61616   0.00000  Uiso   1.00
C956   C     0.83439   0.49945   0.88384   0.00000  Uiso   1.00
C957   C     0.85766   0.54284   0.59293   0.00000  Uiso   1.00
C958   C     0.80904   0.45715   0.90706   0.00000  Uiso   1.00
C959   C     0.85753   0.54359   0.54624   0.00000  Uiso   1.00
C960   C     0.80917   0.45640   0.95375   0.00000  Uiso   1.00
C961   C     0.83376   0.49960   0.52334   0.00000  Uiso   1.00
C962   C     0.83294   0.50039   0.97665   0.00000  Uiso   1.00
C963   C     0.81169   0.45462   0.54737   0.00000  Uiso   1.00
C964   C     0.81822   0.40189   0.75114   0.00000  Uiso   1.00
C965   C     0.85499   0.54538   0.95263   0.00000  Uiso   1.00
C966   C     0.87950   0.58815   0.52269   0.00000  Uiso   1.00
C967   C     0.78719   0.41185   0.97731   0.00000  Uiso   1.00
C968   C     0.96123   0.62432   0.54779   0.00000  Uiso   1.00
C969   C     0.70547   0.37569   0.95220   0.00000  Uiso   1.00
C970   C     0.88190   0.64352   0.95394   0.00000  Uiso   1.00
C971   C     0.78477   0.35648   0.54606   0.00000  Uiso   1.00
C972   C     0.98410   0.43601   0.67546   0.00000  Uiso   1.00
C973   C     0.68257   0.56399   0.82454   0.00000  Uiso   1.00
C974   C     0.87370   0.59130   0.97605   0.00000  Uiso   1.00
C975   C     0.79299   0.40870   0.52395   0.00000  Uiso   1.00
C976   C     0.85637   0.65263   0.74816   0.00000  Uiso   1.00
C977   C     0.81030   0.34737   0.75184   0.00000  Uiso   1.00
C978   C     0.83369   0.49967   0.83625   0.00000  Uiso   1.00
C979   C     0.83298   0.50033   0.66374   0.00000  Uiso   1.00
C980   C     0.80792   0.45766   0.59441   0.00000  Uiso   1.00
H981   H     0.78576   0.42757   0.61499   0.00000  Uiso   1.00
H982   H     0.69751   0.40985   0.93188   0.00000  Uiso   1.00
H983   H     0.68375   0.37957   0.98678   0.00000  Uiso   1.00
H984   H     0.68632   0.34043   0.93568   0.00000  Uiso   1.00
H985   H     0.91182   0.38537   0.95708   0.00000  Uiso   1.00
H986   H     0.75483   0.61463   0.54293   0.00000  Uiso   1.00
H987   H     0.98245   0.47175   0.65539   0.00000  Uiso   1.00
H988   H     0.94136   0.41619   0.68235   0.00000  Uiso   1.00
H989   H     0.67703   0.40867   0.65447   0.00000  Uiso   1.00
H990   H     0.72530   0.58381   0.81766   0.00000  Uiso   1.00
H991   H     0.68421   0.52825   0.84461   0.00000  Uiso   1.00
H992   H     0.88087   0.57244   0.88500   0.00000  Uiso   1.00
H993   H     0.98964   0.59133   0.84553   0.00000  Uiso   1.00
H994   H     0.87551   0.57566   0.61185   0.00000  Uiso   1.00
H995   H     0.79121   0.42432   0.88815   0.00000  Uiso   1.00
H996   H     0.89995   0.33615   0.74461   0.00000  Uiso   1.00
H997   H     0.76672   0.66385   0.75539   0.00000  Uiso   1.00
H998   H     0.98293   0.62046   0.51321   0.00000  Uiso   1.00
H999   H     0.96921   0.59015   0.56810   0.00000  Uiso   1.00
H1000  H     0.98038   0.65957   0.56432   0.00000  Uiso   1.00
N1001  N     0.98344   0.48598   0.73783   0.00000  Uiso   1.00
N1002  N     0.68322   0.51402   0.76217   0.00000  Uiso   1.00
O1003  O     0.79642   0.57952   0.75298   0.00000  Uiso   1.00
O1004  O     0.76431   0.36963   0.95372   0.00000  Uiso   1.00
O1005  O     0.85988   0.65125   0.91906   0.00000  Uiso   1.00
O1006  O     0.91111   0.35198   0.97461   0.00000  Uiso   1.00
O1007  O     0.80677   0.34876   0.58095   0.00000  Uiso   1.00
O1008  O     0.75556   0.64802   0.52540   0.00000  Uiso   1.00
O1009  O     0.67702   0.44705   0.71554   0.00000  Uiso   1.00
O1010  O     0.98964   0.55295   0.78446   0.00000  Uiso   1.00
O1011  O     0.87025   0.42048   0.74701   0.00000  Uiso   1.00
O1012  O     0.89280   0.57054   0.74518   0.00000  Uiso   1.00
O1013  O     0.77387   0.42946   0.75481   0.00000  Uiso   1.00
O1014  O     0.78514   0.50450   0.81997   0.00000  Uiso   1.00
O1015  O     0.88153   0.49550   0.68002   0.00000  Uiso   1.00
O1016  O     0.88152   0.49552   0.81217   0.00000  Uiso   1.00
O1017  O     0.78515   0.50448   0.68782   0.00000  Uiso   1.00
O1018  O     0.90238   0.63037   0.54628   0.00000  Uiso   1.00
Zn1019 Zn    0.76898   0.50600   0.75521   0.00000  Uiso   1.00
Zn1020 Zn    0.89769   0.49400   0.74479   0.00000  Uiso   1.00
C1021  C     0.18178   0.93144   0.74886   0.00000  Uiso   1.00
C1022  C     0.19207   0.87568   0.90559   0.00000  Uiso   1.00
C1023  C     0.16562   0.83388   0.61616   0.00000  Uiso   1.00
C1024  C     0.16772   0.83278   0.88384   0.00000  Uiso   1.00
C1025  C     0.19099   0.87617   0.59293   0.00000  Uiso   1.00
C1026  C     0.14238   0.79048   0.90706   0.00000  Uiso   1.00
C1027  C     0.19086   0.87692   0.54624   0.00000  Uiso   1.00
C1028  C     0.14251   0.78974   0.95375   0.00000  Uiso   1.00
C1029  C     0.16709   0.83294   0.52334   0.00000  Uiso   1.00
C1030  C     0.16627   0.83372   0.97665   0.00000  Uiso   1.00
C1031  C     0.14503   0.78795   0.54737   0.00000  Uiso   1.00
C1032  C     0.15155   0.73522   0.75114   0.00000  Uiso   1.00
C1033  C     0.18832   0.87871   0.95263   0.00000  Uiso   1.00
C1034  C     0.21284   0.92148   0.52269   0.00000  Uiso   1.00
C1035  C     0.12053   0.74518   0.97731   0.00000  Uiso   1.00
C1036  C     0.29456   0.95765   0.54779   0.00000  Uiso   1.00
C1037  C     0.03880   0.70903   0.95220   0.00000  Uiso   1.00
C1038  C     0.21523   0.97685   0.95394   0.00000  Uiso   1.00
C1039  C     0.11810   0.68982   0.54606   0.00000  Uiso   1.00
C1040  C     0.31743   0.76934   0.67546   0.00000  Uiso   1.00
C1041  C     0.01590   0.89733   0.82454   0.00000  Uiso   1.00
C1042  C     0.20703   0.92463   0.97605   0.00000  Uiso   1.00
C1043  C     0.12632   0.74203   0.52395   0.00000  Uiso   1.00
C1044  C     0.18970   0.98596   0.74816   0.00000  Uiso   1.00
C1045  C     0.14363   0.68070   0.75184   0.00000  Uiso   1.00
C1046  C     0.16702   0.83300   0.83625   0.00000  Uiso   1.00
C1047  C     0.16631   0.83367   0.66374   0.00000  Uiso   1.00
C1048  C     0.14126   0.79100   0.59441   0.00000  Uiso   1.00
H1049  H     0.11910   0.76090   0.61499   0.00000  Uiso   1.00
H1050  H     0.03085   0.74318   0.93188   0.00000  Uiso   1.00
H1051  H     0.01708   0.71291   0.98678   0.00000  Uiso   1.00
H1052  H     0.01965   0.67377   0.93568   0.00000  Uiso   1.00
H1053  H     0.24516   0.71871   0.95708   0.00000  Uiso   1.00
H1054  H     0.08817   0.94796   0.54293   0.00000  Uiso   1.00
H1055  H     0.31579   0.80508   0.65539   0.00000  Uiso   1.00
H1056  H     0.27470   0.74952   0.68235   0.00000  Uiso   1.00
H1057  H     0.01036   0.74200   0.65447   0.00000  Uiso   1.00
H1058  H     0.05864   0.91715   0.81766   0.00000  Uiso   1.00
H1059  H     0.01755   0.86159   0.84461   0.00000  Uiso   1.00
H1060  H     0.21420   0.90578   0.88500   0.00000  Uiso   1.00
H1061  H     0.32297   0.92467   0.84553   0.00000  Uiso   1.00
H1062  H     0.20885   0.90900   0.61185   0.00000  Uiso   1.00
H1063  H     0.12454   0.75765   0.88815   0.00000  Uiso   1.00
H1064  H     0.23328   0.66949   0.74461   0.00000  Uiso   1.00
H1065  H     0.10005   0.99718   0.75539   0.00000  Uiso   1.00
H1066  H     0.31626   0.95379   0.51321   0.00000  Uiso   1.00
H1067  H     0.30255   0.92349   0.56810   0.00000  Uiso   1.00
H1068  H     0.31371   0.99291   0.56432   0.00000  Uiso   1.00
N1069  N     0.31678   0.81932   0.73783   0.00000  Uiso   1.00
N1070  N     0.01656   0.84735   0.76217   0.00000  Uiso   1.00
O1071  O     0.12975   0.91286   0.75298   0.00000  Uiso   1.00
O1072  O     0.09764   0.70296   0.95372   0.00000  Uiso   1.00
O1073  O     0.19321   0.98458   0.91906   0.00000  Uiso   1.00
O1074  O     0.24445   0.68531   0.97461   0.00000  Uiso   1.00
O1075  O     0.14011   0.68210   0.58095   0.00000  Uiso   1.00
O1076  O     0.08889   0.98136   0.52540   0.00000  Uiso   1.00
O1077  O     0.01036   0.78039   0.71554   0.00000  Uiso   1.00
O1078  O     0.32298   0.88628   0.78446   0.00000  Uiso   1.00
O1079  O     0.20358   0.75381   0.74701   0.00000  Uiso   1.00
O1080  O     0.22613   0.90387   0.74518   0.00000  Uiso   1.00
O1081  O     0.10720   0.76279   0.75481   0.00000  Uiso   1.00
O1082  O     0.11847   0.83784   0.81997   0.00000  Uiso   1.00
O1083  O     0.21486   0.82883   0.68002   0.00000  Uiso   1.00
O1084  O     0.21485   0.82885   0.81217   0.00000  Uiso   1.00
O1085  O     0.11848   0.83781   0.68782   0.00000  Uiso   1.00
O1086  O     0.23571   0.96370   0.54628   0.00000  Uiso   1.00
Zn1087 Zn    0.10231   0.83933   0.75521   0.00000  Uiso   1.00
Zn1088 Zn    0.23102   0.82734   0.74479   0.00000  Uiso   1.00
C1089  C     0.51511   0.93144   0.74886   0.00000  Uiso   1.00
C1090  C     0.52540   0.87568   0.90559   0.00000  Uiso   1.00
C1091  C     0.49895   0.83388   0.61616   0.00000  Uiso   1.00
C1092  C     0.50105   0.83278   0.88384   0.00000  Uiso   1.00
C1093  C     0.52433   0.87617   0.59293   0.00000  Uiso   1.00
C1094  C     0.47571   0.79048   0.90706   0.00000  Uiso   1.00
C1095  C     0.52419   0.87692   0.54624   0.00000  Uiso   1.00
C1096  C     0.47584   0.78974   0.95375   0.00000  Uiso   1.00
C1097  C     0.50042   0.83294   0.52334   0.00000  Uiso   1.00
C1098  C     0.49960   0.83372   0.97665   0.00000  Uiso   1.00
C1099  C     0.47836   0.78795   0.54737   0.00000  Uiso   1.00
C1100  C     0.48489   0.73522   0.75114   0.00000  Uiso   1.00
C1101  C     0.52165   0.87871   0.95263   0.00000  Uiso   1.00
C1102  C     0.54617   0.92148   0.52269   0.00000  Uiso   1.00
C1103  C     0.45386   0.74518   0.97731   0.00000  Uiso   1.00
C1104  C     0.62790   0.95765   0.54779   0.00000  Uiso   1.00
C1105  C     0.37213   0.70903   0.95220   0.00000  Uiso   1.00
C1106  C     0.54857   0.97685   0.95394   0.00000  Uiso   1.00
C1107  C     0.45143   0.68982   0.54606   0.00000  Uiso   1.00
C1108  C     0.65077   0.76934   0.67546   0.00000  Uiso   1.00
C1109  C     0.34923   0.89733   0.82454   0.00000  Uiso   1.00
C1110  C     0.54036   0.92463   0.97605   0.00000  Uiso   1.00
C1111  C     0.45965   0.74203   0.52395   0.00000  Uiso   1.00
C1112  C     0.52304   0.98596   0.74816   0.00000  Uiso   1.00
C1113  C     0.47696   0.68070   0.75184   0.00000  Uiso   1.00
C1114  C     0.50036   0.83300   0.83625   0.00000  Uiso   1.00
C1115  C     0.49964   0.83367   0.66374   0.00000  Uiso   1.00
C1116  C     0.47459   0.79100   0.59441   0.00000  Uiso   1.00
H1117  H     0.45243   0.76090   0.61499   0.00000  Uiso   1.00
H1118  H     0.36418   0.74318   0.93188   0.00000  Uiso   1.00
H1119  H     0.35042   0.71291   0.98678   0.00000  Uiso   1.00
H1120  H     0.35299   0.67377   0.93568   0.00000  Uiso   1.00
H1121  H     0.57849   0.71871   0.95708   0.00000  Uiso   1.00
H1122  H     0.42150   0.94796   0.54293   0.00000  Uiso   1.00
H1123  H     0.64912   0.80508   0.65539   0.00000  Uiso   1.00
H1124  H     0.60803   0.74952   0.68235   0.00000  Uiso   1.00
H1125  H     0.34369   0.74200   0.65447   0.00000  Uiso   1.00
H1126  H     0.39197   0.91715   0.81766   0.00000  Uiso   1.00
H1127  H     0.35088   0.86159   0.84461   0.00000  Uiso   1.00
H1128  H     0.54753   0.90578   0.88500   0.00000  Uiso   1.00
H1129  H     0.65631   0.92467   0.84553   0.00000  Uiso   1.00
H1130  H     0.54218   0.90900   0.61185   0.00000  Uiso   1.00
H1131  H     0.45788   0.75765   0.88815   0.00000  Uiso   1.00
H1132  H     0.56662   0.66949   0.74461   0.00000  Uiso   1.00
H1133  H     0.43338   0.99718   0.75539   0.00000  Uiso   1.00
H1134  H     0.64960   0.95379   0.51321   0.00000  Uiso   1.00
H1135  H     0.63588   0.92349   0.56810   0.00000  Uiso   1.00
H1136  H     0.64704   0.99291   0.56432   0.00000  Uiso   1.00
N1137  N     0.65011   0.81932   0.73783   0.00000  Uiso   1.00
N1138  N     0.34989   0.84735   0.76217   0.00000  Uiso   1.00
O1139  O     0.46308   0.91286   0.75298   0.00000  Uiso   1.00
O1140  O     0.43098   0.70296   0.95372   0.00000  Uiso   1.00
O1141  O     0.52655   0.98458   0.91906   0.00000  Uiso   1.00
O1142  O     0.57778   0.68531   0.97461   0.00000  Uiso   1.00
O1143  O     0.47344   0.68210   0.58095   0.00000  Uiso   1.00
O1144  O     0.42223   0.98136   0.52540   0.00000  Uiso   1.00
O1145  O     0.34369   0.78039   0.71554   0.00000  Uiso   1.00
O1146  O     0.65631   0.88628   0.78446   0.00000  Uiso   1.00
O1147  O     0.53692   0.75381   0.74701   0.00000  Uiso   1.00
O1148  O     0.55946   0.90387   0.74518   0.00000  Uiso   1.00
O1149  O     0.44054   0.76279   0.75481   0.00000  Uiso   1.00
O1150  O     0.45181   0.83784   0.81997   0.00000  Uiso   1.00
O1151  O     0.54819   0.82883   0.68002   0.00000  Uiso   1.00
O1152  O     0.54819   0.82885   0.81217   0.00000  Uiso   1.00
O1153  O     0.45181   0.83781   0.68782   0.00000  Uiso   1.00
O1154  O     0.56904   0.96370   0.54628   0.00000  Uiso   1.00
Zn1155 Zn    0.43565   0.83933   0.75521   0.00000  Uiso   1.00
Zn1156 Zn    0.56435   0.82734   0.74479   0.00000  Uiso   1.00
C1157  C     0.84845   0.93144   0.74886   0.00000  Uiso   1.00
C1158  C     0.85873   0.87568   0.90559   0.00000  Uiso   1.00
C1159  C     0.83228   0.83388   0.61616   0.00000  Uiso   1.00
C1160  C     0.83439   0.83278   0.88384   0.00000  Uiso   1.00
C1161  C     0.85766   0.87617   0.59293   0.00000  Uiso   1.00
C1162  C     0.80904   0.79048   0.90706   0.00000  Uiso   1.00
C1163  C     0.85753   0.87692   0.54624   0.00000  Uiso   1.00
C1164  C     0.80917   0.78974   0.95375   0.00000  Uiso   1.00
C1165  C     0.83376   0.83294   0.52334   0.00000  Uiso   1.00
C1166  C     0.83294   0.83372   0.97665   0.00000  Uiso   1.00
C1167  C     0.81169   0.78795   0.54737   0.00000  Uiso   1.00
C1168  C     0.81822   0.73522   0.75114   0.00000  Uiso   1.00
C1169  C     0.85499   0.87871   0.95263   0.00000  Uiso   1.00
C1170  C     0.87950   0.92148   0.52269   0.00000  Uiso   1.00
C1171  C     0.78719   0.74518   0.97731   0.00000  Uiso   1.00
C1172  C     0.96123   0.95765   0.54779   0.00000  Uiso   1.00
C1173  C     0.70547   0.70903   0.95220   0.00000  Uiso   1.00
C1174  C     0.88190   0.97685   0.95394   0.00000  Uiso   1.00
C1175  C     0.78477   0.68982   0.54606   0.00000  Uiso   1.00
C1176  C     0.98410   0.76934   0.67546   0.00000  Uiso   1.00
C1177  C     0.68257   0.89733   0.82454   0.00000  Uiso   1.00
C1178  C     0.87370   0.92463   0.97605   0.00000  Uiso   1.00
C1179  C     0.79299   0.74203   0.52395   0.00000  Uiso   1.00
C1180  C     0.85637   0.98596   0.74816   0.00000  Uiso   1.00
C1181  C     0.81030   0.68070   0.75184   0.00000  Uiso   1.00
C1182  C     0.83369   0.83300   0.83625   0.00000  Uiso   1.00
C1183  C     0.83298   0.83367   0.66374   0.00000  Uiso   1.00
C1184  C     0.80792   0.79100   0.59441   0.00000  Uiso   1.00
H1185  H     0.78576   0.76090   0.61499   0.00000  Uiso   1.00
H1186  H     0.69751   0.74318   0.93188   0.00000  Uiso   1.00
H1187  H     0.68375   0.71291   0.98678   0.00000  Uiso   1.00
H1188  H     0.68632   0.67377   0.93568   0.00000  Uiso   1.00
H1189  H     0.91182   0.71871   0.95708   0.00000  Uiso   1.00
H1190  H     0.75483   0.94796   0.54293   0.00000  Uiso   1.00
H1191  H     0.98245   0.80508   0.65539   0.00000  Uiso   1.00
H1192  H     0.94136   0.74952   0.68235   0.00000  Uiso   1.00
H1193  H     0.67703   0.74200   0.65447   0.00000  Uiso   1.00
H1194  H     0.72530   0.91715   0.81766   0.00000  Uiso   1.00
H1195  H     0.68421   0.86159   0.84461   0.00000  Uiso   1.00
H1196  H     0.88087   0.90578   0.88500   0.00000  Uiso   1.00
H1197  H     0.98964   0.92467   0.84553   0.00000  Uiso   1.00
H1198  H     0.87551   0.90900   0.61185   0.00000  Uiso   1.00
H1199  H     0.79121   0.75765   0.88815   0.00000  Uiso   1.00
H1200  H     0.89995   0.66949   0.74461   0.00000  Uiso   1.00
H1201  H     0.76672   0.99718   0.75539   0.00000  Uiso   1.00
H1202  H     0.98293   0.95379   0.51321   0.00000  Uiso   1.00
H1203  H     0.96921   0.92349   0.56810   0.00000  Uiso   1.00
H1204  H     0.98038   0.99291   0.56432   0.00000  Uiso   1.00
N1205  N     0.98344   0.81932   0.73783   0.00000  Uiso   1.00
N1206  N     0.68322   0.84735   0.76217   0.00000  Uiso   1.00
O1207  O     0.79642   0.91286   0.75298   0.00000  Uiso   1.00
O1208  O     0.76431   0.70296   0.95372   0.00000  Uiso   1.00
O1209  O     0.85988   0.98458   0.91906   0.00000  Uiso   1.00
O1210  O     0.91111   0.68531   0.97461   0.00000  Uiso   1.00
O1211  O     0.80677   0.68210   0.58095   0.00000  Uiso   1.00
O1212  O     0.75556   0.98136   0.52540   0.00000  Uiso   1.00
O1213  O     0.67702   0.78039   0.71554   0.00000  Uiso   1.00
O1214  O     0.98964   0.88628   0.78446   0.00000  Uiso   1.00
O1215  O     0.87025   0.75381   0.74701   0.00000  Uiso   1.00
O1216  O     0.89280   0.90387   0.74518   0.00000  Uiso   1.00
O1217  O     0.77387   0.76279   0.75481   0.00000  Uiso   1.00
O1218  O     0.78514   0.83784   0.81997   0.00000  Uiso   1.00
O1219  O     0.88153   0.82883   0.68002   0.00000  Uiso   1.00
O1220  O     0.88152   0.82885   0.81217   0.00000  Uiso   1.00
O1221  O     0.78515   0.83781   0.68782   0.00000  Uiso   1.00
O1222  O     0.90238   0.96370   0.54628   0.00000  Uiso   1.00
Zn1223 Zn    0.76898   0.83933   0.75521   0.00000  Uiso   1.00
Zn1224 Zn    0.89769   0.82734   0.74479   0.00000  Uiso   1.00
loop_
_geom_bond_atom_site_label_1
_geom_bond_atom_site_label_2
_geom_bond_distance
_geom_bond_site_symmetry_2
_ccdc_geom_bond_type
C1     O51     1.286   .     A
C1     C24     1.403   .     S
C1     O60     1.293   .     A
C2     C4      1.382   .     A
C2     H40     1.081   .     S
C2     C13     1.393   .     A
C3     C27     1.415   .     S
C3     C28     1.382   .     A
C3     C5      1.381   .     A
C4     C26     1.415   .     S
C4     C6      1.381   .     A
C5     H42     1.085   .     S
C5     C7      1.387   .     A
C6     C8      1.387   .     A
C6     H43     1.085   .     S
C7     C9      1.415   .     A
C7     C14     1.407   .     A
C8     C10     1.415   .     A
C8     C15     1.407   .     A
C9     C11     1.423   .     A
C9     C622    1.389   1_554 S
C10    C13     1.423   .     A
C10    C621    1.389   .     S
C11    C28     1.393   .     A
C11    C23     1.420   .     A
C12    C25     1.403   .     S
C12    O61     1.293   .     A
C12    O59     1.286   .     A
C13    C22     1.420   .     A
C14    O66     1.383   .     S
C14    C634    1.408   1_554 S
C15    O52     1.383   .     S
C15    C635    1.408   .     S
C16    H48     1.109   .     S
C16    O66     1.409   .     S
C16    H46     1.113   .     S
C16    H47     1.112   .     S
C17    H30     1.112   .     S
C17    O52     1.409   .     S
C17    H31     1.113   .     S
C17    H32     1.109   .     S
C18    O53     1.222   .     D
C18    C22     1.505   .     S
C18    O258    1.397   .     S
C19    C23     1.505   .     S
C19    O55     1.222   .     D
C19    O464    1.397   1_545 S
C20    H35     1.113   .     S
C20    H36     1.106   .     S
C20    H105    1.109   .     S
C20    O125    1.401   .     S
C21    H38     1.106   .     S
C21    H39     1.113   .     S
C21    H177    1.109   1_455 S
C21    O194    1.401   1_455 S
C22    C626    1.408   .     S
C23    C627    1.408   1_554 S
C24    C229    1.335   .     S
C24    H248    1.088   .     S
C25    C432    1.335   1_545 S
C25    H453    1.088   1_545 S
C26    O62     1.292   .     A
C26    O64     1.292   .     A
C27    O65     1.292   .     A
C27    O63     1.292   .     A
C28    H29     1.081   .     S
H33    O54     1.014   .     S
H34    O56     1.014   .     S
H37    C156    1.109   1_455 S
H41    C89     1.109   .     S
H44    C432    1.088   1_545 S
H45    C229    1.088   .     S
N49    Zn68    2.036   .     S
N49    N118    1.284   .     S
N49    O125    1.347   .     S
N50    Zn67    2.036   .     S
N50    N185    1.284   1_455 S
N50    O194    1.347   1_455 S
O51    Zn67    1.962   .     S
O54    C426    1.397   1_545 S
O56    C223    1.397   .     S
O57    N185    1.347   1_455 S
O57    C156    1.401   1_455 S
O58    C89     1.401   .     S
O58    N118    1.347   .     S
O59    Zn68    1.962   .     S
O60    Zn68    1.978   .     S
O61    Zn67    1.978   .     S
O62    Zn67    1.993   .     S
O63    Zn68    1.993   .     S
O64    Zn68    2.005   .     S
O65    Zn67    2.005   .     S
C69    O119    1.286   .     A
C69    C92     1.403   .     S
C69    O128    1.293   .     A
C70    C72     1.382   .     A
C70    H108    1.081   .     S
C70    C81     1.393   .     A
C71    C95     1.415   .     S
C71    C96     1.382   .     A
C71    C73     1.381   .     A
C72    C94     1.415   .     S
C72    C74     1.381   .     A
C73    H110    1.085   .     S
C73    C75     1.387   .     A
C74    C76     1.387   .     A
C74    H111    1.085   .     S
C75    C77     1.415   .     A
C75    C82     1.407   .     A
C76    C78     1.415   .     A
C76    C83     1.407   .     A
C77    C79     1.423   .     A
C77    C690    1.389   1_554 S
C78    C81     1.423   .     A
C78    C689    1.389   .     S
C79    C96     1.393   .     A
C79    C91     1.420   .     A
C80    C93     1.403   .     S
C80    O129    1.293   .     A
C80    O127    1.286   .     A
C81    C90     1.420   .     A
C82    O134    1.383   .     S
C82    C702    1.408   1_554 S
C83    O120    1.383   .     S
C83    C703    1.408   .     S
C84    H116    1.109   .     S
C84    O134    1.409   .     S
C84    H114    1.113   .     S
C84    H115    1.112   .     S
C85    H98     1.112   .     S
C85    O120    1.409   .     S
C85    H99     1.113   .     S
C85    H100    1.109   .     S
C86    O121    1.222   .     D
C86    C90     1.505   .     S
C86    O326    1.397   .     S
C87    C91     1.505   .     S
C87    O123    1.222   .     D
C87    O532    1.397   1_545 S
C88    H103    1.113   .     S
C88    H104    1.106   .     S
C88    H173    1.109   .     S
C88    O193    1.401   .     S
C89    H106    1.106   .     S
C89    H107    1.113   .     S
C90    C694    1.408   .     S
C91    C695    1.408   1_554 S
C92    C297    1.335   .     S
C92    H316    1.088   .     S
C93    C500    1.335   1_545 S
C93    H521    1.088   1_545 S
C94    O130    1.292   .     A
C94    O132    1.292   .     A
C95    O133    1.292   .     A
C95    O131    1.292   .     A
C96    H97     1.081   .     S
H101   O122    1.014   .     S
H102   O124    1.014   .     S
H109   C157    1.109   .     S
H112   C500    1.088   1_545 S
H113   C297    1.088   .     S
N117   Zn136   2.036   .     S
N117   N186    1.284   .     S
N117   O193    1.347   .     S
N118   Zn135   2.036   .     S
O119   Zn135   1.962   .     S
O122   C494    1.397   1_545 S
O124   C291    1.397   .     S
O126   C157    1.401   .     S
O126   N186    1.347   .     S
O127   Zn136   1.962   .     S
O128   Zn136   1.978   .     S
O129   Zn135   1.978   .     S
O130   Zn135   1.993   .     S
O131   Zn136   1.993   .     S
O132   Zn136   2.005   .     S
O133   Zn135   2.005   .     S
C137   O187    1.286   .     A
C137   C160    1.403   .     S
C137   O196    1.293   .     A
C138   C140    1.382   .     A
C138   H176    1.081   .     S
C138   C149    1.393   .     A
C139   C163    1.415   .     S
C139   C164    1.382   .     A
C139   C141    1.381   .     A
C140   C162    1.415   .     S
C140   C142    1.381   .     A
C141   H178    1.085   .     S
C141   C143    1.387   .     A
C142   C144    1.387   .     A
C142   H179    1.085   .     S
C143   C145    1.415   .     A
C143   C150    1.407   .     A
C144   C146    1.415   .     A
C144   C151    1.407   .     A
C145   C147    1.423   .     A
C145   C758    1.389   1_554 S
C146   C149    1.423   .     A
C146   C757    1.389   .     S
C147   C164    1.393   .     A
C147   C159    1.420   .     A
C148   C161    1.403   .     S
C148   O197    1.293   .     A
C148   O195    1.286   .     A
C149   C158    1.420   .     A
C150   O202    1.383   .     S
C150   C770    1.408   1_554 S
C151   O188    1.383   .     S
C151   C771    1.408   .     S
C152   H184    1.109   .     S
C152   O202    1.409   .     S
C152   H182    1.113   .     S
C152   H183    1.112   .     S
C153   H166    1.112   .     S
C153   O188    1.409   .     S
C153   H167    1.113   .     S
C153   H168    1.109   .     S
C154   O189    1.222   .     D
C154   C158    1.505   .     S
C154   O394    1.397   .     S
C155   C159    1.505   .     S
C155   O191    1.222   .     D
C155   O600    1.397   1_545 S
C156   H171    1.113   .     S
C156   H172    1.106   .     S
C156   H37     1.109   1_655 S
C156   O57     1.401   1_655 S
C157   H174    1.106   .     S
C157   H175    1.113   .     S
C158   C762    1.408   .     S
C159   C763    1.408   1_554 S
C160   C365    1.335   .     S
C160   H384    1.088   .     S
C161   C568    1.335   1_545 S
C161   H589    1.088   1_545 S
C162   O198    1.292   .     A
C162   O200    1.292   .     A
C163   O201    1.292   .     A
C163   O199    1.292   .     A
C164   H165    1.081   .     S
H169   O190    1.014   .     S
H170   O192    1.014   .     S
H177   C21     1.109   1_655 S
H180   C568    1.088   1_545 S
H181   C365    1.088   .     S
N185   Zn204   2.036   .     S
N185   N50     1.284   1_655 S
N185   O57     1.347   1_655 S
N186   Zn203   2.036   .     S
O187   Zn203   1.962   .     S
O190   C562    1.397   1_545 S
O192   C359    1.397   .     S
O194   C21     1.401   1_655 S
O194   N50     1.347   1_655 S
O195   Zn204   1.962   .     S
O196   Zn204   1.978   .     S
O197   Zn203   1.978   .     S
O198   Zn203   1.993   .     S
O199   Zn204   1.993   .     S
O200   Zn204   2.005   .     S
O201   Zn203   2.005   .     S
C205   O255    1.286   .     A
C205   C228    1.403   .     S
C205   O264    1.293   .     A
C206   C208    1.382   .     A
C206   H244    1.081   .     S
C206   C217    1.393   .     A
C207   C231    1.415   .     S
C207   C232    1.382   .     A
C207   C209    1.381   .     A
C208   C230    1.415   .     S
C208   C210    1.381   .     A
C209   H246    1.085   .     S
C209   C211    1.387   .     A
C210   C212    1.387   .     A
C210   H247    1.085   .     S
C211   C213    1.415   .     A
C211   C218    1.407   .     A
C212   C214    1.415   .     A
C212   C219    1.407   .     A
C213   C215    1.423   .     A
C213   C826    1.389   1_554 S
C214   C217    1.423   .     A
C214   C825    1.389   .     S
C215   C232    1.393   .     A
C215   C227    1.420   .     A
C216   C229    1.403   .     S
C216   O265    1.293   .     A
C216   O263    1.286   .     A
C217   C226    1.420   .     A
C218   O270    1.383   .     S
C218   C838    1.408   1_554 S
C219   O256    1.383   .     S
C219   C839    1.408   .     S
C220   H252    1.109   .     S
C220   O270    1.409   .     S
C220   H250    1.113   .     S
C220   H251    1.112   .     S
C221   H234    1.112   .     S
C221   O256    1.409   .     S
C221   H235    1.113   .     S
C221   H236    1.109   .     S
C222   O257    1.222   .     D
C222   C226    1.505   .     S
C222   O462    1.397   .     S
C223   C227    1.505   .     S
C223   O259    1.222   .     D
C224   H239    1.113   .     S
C224   H240    1.106   .     S
C224   H309    1.109   .     S
C224   O329    1.401   .     S
C225   H242    1.106   .     S
C225   H243    1.113   .     S
C225   H381    1.109   1_455 S
C225   O398    1.401   1_455 S
C226   C830    1.408   .     S
C227   C831    1.408   1_554 S
C228   C433    1.335   .     S
C228   H452    1.088   .     S
C230   O266    1.292   .     A
C230   O268    1.292   .     A
C231   O269    1.292   .     A
C231   O267    1.292   .     A
C232   H233    1.081   .     S
H237   O258    1.014   .     S
H238   O260    1.014   .     S
H241   C360    1.109   1_455 S
H245   C293    1.109   .     S
H249   C433    1.088   .     S
N253   Zn272   2.036   .     S
N253   N322    1.284   .     S
N253   O329    1.347   .     S
N254   Zn271   2.036   .     S
N254   N389    1.284   1_455 S
N254   O398    1.347   1_455 S
O255   Zn271   1.962   .     S
O260   C427    1.397   .     S
O261   N389    1.347   1_455 S
O261   C360    1.401   1_455 S
O262   C293    1.401   .     S
O262   N322    1.347   .     S
O263   Zn272   1.962   .     S
O264   Zn272   1.978   .     S
O265   Zn271   1.978   .     S
O266   Zn271   1.993   .     S
O267   Zn272   1.993   .     S
O268   Zn272   2.005   .     S
O269   Zn271   2.005   .     S
C273   O323    1.286   .     A
C273   C296    1.403   .     S
C273   O332    1.293   .     A
C274   C276    1.382   .     A
C274   H312    1.081   .     S
C274   C285    1.393   .     A
C275   C299    1.415   .     S
C275   C300    1.382   .     A
C275   C277    1.381   .     A
C276   C298    1.415   .     S
C276   C278    1.381   .     A
C277   H314    1.085   .     S
C277   C279    1.387   .     A
C278   C280    1.387   .     A
C278   H315    1.085   .     S
C279   C281    1.415   .     A
C279   C286    1.407   .     A
C280   C282    1.415   .     A
C280   C287    1.407   .     A
C281   C283    1.423   .     A
C281   C894    1.389   1_554 S
C282   C285    1.423   .     A
C282   C893    1.389   .     S
C283   C300    1.393   .     A
C283   C295    1.420   .     A
C284   C297    1.403   .     S
C284   O333    1.293   .     A
C284   O331    1.286   .     A
C285   C294    1.420   .     A
C286   O338    1.383   .     S
C286   C906    1.408   1_554 S
C287   O324    1.383   .     S
C287   C907    1.408   .     S
C288   H320    1.109   .     S
C288   O338    1.409   .     S
C288   H318    1.113   .     S
C288   H319    1.112   .     S
C289   H302    1.112   .     S
C289   O324    1.409   .     S
C289   H303    1.113   .     S
C289   H304    1.109   .     S
C290   O325    1.222   .     D
C290   C294    1.505   .     S
C290   O530    1.397   .     S
C291   C295    1.505   .     S
C291   O327    1.222   .     D
C292   H307    1.113   .     S
C292   H308    1.106   .     S
C292   H377    1.109   .     S
C292   O397    1.401   .     S
C293   H310    1.106   .     S
C293   H311    1.113   .     S
C294   C898    1.408   .     S
C295   C899    1.408   1_554 S
C296   C501    1.335   .     S
C296   H520    1.088   .     S
C298   O334    1.292   .     A
C298   O336    1.292   .     A
C299   O337    1.292   .     A
C299   O335    1.292   .     A
C300   H301    1.081   .     S
H305   O326    1.014   .     S
H306   O328    1.014   .     S
H313   C361    1.109   .     S
H317   C501    1.088   .     S
N321   Zn340   2.036   .     S
N321   N390    1.284   .     S
N321   O397    1.347   .     S
N322   Zn339   2.036   .     S
O323   Zn339   1.962   .     S
O328   C495    1.397   .     S
O330   C361    1.401   .     S
O330   N390    1.347   .     S
O331   Zn340   1.962   .     S
O332   Zn340   1.978   .     S
O333   Zn339   1.978   .     S
O334   Zn339   1.993   .     S
O335   Zn340   1.993   .     S
O336   Zn340   2.005   .     S
O337   Zn339   2.005   .     S
C341   O391    1.286   .     A
C341   C364    1.403   .     S
C341   O400    1.293   .     A
C342   C344    1.382   .     A
C342   H380    1.081   .     S
C342   C353    1.393   .     A
C343   C367    1.415   .     S
C343   C368    1.382   .     A
C343   C345    1.381   .     A
C344   C366    1.415   .     S
C344   C346    1.381   .     A
C345   H382    1.085   .     S
C345   C347    1.387   .     A
C346   C348    1.387   .     A
C346   H383    1.085   .     S
C347   C349    1.415   .     A
C347   C354    1.407   .     A
C348   C350    1.415   .     A
C348   C355    1.407   .     A
C349   C351    1.423   .     A
C349   C962    1.389   1_554 S
C350   C353    1.423   .     A
C350   C961    1.389   .     S
C351   C368    1.393   .     A
C351   C363    1.420   .     A
C352   C365    1.403   .     S
C352   O401    1.293   .     A
C352   O399    1.286   .     A
C353   C362    1.420   .     A
C354   O406    1.383   .     S
C354   C974    1.408   1_554 S
C355   O392    1.383   .     S
C355   C975    1.408   .     S
C356   H388    1.109   .     S
C356   O406    1.409   .     S
C356   H386    1.113   .     S
C356   H387    1.112   .     S
C357   H370    1.112   .     S
C357   O392    1.409   .     S
C357   H371    1.113   .     S
C357   H372    1.109   .     S
C358   O393    1.222   .     D
C358   C362    1.505   .     S
C358   O598    1.397   .     S
C359   C363    1.505   .     S
C359   O395    1.222   .     D
C360   H375    1.113   .     S
C360   H376    1.106   .     S
C360   H241    1.109   1_655 S
C360   O261    1.401   1_655 S
C361   H378    1.106   .     S
C361   H379    1.113   .     S
C362   C966    1.408   .     S
C363   C967    1.408   1_554 S
C364   C569    1.335   .     S
C364   H588    1.088   .     S
C366   O402    1.292   .     A
C366   O404    1.292   .     A
C367   O405    1.292   .     A
C367   O403    1.292   .     A
C368   H369    1.081   .     S
H373   O394    1.014   .     S
H374   O396    1.014   .     S
H381   C225    1.109   1_655 S
H385   C569    1.088   .     S
N389   Zn408   2.036   .     S
N389   N254    1.284   1_655 S
N389   O261    1.347   1_655 S
N390   Zn407   2.036   .     S
O391   Zn407   1.962   .     S
O396   C563    1.397   .     S
O398   C225    1.401   1_655 S
O398   N254    1.347   1_655 S
O399   Zn408   1.962   .     S
O400   Zn408   1.978   .     S
O401   Zn407   1.978   .     S
O402   Zn407   1.993   .     S
O403   Zn408   1.993   .     S
O404   Zn408   2.005   .     S
O405   Zn407   2.005   .     S
C409   O459    1.286   .     A
C409   C432    1.403   .     S
C409   O468    1.293   .     A
C410   C412    1.382   .     A
C410   H448    1.081   .     S
C410   C421    1.393   .     A
C411   C435    1.415   .     S
C411   C436    1.382   .     A
C411   C413    1.381   .     A
C412   C434    1.415   .     S
C412   C414    1.381   .     A
C413   H450    1.085   .     S
C413   C415    1.387   .     A
C414   C416    1.387   .     A
C414   H451    1.085   .     S
C415   C417    1.415   .     A
C415   C422    1.407   .     A
C416   C418    1.415   .     A
C416   C423    1.407   .     A
C417   C419    1.423   .     A
C417   C1030   1.389   1_554 S
C418   C421    1.423   .     A
C418   C1029   1.389   .     S
C419   C436    1.393   .     A
C419   C431    1.420   .     A
C420   C433    1.403   .     S
C420   O469    1.293   .     A
C420   O467    1.286   .     A
C421   C430    1.420   .     A
C422   O474    1.383   .     S
C422   C1042   1.408   1_554 S
C423   O460    1.383   .     S
C423   C1043   1.408   .     S
C424   H456    1.109   .     S
C424   O474    1.409   .     S
C424   H454    1.113   .     S
C424   H455    1.112   .     S
C425   H438    1.112   .     S
C425   O460    1.409   .     S
C425   H439    1.113   .     S
C425   H440    1.109   .     S
C426   O461    1.222   .     D
C426   C430    1.505   .     S
C426   O54     1.397   1_565 S
C427   C431    1.505   .     S
C427   O463    1.222   .     D
C428   H443    1.113   .     S
C428   H444    1.106   .     S
C428   H513    1.109   .     S
C428   O533    1.401   .     S
C429   H446    1.106   .     S
C429   H447    1.113   .     S
C429   H585    1.109   1_455 S
C429   O602    1.401   1_455 S
C430   C1034   1.408   .     S
C431   C1035   1.408   1_554 S
C432   C25     1.335   1_565 S
C432   H44     1.088   1_565 S
C434   O470    1.292   .     A
C434   O472    1.292   .     A
C435   O473    1.292   .     A
C435   O471    1.292   .     A
C436   H437    1.081   .     S
H441   O462    1.014   .     S
H442   O464    1.014   .     S
H445   C564    1.109   1_455 S
H449   C497    1.109   .     S
H453   C25     1.088   1_565 S
N457   Zn476   2.036   .     S
N457   N526    1.284   .     S
N457   O533    1.347   .     S
N458   Zn475   2.036   .     S
N458   N593    1.284   1_455 S
N458   O602    1.347   1_455 S
O459   Zn475   1.962   .     S
O464   C19     1.397   1_565 S
O465   N593    1.347   1_455 S
O465   C564    1.401   1_455 S
O466   C497    1.401   .     S
O466   N526    1.347   .     S
O467   Zn476   1.962   .     S
O468   Zn476   1.978   .     S
O469   Zn475   1.978   .     S
O470   Zn475   1.993   .     S
O471   Zn476   1.993   .     S
O472   Zn476   2.005   .     S
O473   Zn475   2.005   .     S
C477   O527    1.286   .     A
C477   C500    1.403   .     S
C477   O536    1.293   .     A
C478   C480    1.382   .     A
C478   H516    1.081   .     S
C478   C489    1.393   .     A
C479   C503    1.415   .     S
C479   C504    1.382   .     A
C479   C481    1.381   .     A
C480   C502    1.415   .     S
C480   C482    1.381   .     A
C481   H518    1.085   .     S
C481   C483    1.387   .     A
C482   C484    1.387   .     A
C482   H519    1.085   .     S
C483   C485    1.415   .     A
C483   C490    1.407   .     A
C484   C486    1.415   .     A
C484   C491    1.407   .     A
C485   C487    1.423   .     A
C485   C1098   1.389   1_554 S
C486   C489    1.423   .     A
C486   C1097   1.389   .     S
C487   C504    1.393   .     A
C487   C499    1.420   .     A
C488   C501    1.403   .     S
C488   O537    1.293   .     A
C488   O535    1.286   .     A
C489   C498    1.420   .     A
C490   O542    1.383   .     S
C490   C1110   1.408   1_554 S
C491   O528    1.383   .     S
C491   C1111   1.408   .     S
C492   H524    1.109   .     S
C492   O542    1.409   .     S
C492   H522    1.113   .     S
C492   H523    1.112   .     S
C493   H506    1.112   .     S
C493   O528    1.409   .     S
C493   H507    1.113   .     S
C493   H508    1.109   .     S
C494   O529    1.222   .     D
C494   C498    1.505   .     S
C494   O122    1.397   1_565 S
C495   C499    1.505   .     S
C495   O531    1.222   .     D
C496   H511    1.113   .     S
C496   H512    1.106   .     S
C496   H581    1.109   .     S
C496   O601    1.401   .     S
C497   H514    1.106   .     S
C497   H515    1.113   .     S
C498   C1102   1.408   .     S
C499   C1103   1.408   1_554 S
C500   C93     1.335   1_565 S
C500   H112    1.088   1_565 S
C502   O538    1.292   .     A
C502   O540    1.292   .     A
C503   O541    1.292   .     A
C503   O539    1.292   .     A
C504   H505    1.081   .     S
H509   O530    1.014   .     S
H510   O532    1.014   .     S
H517   C565    1.109   .     S
H521   C93     1.088   1_565 S
N525   Zn544   2.036   .     S
N525   N594    1.284   .     S
N525   O601    1.347   .     S
N526   Zn543   2.036   .     S
O527   Zn543   1.962   .     S
O532   C87     1.397   1_565 S
O534   C565    1.401   .     S
O534   N594    1.347   .     S
O535   Zn544   1.962   .     S
O536   Zn544   1.978   .     S
O537   Zn543   1.978   .     S
O538   Zn543   1.993   .     S
O539   Zn544   1.993   .     S
O540   Zn544   2.005   .     S
O541   Zn543   2.005   .     S
C545   O595    1.286   .     A
C545   C568    1.403   .     S
C545   O604    1.293   .     A
C546   C548    1.382   .     A
C546   H584    1.081   .     S
C546   C557    1.393   .     A
C547   C571    1.415   .     S
C547   C572    1.382   .     A
C547   C549    1.381   .     A
C548   C570    1.415   .     S
C548   C550    1.381   .     A
C549   H586    1.085   .     S
C549   C551    1.387   .     A
C550   C552    1.387   .     A
C550   H587    1.085   .     S
C551   C553    1.415   .     A
C551   C558    1.407   .     A
C552   C554    1.415   .     A
C552   C559    1.407   .     A
C553   C555    1.423   .     A
C553   C1166   1.389   1_554 S
C554   C557    1.423   .     A
C554   C1165   1.389   .     S
C555   C572    1.393   .     A
C555   C567    1.420   .     A
C556   C569    1.403   .     S
C556   O605    1.293   .     A
C556   O603    1.286   .     A
C557   C566    1.420   .     A
C558   O610    1.383   .     S
C558   C1178   1.408   1_554 S
C559   O596    1.383   .     S
C559   C1179   1.408   .     S
C560   H592    1.109   .     S
C560   O610    1.409   .     S
C560   H590    1.113   .     S
C560   H591    1.112   .     S
C561   H574    1.112   .     S
C561   O596    1.409   .     S
C561   H575    1.113   .     S
C561   H576    1.109   .     S
C562   O597    1.222   .     D
C562   C566    1.505   .     S
C562   O190    1.397   1_565 S
C563   C567    1.505   .     S
C563   O599    1.222   .     D
C564   H579    1.113   .     S
C564   H580    1.106   .     S
C564   H445    1.109   1_655 S
C564   O465    1.401   1_655 S
C565   H582    1.106   .     S
C565   H583    1.113   .     S
C566   C1170   1.408   .     S
C567   C1171   1.408   1_554 S
C568   C161    1.335   1_565 S
C568   H180    1.088   1_565 S
C570   O606    1.292   .     A
C570   O608    1.292   .     A
C571   O609    1.292   .     A
C571   O607    1.292   .     A
C572   H573    1.081   .     S
H577   O598    1.014   .     S
H578   O600    1.014   .     S
H585   C429    1.109   1_655 S
H589   C161    1.088   1_565 S
N593   Zn612   2.036   .     S
N593   N458    1.284   1_655 S
N593   O465    1.347   1_655 S
N594   Zn611   2.036   .     S
O595   Zn611   1.962   .     S
O600   C155    1.397   1_565 S
O602   C429    1.401   1_655 S
O602   N458    1.347   1_655 S
O603   Zn612   1.962   .     S
O604   Zn612   1.978   .     S
O605   Zn611   1.978   .     S
O606   Zn611   1.993   .     S
O607   Zn612   1.993   .     S
O608   Zn612   2.005   .     S
O609   Zn611   2.005   .     S
C613   O663    1.286   .     A
C613   C636    1.403   .     S
C613   O672    1.293   .     A
C614   C616    1.382   .     A
C614   H652    1.081   .     S
C614   C625    1.393   .     A
C615   C639    1.415   .     S
C615   C640    1.382   .     A
C615   C617    1.381   .     A
C616   C638    1.415   .     S
C616   C618    1.381   .     A
C617   H654    1.085   .     S
C617   C619    1.387   .     A
C618   C620    1.387   .     A
C618   H655    1.085   .     S
C619   C621    1.415   .     A
C619   C626    1.407   .     A
C620   C622    1.415   .     A
C620   C627    1.407   .     A
C621   C623    1.423   .     A
C622   C625    1.423   .     A
C622   C9      1.389   1_556 S
C623   C640    1.393   .     A
C623   C635    1.420   .     A
C624   C637    1.403   .     S
C624   O673    1.293   .     A
C624   O671    1.286   .     A
C625   C634    1.420   .     A
C626   O678    1.383   .     S
C627   O664    1.383   .     S
C627   C23     1.408   1_556 S
C628   H660    1.109   .     S
C628   O678    1.409   .     S
C628   H658    1.113   .     S
C628   H659    1.112   .     S
C629   H642    1.112   .     S
C629   O664    1.409   .     S
C629   H643    1.113   .     S
C629   H644    1.109   .     S
C630   O665    1.222   .     D
C630   C634    1.505   .     S
C630   O870    1.397   .     S
C631   C635    1.505   .     S
C631   O667    1.222   .     D
C631   O1076   1.397   1_545 S
C632   H647    1.113   .     S
C632   H648    1.106   .     S
C632   H717    1.109   .     S
C632   O737    1.401   .     S
C633   H650    1.106   .     S
C633   H651    1.113   .     S
C633   H789    1.109   1_455 S
C633   O806    1.401   1_455 S
C634   C14     1.408   1_556 S
C636   C841    1.335   .     S
C636   H860    1.088   .     S
C637   C1044   1.335   1_545 S
C637   H1065   1.088   1_545 S
C638   O674    1.292   .     A
C638   O676    1.292   .     A
C639   O677    1.292   .     A
C639   O675    1.292   .     A
C640   H641    1.081   .     S
H645   O666    1.014   .     S
H646   O668    1.014   .     S
H649   C768    1.109   1_455 S
H653   C701    1.109   .     S
H656   C1044   1.088   1_545 S
H657   C841    1.088   .     S
N661   Zn680   2.036   .     S
N661   N730    1.284   .     S
N661   O737    1.347   .     S
N662   Zn679   2.036   .     S
N662   N797    1.284   1_455 S
N662   O806    1.347   1_455 S
O663   Zn679   1.962   .     S
O666   C1038   1.397   1_545 S
O668   C835    1.397   .     S
O669   N797    1.347   1_455 S
O669   C768    1.401   1_455 S
O670   C701    1.401   .     S
O670   N730    1.347   .     S
O671   Zn680   1.962   .     S
O672   Zn680   1.978   .     S
O673   Zn679   1.978   .     S
O674   Zn679   1.993   .     S
O675   Zn680   1.993   .     S
O676   Zn680   2.005   .     S
O677   Zn679   2.005   .     S
C681   O731    1.286   .     A
C681   C704    1.403   .     S
C681   O740    1.293   .     A
C682   C684    1.382   .     A
C682   H720    1.081   .     S
C682   C693    1.393   .     A
C683   C707    1.415   .     S
C683   C708    1.382   .     A
C683   C685    1.381   .     A
C684   C706    1.415   .     S
C684   C686    1.381   .     A
C685   H722    1.085   .     S
C685   C687    1.387   .     A
C686   C688    1.387   .     A
C686   H723    1.085   .     S
C687   C689    1.415   .     A
C687   C694    1.407   .     A
C688   C690    1.415   .     A
C688   C695    1.407   .     A
C689   C691    1.423   .     A
C690   C693    1.423   .     A
C690   C77     1.389   1_556 S
C691   C708    1.393   .     A
C691   C703    1.420   .     A
C692   C705    1.403   .     S
C692   O741    1.293   .     A
C692   O739    1.286   .     A
C693   C702    1.420   .     A
C694   O746    1.383   .     S
C695   O732    1.383   .     S
C695   C91     1.408   1_556 S
C696   H728    1.109   .     S
C696   O746    1.409   .     S
C696   H726    1.113   .     S
C696   H727    1.112   .     S
C697   H710    1.112   .     S
C697   O732    1.409   .     S
C697   H711    1.113   .     S
C697   H712    1.109   .     S
C698   O733    1.222   .     D
C698   C702    1.505   .     S
C698   O938    1.397   .     S
C699   C703    1.505   .     S
C699   O735    1.222   .     D
C699   O1144   1.397   1_545 S
C700   H715    1.113   .     S
C700   H716    1.106   .     S
C700   H785    1.109   .     S
C700   O805    1.401   .     S
C701   H718    1.106   .     S
C701   H719    1.113   .     S
C702   C82     1.408   1_556 S
C704   C909    1.335   .     S
C704   H928    1.088   .     S
C705   C1112   1.335   1_545 S
C705   H1133   1.088   1_545 S
C706   O742    1.292   .     A
C706   O744    1.292   .     A
C707   O745    1.292   .     A
C707   O743    1.292   .     A
C708   H709    1.081   .     S
H713   O734    1.014   .     S
H714   O736    1.014   .     S
H721   C769    1.109   .     S
H724   C1112   1.088   1_545 S
H725   C909    1.088   .     S
N729   Zn748   2.036   .     S
N729   N798    1.284   .     S
N729   O805    1.347   .     S
N730   Zn747   2.036   .     S
O731   Zn747   1.962   .     S
O734   C1106   1.397   1_545 S
O736   C903    1.397   .     S
O738   C769    1.401   .     S
O738   N798    1.347   .     S
O739   Zn748   1.962   .     S
O740   Zn748   1.978   .     S
O741   Zn747   1.978   .     S
O742   Zn747   1.993   .     S
O743   Zn748   1.993   .     S
O744   Zn748   2.005   .     S
O745   Zn747   2.005   .     S
C749   O799    1.286   .     A
C749   C772    1.403   .     S
C749   O808    1.293   .     A
C750   C752    1.382   .     A
C750   H788    1.081   .     S
C750   C761    1.393   .     A
C751   C775    1.415   .     S
C751   C776    1.382   .     A
C751   C753    1.381   .     A
C752   C774    1.415   .     S
C752   C754    1.381   .     A
C753   H790    1.085   .     S
C753   C755    1.387   .     A
C754   C756    1.387   .     A
C754   H791    1.085   .     S
C755   C757    1.415   .     A
C755   C762    1.407   .     A
C756   C758    1.415   .     A
C756   C763    1.407   .     A
C757   C759    1.423   .     A
C758   C761    1.423   .     A
C758   C145    1.389   1_556 S
C759   C776    1.393   .     A
C759   C771    1.420   .     A
C760   C773    1.403   .     S
C760   O809    1.293   .     A
C760   O807    1.286   .     A
C761   C770    1.420   .     A
C762   O814    1.383   .     S
C763   O800    1.383   .     S
C763   C159    1.408   1_556 S
C764   H796    1.109   .     S
C764   O814    1.409   .     S
C764   H794    1.113   .     S
C764   H795    1.112   .     S
C765   H778    1.112   .     S
C765   O800    1.409   .     S
C765   H779    1.113   .     S
C765   H780    1.109   .     S
C766   O801    1.222   .     D
C766   C770    1.505   .     S
C766   O1006   1.397   .     S
C767   C771    1.505   .     S
C767   O803    1.222   .     D
C767   O1212   1.397   1_545 S
C768   H783    1.113   .     S
C768   H784    1.106   .     S
C768   H649    1.109   1_655 S
C768   O669    1.401   1_655 S
C769   H786    1.106   .     S
C769   H787    1.113   .     S
C770   C150    1.408   1_556 S
C772   C977    1.335   .     S
C772   H996    1.088   .     S
C773   C1180   1.335   1_545 S
C773   H1201   1.088   1_545 S
C774   O810    1.292   .     A
C774   O812    1.292   .     A
C775   O813    1.292   .     A
C775   O811    1.292   .     A
C776   H777    1.081   .     S
H781   O802    1.014   .     S
H782   O804    1.014   .     S
H789   C633    1.109   1_655 S
H792   C1180   1.088   1_545 S
H793   C977    1.088   .     S
N797   Zn816   2.036   .     S
N797   N662    1.284   1_655 S
N797   O669    1.347   1_655 S
N798   Zn815   2.036   .     S
O799   Zn815   1.962   .     S
O802   C1174   1.397   1_545 S
O804   C971    1.397   .     S
O806   C633    1.401   1_655 S
O806   N662    1.347   1_655 S
O807   Zn816   1.962   .     S
O808   Zn816   1.978   .     S
O809   Zn815   1.978   .     S
O810   Zn815   1.993   .     S
O811   Zn816   1.993   .     S
O812   Zn816   2.005   .     S
O813   Zn815   2.005   .     S
C817   O867    1.286   .     A
C817   C840    1.403   .     S
C817   O876    1.293   .     A
C818   C820    1.382   .     A
C818   H856    1.081   .     S
C818   C829    1.393   .     A
C819   C843    1.415   .     S
C819   C844    1.382   .     A
C819   C821    1.381   .     A
C820   C842    1.415   .     S
C820   C822    1.381   .     A
C821   H858    1.085   .     S
C821   C823    1.387   .     A
C822   C824    1.387   .     A
C822   H859    1.085   .     S
C823   C825    1.415   .     A
C823   C830    1.407   .     A
C824   C826    1.415   .     A
C824   C831    1.407   .     A
C825   C827    1.423   .     A
C826   C829    1.423   .     A
C826   C213    1.389   1_556 S
C827   C844    1.393   .     A
C827   C839    1.420   .     A
C828   C841    1.403   .     S
C828   O877    1.293   .     A
C828   O875    1.286   .     A
C829   C838    1.420   .     A
C830   O882    1.383   .     S
C831   O868    1.383   .     S
C831   C227    1.408   1_556 S
C832   H864    1.109   .     S
C832   O882    1.409   .     S
C832   H862    1.113   .     S
C832   H863    1.112   .     S
C833   H846    1.112   .     S
C833   O868    1.409   .     S
C833   H847    1.113   .     S
C833   H848    1.109   .     S
C834   O869    1.222   .     D
C834   C838    1.505   .     S
C834   O1074   1.397   .     S
C835   C839    1.505   .     S
C835   O871    1.222   .     D
C836   H851    1.113   .     S
C836   H852    1.106   .     S
C836   H921    1.109   .     S
C836   O941    1.401   .     S
C837   H854    1.106   .     S
C837   H855    1.113   .     S
C837   H993    1.109   1_455 S
C837   O1010   1.401   1_455 S
C838   C218    1.408   1_556 S
C840   C1045   1.335   .     S
C840   H1064   1.088   .     S
C842   O878    1.292   .     A
C842   O880    1.292   .     A
C843   O881    1.292   .     A
C843   O879    1.292   .     A
C844   H845    1.081   .     S
H849   O870    1.014   .     S
H850   O872    1.014   .     S
H853   C972    1.109   1_455 S
H857   C905    1.109   .     S
H861   C1045   1.088   .     S
N865   Zn884   2.036   .     S
N865   N934    1.284   .     S
N865   O941    1.347   .     S
N866   Zn883   2.036   .     S
N866   N1001   1.284   1_455 S
N866   O1010   1.347   1_455 S
O867   Zn883   1.962   .     S
O872   C1039   1.397   .     S
O873   N1001   1.347   1_455 S
O873   C972    1.401   1_455 S
O874   C905    1.401   .     S
O874   N934    1.347   .     S
O875   Zn884   1.962   .     S
O876   Zn884   1.978   .     S
O877   Zn883   1.978   .     S
O878   Zn883   1.993   .     S
O879   Zn884   1.993   .     S
O880   Zn884   2.005   .     S
O881   Zn883   2.005   .     S
C885   O935    1.286   .     A
C885   C908    1.403   .     S
C885   O944    1.293   .     A
C886   C888    1.382   .     A
C886   H924    1.081   .     S
C886   C897    1.393   .     A
C887   C911    1.415   .     S
C887   C912    1.382   .     A
C887   C889    1.381   .     A
C888   C910    1.415   .     S
C888   C890    1.381   .     A
C889   H926    1.085   .     S
C889   C891    1.387   .     A
C890   C892    1.387   .     A
C890   H927    1.085   .     S
C891   C893    1.415   .     A
C891   C898    1.407   .     A
C892   C894    1.415   .     A
C892   C899    1.407   .     A
C893   C895    1.423   .     A
C894   C897    1.423   .     A
C894   C281    1.389   1_556 S
C895   C912    1.393   .     A
C895   C907    1.420   .     A
C896   C909    1.403   .     S
C896   O945    1.293   .     A
C896   O943    1.286   .     A
C897   C906    1.420   .     A
C898   O950    1.383   .     S
C899   O936    1.383   .     S
C899   C295    1.408   1_556 S
C900   H932    1.109   .     S
C900   O950    1.409   .     S
C900   H930    1.113   .     S
C900   H931    1.112   .     S
C901   H914    1.112   .     S
C901   O936    1.409   .     S
C901   H915    1.113   .     S
C901   H916    1.109   .     S
C902   O937    1.222   .     D
C902   C906    1.505   .     S
C902   O1142   1.397   .     S
C903   C907    1.505   .     S
C903   O939    1.222   .     D
C904   H919    1.113   .     S
C904   H920    1.106   .     S
C904   H989    1.109   .     S
C904   O1009   1.401   .     S
C905   H922    1.106   .     S
C905   H923    1.113   .     S
C906   C286    1.408   1_556 S
C908   C1113   1.335   .     S
C908   H1132   1.088   .     S
C910   O946    1.292   .     A
C910   O948    1.292   .     A
C911   O949    1.292   .     A
C911   O947    1.292   .     A
C912   H913    1.081   .     S
H917   O938    1.014   .     S
H918   O940    1.014   .     S
H925   C973    1.109   .     S
H929   C1113   1.088   .     S
N933   Zn952   2.036   .     S
N933   N1002   1.284   .     S
N933   O1009   1.347   .     S
N934   Zn951   2.036   .     S
O935   Zn951   1.962   .     S
O940   C1107   1.397   .     S
O942   C973    1.401   .     S
O942   N1002   1.347   .     S
O943   Zn952   1.962   .     S
O944   Zn952   1.978   .     S
O945   Zn951   1.978   .     S
O946   Zn951   1.993   .     S
O947   Zn952   1.993   .     S
O948   Zn952   2.005   .     S
O949   Zn951   2.005   .     S
C953   O1003   1.286   .     A
C953   C976    1.403   .     S
C953   O1012   1.293   .     A
C954   C956    1.382   .     A
C954   H992    1.081   .     S
C954   C965    1.393   .     A
C955   C979    1.415   .     S
C955   C980    1.382   .     A
C955   C957    1.381   .     A
C956   C978    1.415   .     S
C956   C958    1.381   .     A
C957   H994    1.085   .     S
C957   C959    1.387   .     A
C958   C960    1.387   .     A
C958   H995    1.085   .     S
C959   C961    1.415   .     A
C959   C966    1.407   .     A
C960   C962    1.415   .     A
C960   C967    1.407   .     A
C961   C963    1.423   .     A
C962   C965    1.423   .     A
C962   C349    1.389   1_556 S
C963   C980    1.393   .     A
C963   C975    1.420   .     A
C964   C977    1.403   .     S
C964   O1013   1.293   .     A
C964   O1011   1.286   .     A
C965   C974    1.420   .     A
C966   O1018   1.383   .     S
C967   O1004   1.383   .     S
C967   C363    1.408   1_556 S
C968   H1000   1.109   .     S
C968   O1018   1.409   .     S
C968   H998    1.113   .     S
C968   H999    1.112   .     S
C969   H982    1.112   .     S
C969   O1004   1.409   .     S
C969   H983    1.113   .     S
C969   H984    1.109   .     S
C970   O1005   1.222   .     D
C970   C974    1.505   .     S
C970   O1210   1.397   .     S
C971   C975    1.505   .     S
C971   O1007   1.222   .     D
C972   H987    1.113   .     S
C972   H988    1.106   .     S
C972   H853    1.109   1_655 S
C972   O873    1.401   1_655 S
C973   H990    1.106   .     S
C973   H991    1.113   .     S
C974   C354    1.408   1_556 S
C976   C1181   1.335   .     S
C976   H1200   1.088   .     S
C978   O1014   1.292   .     A
C978   O1016   1.292   .     A
C979   O1017   1.292   .     A
C979   O1015   1.292   .     A
C980   H981    1.081   .     S
H985   O1006   1.014   .     S
H986   O1008   1.014   .     S
H993   C837    1.109   1_655 S
H997   C1181   1.088   .     S
N1001  Zn1020  2.036   .     S
N1001  N866    1.284   1_655 S
N1001  O873    1.347   1_655 S
N1002  Zn1019  2.036   .     S
O1003  Zn1019  1.962   .     S
O1008  C1175   1.397   .     S
O1010  C837    1.401   1_655 S
O1010  N866    1.347   1_655 S
O1011  Zn1020  1.962   .     S
O1012  Zn1020  1.978   .     S
O1013  Zn1019  1.978   .     S
O1014  Zn1019  1.993   .     S
O1015  Zn1020  1.993   .     S
O1016  Zn1020  2.005   .     S
O1017  Zn1019  2.005   .     S
C1021  O1071   1.286   .     A
C1021  C1044   1.403   .     S
C1021  O1080   1.293   .     A
C1022  C1024   1.382   .     A
C1022  H1060   1.081   .     S
C1022  C1033   1.393   .     A
C1023  C1047   1.415   .     S
C1023  C1048   1.382   .     A
C1023  C1025   1.381   .     A
C1024  C1046   1.415   .     S
C1024  C1026   1.381   .     A
C1025  H1062   1.085   .     S
C1025  C1027   1.387   .     A
C1026  C1028   1.387   .     A
C1026  H1063   1.085   .     S
C1027  C1029   1.415   .     A
C1027  C1034   1.407   .     A
C1028  C1030   1.415   .     A
C1028  C1035   1.407   .     A
C1029  C1031   1.423   .     A
C1030  C1033   1.423   .     A
C1030  C417    1.389   1_556 S
C1031  C1048   1.393   .     A
C1031  C1043   1.420   .     A
C1032  C1045   1.403   .     S
C1032  O1081   1.293   .     A
C1032  O1079   1.286   .     A
C1033  C1042   1.420   .     A
C1034  O1086   1.383   .     S
C1035  O1072   1.383   .     S
C1035  C431    1.408   1_556 S
C1036  H1068   1.109   .     S
C1036  O1086   1.409   .     S
C1036  H1066   1.113   .     S
C1036  H1067   1.112   .     S
C1037  H1050   1.112   .     S
C1037  O1072   1.409   .     S
C1037  H1051   1.113   .     S
C1037  H1052   1.109   .     S
C1038  O1073   1.222   .     D
C1038  C1042   1.505   .     S
C1038  O666    1.397   1_565 S
C1039  C1043   1.505   .     S
C1039  O1075   1.222   .     D
C1040  H1055   1.113   .     S
C1040  H1056   1.106   .     S
C1040  H1125   1.109   .     S
C1040  O1145   1.401   .     S
C1041  H1058   1.106   .     S
C1041  H1059   1.113   .     S
C1041  H1197   1.109   1_455 S
C1041  O1214   1.401   1_455 S
C1042  C422    1.408   1_556 S
C1044  C637    1.335   1_565 S
C1044  H656    1.088   1_565 S
C1046  O1082   1.292   .     A
C1046  O1084   1.292   .     A
C1047  O1085   1.292   .     A
C1047  O1083   1.292   .     A
C1048  H1049   1.081   .     S
H1053  O1074   1.014   .     S
H1054  O1076   1.014   .     S
H1057  C1176   1.109   1_455 S
H1061  C1109   1.109   .     S
H1065  C637    1.088   1_565 S
N1069  Zn1088  2.036   .     S
N1069  N1138   1.284   .     S
N1069  O1145   1.347   .     S
N1070  Zn1087  2.036   .     S
N1070  N1205   1.284   1_455 S
N1070  O1214   1.347   1_455 S
O1071  Zn1087  1.962   .     S
O1076  C631    1.397   1_565 S
O1077  N1205   1.347   1_455 S
O1077  C1176   1.401   1_455 S
O1078  C1109   1.401   .     S
O1078  N1138   1.347   .     S
O1079  Zn1088  1.962   .     S
O1080  Zn1088  1.978   .     S
O1081  Zn1087  1.978   .     S
O1082  Zn1087  1.993   .     S
O1083  Zn1088  1.993   .     S
O1084  Zn1088  2.005   .     S
O1085  Zn1087  2.005   .     S
C1089  O1139   1.286   .     A
C1089  C1112   1.403   .     S
C1089  O1148   1.293   .     A
C1090  C1092   1.382   .     A
C1090  H1128   1.081   .     S
C1090  C1101   1.393   .     A
C1091  C1115   1.415   .     S
C1091  C1116   1.382   .     A
C1091  C1093   1.381   .     A
C1092  C1114   1.415   .     S
C1092  C1094   1.381   .     A
C1093  H1130   1.085   .     S
C1093  C1095   1.387   .     A
C1094  C1096   1.387   .     A
C1094  H1131   1.085   .     S
C1095  C1097   1.415   .     A
C1095  C1102   1.407   .     A
C1096  C1098   1.415   .     A
C1096  C1103   1.407   .     A
C1097  C1099   1.423   .     A
C1098  C1101   1.423   .     A
C1098  C485    1.389   1_556 S
C1099  C1116   1.393   .     A
C1099  C1111   1.420   .     A
C1100  C1113   1.403   .     S
C1100  O1149   1.293   .     A
C1100  O1147   1.286   .     A
C1101  C1110   1.420   .     A
C1102  O1154   1.383   .     S
C1103  O1140   1.383   .     S
C1103  C499    1.408   1_556 S
C1104  H1136   1.109   .     S
C1104  O1154   1.409   .     S
C1104  H1134   1.113   .     S
C1104  H1135   1.112   .     S
C1105  H1118   1.112   .     S
C1105  O1140   1.409   .     S
C1105  H1119   1.113   .     S
C1105  H1120   1.109   .     S
C1106  O1141   1.222   .     D
C1106  C1110   1.505   .     S
C1106  O734    1.397   1_565 S
C1107  C1111   1.505   .     S
C1107  O1143   1.222   .     D
C1108  H1123   1.113   .     S
C1108  H1124   1.106   .     S
C1108  H1193   1.109   .     S
C1108  O1213   1.401   .     S
C1109  H1126   1.106   .     S
C1109  H1127   1.113   .     S
C1110  C490    1.408   1_556 S
C1112  C705    1.335   1_565 S
C1112  H724    1.088   1_565 S
C1114  O1150   1.292   .     A
C1114  O1152   1.292   .     A
C1115  O1153   1.292   .     A
C1115  O1151   1.292   .     A
C1116  H1117   1.081   .     S
H1121  O1142   1.014   .     S
H1122  O1144   1.014   .     S
H1129  C1177   1.109   .     S
H1133  C705    1.088   1_565 S
N1137  Zn1156  2.036   .     S
N1137  N1206   1.284   .     S
N1137  O1213   1.347   .     S
N1138  Zn1155  2.036   .     S
O1139  Zn1155  1.962   .     S
O1144  C699    1.397   1_565 S
O1146  C1177   1.401   .     S
O1146  N1206   1.347   .     S
O1147  Zn1156  1.962   .     S
O1148  Zn1156  1.978   .     S
O1149  Zn1155  1.978   .     S
O1150  Zn1155  1.993   .     S
O1151  Zn1156  1.993   .     S
O1152  Zn1156  2.005   .     S
O1153  Zn1155  2.005   .     S
C1157  O1207   1.286   .     A
C1157  C1180   1.403   .     S
C1157  O1216   1.293   .     A
C1158  C1160   1.382   .     A
C1158  H1196   1.081   .     S
C1158  C1169   1.393   .     A
C1159  C1183   1.415   .     S
C1159  C1184   1.382   .     A
C1159  C1161   1.381   .     A
C1160  C1182   1.415   .     S
C1160  C1162   1.381   .     A
C1161  H1198   1.085   .     S
C1161  C1163   1.387   .     A
C1162  C1164   1.387   .     A
C1162  H1199   1.085   .     S
C1163  C1165   1.415   .     A
C1163  C1170   1.407   .     A
C1164  C1166   1.415   .     A
C1164  C1171   1.407   .     A
C1165  C1167   1.423   .     A
C1166  C1169   1.423   .     A
C1166  C553    1.389   1_556 S
C1167  C1184   1.393   .     A
C1167  C1179   1.420   .     A
C1168  C1181   1.403   .     S
C1168  O1217   1.293   .     A
C1168  O1215   1.286   .     A
C1169  C1178   1.420   .     A
C1170  O1222   1.383   .     S
C1171  O1208   1.383   .     S
C1171  C567    1.408   1_556 S
C1172  H1204   1.109   .     S
C1172  O1222   1.409   .     S
C1172  H1202   1.113   .     S
C1172  H1203   1.112   .     S
C1173  H1186   1.112   .     S
C1173  O1208   1.409   .     S
C1173  H1187   1.113   .     S
C1173  H1188   1.109   .     S
C1174  O1209   1.222   .     D
C1174  C1178   1.505   .     S
C1174  O802    1.397   1_565 S
C1175  C1179   1.505   .     S
C1175  O1211   1.222   .     D
C1176  H1191   1.113   .     S
C1176  H1192   1.106   .     S
C1176  H1057   1.109   1_655 S
C1176  O1077   1.401   1_655 S
C1177  H1194   1.106   .     S
C1177  H1195   1.113   .     S
C1178  C558    1.408   1_556 S
C1180  C773    1.335   1_565 S
C1180  H792    1.088   1_565 S
C1182  O1218   1.292   .     A
C1182  O1220   1.292   .     A
C1183  O1221   1.292   .     A
C1183  O1219   1.292   .     A
C1184  H1185   1.081   .     S
H1189  O1210   1.014   .     S
H1190  O1212   1.014   .     S
H1197  C1041   1.109   1_655 S
H1201  C773    1.088   1_565 S
N1205  Zn1224  2.036   .     S
N1205  N1070   1.284   1_655 S
N1205  O1077   1.347   1_655 S
N1206  Zn1223  2.036   .     S
O1207  Zn1223  1.962   .     S
O1212  C767    1.397   1_565 S
O1214  C1041   1.401   1_655 S
O1214  N1070   1.347   1_655 S
O1215  Zn1224  1.962   .     S
O1216  Zn1224  1.978   .     S
O1217  Zn1223  1.978   .     S
O1218  Zn1223  1.993   .     S
O1219  Zn1224  1.993   .     S
O1220  Zn1224  2.005   .     S
O1221  Zn1223  2.005   .     S
