data_str_m3_o1_o10_pcu_sym.80
_audit_creation_date              2020-01-03
_audit_creation_method            'Materials Studio'
_symmetry_space_group_name_H-M    'P1'
_symmetry_Int_Tables_number       1
_symmetry_cell_setting            triclinic
loop_
_symmetry_equiv_pos_as_xyz
  x,y,z
_cell_length_a                    25.6739
_cell_length_b                    32.0945
_cell_length_c                    29.7950
_cell_angle_alpha                 89.2728
_cell_angle_beta                  97.5902
_cell_angle_gamma                 91.9605
loop_
_atom_site_label
_atom_site_type_symbol
_atom_site_fract_x
_atom_site_fract_y
_atom_site_fract_z
_atom_site_U_iso_or_equiv
_atom_site_adp_type
_atom_site_occupancy
C1     C     0.16635   0.08672   0.16680   0.00000  Uiso   1.00
C2     C     0.18059   0.02125   0.20751   0.00000  Uiso   1.00
C3     C     0.16721   0.29082   0.16644   0.00000  Uiso   1.00
C4     C     0.16612   0.04252   0.16689   0.00000  Uiso   1.00
C5     C     0.19865   0.19438   0.02628   0.00000  Uiso   1.00
C6     C     0.13468   0.13895   0.30705   0.00000  Uiso   1.00
C7     C     0.19720   0.19455   0.31176   0.00000  Uiso   1.00
C8     C     0.13613   0.13879   0.02157   0.00000  Uiso   1.00
C9     C     0.23592   0.22612   0.05182   0.00000  Uiso   1.00
C10    C     0.29320   0.22151   0.04298   0.00000  Uiso   1.00
C11    C     0.33085   0.25026   0.07337   0.00000  Uiso   1.00
C12    C     0.16698   0.24661   0.16654   0.00000  Uiso   1.00
C13    C     0.09741   0.10721   0.28151   0.00000  Uiso   1.00
C14    C     0.04014   0.11182   0.29036   0.00000  Uiso   1.00
C15    C     0.00249   0.08307   0.25996   0.00000  Uiso   1.00
C16    C     0.06723   0.16587   0.15502   0.00000  Uiso   1.00
C17    C     0.26610   0.16746   0.17832   0.00000  Uiso   1.00
C18    C     0.01230   0.16286   0.14909   0.00000  Uiso   1.00
C19    C     0.32103   0.17047   0.18424   0.00000  Uiso   1.00
C20    C     0.15212   0.02142   0.12605   0.00000  Uiso   1.00
C21    C     0.18122   0.31191   0.20728   0.00000  Uiso   1.00
C22    C     0.15274   0.31208   0.12582   0.00000  Uiso   1.00
H23    H     0.32553   0.15363   0.11619   0.00000  Uiso   1.00
H24    H     0.32793   0.24360   0.10962   0.00000  Uiso   1.00
H25    H     0.03856   0.24535   0.06712   0.00000  Uiso   1.00
H26    H     0.30485   0.18873   0.04900   0.00000  Uiso   1.00
H27    H     0.29741   0.22959   0.00727   0.00000  Uiso   1.00
H28    H     0.22298   0.25791   0.04138   0.00000  Uiso   1.00
H29    H     0.23544   0.22355   0.08826   0.00000  Uiso   1.00
H30    H     0.00541   0.08973   0.22371   0.00000  Uiso   1.00
H31    H     0.01187   0.04997   0.26745   0.00000  Uiso   1.00
H32    H     0.29478   0.08798   0.26621   0.00000  Uiso   1.00
H33    H     0.03592   0.10375   0.32606   0.00000  Uiso   1.00
H34    H     0.00780   0.17971   0.21715   0.00000  Uiso   1.00
H35    H     0.02849   0.14460   0.28434   0.00000  Uiso   1.00
H36    H     0.09789   0.10979   0.24507   0.00000  Uiso   1.00
H37    H     0.11035   0.07542   0.29196   0.00000  Uiso   1.00
H38    H     0.14042   0.03778   0.09447   0.00000  Uiso   1.00
H39    H     0.19291   0.29556   0.23886   0.00000  Uiso   1.00
H40    H     0.14141   0.29584   0.09418   0.00000  Uiso   1.00
H41    H     0.19193   0.03749   0.23915   0.00000  Uiso   1.00
H42    H     0.22072   0.21701   0.29515   0.00000  Uiso   1.00
H43    H     0.11262   0.11632   0.03819   0.00000  Uiso   1.00
H44    H     0.32146   0.28336   0.06588   0.00000  Uiso   1.00
N45    N     0.16665   0.16666   0.28573   0.00000  Uiso   1.00
N46    N     0.16668   0.16668   0.04760   0.00000  Uiso   1.00
O47    O     0.16666   0.10558   0.20487   0.00000  Uiso   1.00
O48    O     0.16667   0.22775   0.12846   0.00000  Uiso   1.00
O49    O     0.16666   0.10559   0.12843   0.00000  Uiso   1.00
O50    O     0.16667   0.22774   0.20490   0.00000  Uiso   1.00
O51    O     0.09058   0.16666   0.19595   0.00000  Uiso   1.00
O52    O     0.24275   0.16667   0.13739   0.00000  Uiso   1.00
O53    O     0.09058   0.16667   0.11950   0.00000  Uiso   1.00
O54    O     0.24275   0.16666   0.21383   0.00000  Uiso   1.00
Zn55   Zn    0.16667   0.16666   0.21771   0.00000  Uiso   1.00
Zn56   Zn    0.16667   0.16667   0.11563   0.00000  Uiso   1.00
C57    C     0.49968   0.08672   0.16680   0.00000  Uiso   1.00
C58    C     0.51393   0.02125   0.20751   0.00000  Uiso   1.00
C59    C     0.50054   0.29082   0.16644   0.00000  Uiso   1.00
C60    C     0.49946   0.04252   0.16689   0.00000  Uiso   1.00
C61    C     0.53199   0.19438   0.02628   0.00000  Uiso   1.00
C62    C     0.46801   0.13895   0.30705   0.00000  Uiso   1.00
C63    C     0.53053   0.19455   0.31176   0.00000  Uiso   1.00
C64    C     0.46947   0.13879   0.02157   0.00000  Uiso   1.00
C65    C     0.56926   0.22612   0.05182   0.00000  Uiso   1.00
C66    C     0.62653   0.22151   0.04298   0.00000  Uiso   1.00
C67    C     0.66418   0.25026   0.07337   0.00000  Uiso   1.00
C68    C     0.50032   0.24661   0.16654   0.00000  Uiso   1.00
C69    C     0.43074   0.10721   0.28151   0.00000  Uiso   1.00
C70    C     0.37347   0.11182   0.29036   0.00000  Uiso   1.00
C71    C     0.33582   0.08307   0.25996   0.00000  Uiso   1.00
C72    C     0.40057   0.16587   0.15502   0.00000  Uiso   1.00
C73    C     0.59943   0.16746   0.17832   0.00000  Uiso   1.00
C74    C     0.34563   0.16286   0.14909   0.00000  Uiso   1.00
C75    C     0.65437   0.17047   0.18424   0.00000  Uiso   1.00
C76    C     0.48545   0.02142   0.12605   0.00000  Uiso   1.00
C77    C     0.51455   0.31191   0.20728   0.00000  Uiso   1.00
C78    C     0.48607   0.31208   0.12582   0.00000  Uiso   1.00
H79    H     0.65886   0.15363   0.11619   0.00000  Uiso   1.00
H80    H     0.66126   0.24360   0.10962   0.00000  Uiso   1.00
H81    H     0.37189   0.24535   0.06712   0.00000  Uiso   1.00
H82    H     0.63818   0.18873   0.04900   0.00000  Uiso   1.00
H83    H     0.63075   0.22959   0.00727   0.00000  Uiso   1.00
H84    H     0.55631   0.25791   0.04138   0.00000  Uiso   1.00
H85    H     0.56877   0.22355   0.08826   0.00000  Uiso   1.00
H86    H     0.33874   0.08973   0.22371   0.00000  Uiso   1.00
H87    H     0.34520   0.04997   0.26745   0.00000  Uiso   1.00
H88    H     0.62811   0.08798   0.26621   0.00000  Uiso   1.00
H89    H     0.36925   0.10375   0.32606   0.00000  Uiso   1.00
H90    H     0.34114   0.17971   0.21715   0.00000  Uiso   1.00
H91    H     0.36182   0.14460   0.28434   0.00000  Uiso   1.00
H92    H     0.43123   0.10979   0.24507   0.00000  Uiso   1.00
H93    H     0.44369   0.07542   0.29196   0.00000  Uiso   1.00
H94    H     0.47375   0.03778   0.09447   0.00000  Uiso   1.00
H95    H     0.52625   0.29556   0.23886   0.00000  Uiso   1.00
H96    H     0.47474   0.29584   0.09418   0.00000  Uiso   1.00
H97    H     0.52526   0.03749   0.23915   0.00000  Uiso   1.00
H98    H     0.55405   0.21701   0.29515   0.00000  Uiso   1.00
H99    H     0.44595   0.11632   0.03819   0.00000  Uiso   1.00
H100   H     0.65480   0.28336   0.06588   0.00000  Uiso   1.00
N101   N     0.49999   0.16666   0.28573   0.00000  Uiso   1.00
N102   N     0.50001   0.16668   0.04760   0.00000  Uiso   1.00
O103   O     0.50000   0.10558   0.20487   0.00000  Uiso   1.00
O104   O     0.50000   0.22775   0.12846   0.00000  Uiso   1.00
O105   O     0.50000   0.10559   0.12843   0.00000  Uiso   1.00
O106   O     0.50000   0.22774   0.20490   0.00000  Uiso   1.00
O107   O     0.42392   0.16666   0.19595   0.00000  Uiso   1.00
O108   O     0.57608   0.16667   0.13739   0.00000  Uiso   1.00
O109   O     0.42392   0.16667   0.11950   0.00000  Uiso   1.00
O110   O     0.57608   0.16666   0.21383   0.00000  Uiso   1.00
Zn111  Zn    0.50000   0.16666   0.21771   0.00000  Uiso   1.00
Zn112  Zn    0.50000   0.16667   0.11563   0.00000  Uiso   1.00
C113   C     0.83302   0.08672   0.16680   0.00000  Uiso   1.00
C114   C     0.84726   0.02125   0.20751   0.00000  Uiso   1.00
C115   C     0.83388   0.29082   0.16644   0.00000  Uiso   1.00
C116   C     0.83279   0.04252   0.16689   0.00000  Uiso   1.00
C117   C     0.86532   0.19438   0.02628   0.00000  Uiso   1.00
C118   C     0.80135   0.13895   0.30705   0.00000  Uiso   1.00
C119   C     0.86387   0.19455   0.31176   0.00000  Uiso   1.00
C120   C     0.80280   0.13879   0.02157   0.00000  Uiso   1.00
C121   C     0.90259   0.22612   0.05182   0.00000  Uiso   1.00
C122   C     0.95986   0.22151   0.04298   0.00000  Uiso   1.00
C123   C     0.99751   0.25026   0.07337   0.00000  Uiso   1.00
C124   C     0.83365   0.24661   0.16654   0.00000  Uiso   1.00
C125   C     0.76408   0.10721   0.28151   0.00000  Uiso   1.00
C126   C     0.70680   0.11182   0.29036   0.00000  Uiso   1.00
C127   C     0.66915   0.08307   0.25996   0.00000  Uiso   1.00
C128   C     0.73390   0.16587   0.15502   0.00000  Uiso   1.00
C129   C     0.93277   0.16746   0.17832   0.00000  Uiso   1.00
C130   C     0.67897   0.16286   0.14909   0.00000  Uiso   1.00
C131   C     0.98770   0.17047   0.18424   0.00000  Uiso   1.00
C132   C     0.81878   0.02142   0.12605   0.00000  Uiso   1.00
C133   C     0.84788   0.31191   0.20728   0.00000  Uiso   1.00
C134   C     0.81941   0.31208   0.12582   0.00000  Uiso   1.00
H135   H     0.99220   0.15363   0.11619   0.00000  Uiso   1.00
H136   H     0.99460   0.24360   0.10962   0.00000  Uiso   1.00
H137   H     0.70522   0.24535   0.06712   0.00000  Uiso   1.00
H138   H     0.97151   0.18873   0.04900   0.00000  Uiso   1.00
H139   H     0.96408   0.22959   0.00727   0.00000  Uiso   1.00
H140   H     0.88965   0.25791   0.04138   0.00000  Uiso   1.00
H141   H     0.90211   0.22355   0.08826   0.00000  Uiso   1.00
H142   H     0.67207   0.08973   0.22371   0.00000  Uiso   1.00
H143   H     0.67854   0.04997   0.26745   0.00000  Uiso   1.00
H144   H     0.96144   0.08798   0.26621   0.00000  Uiso   1.00
H145   H     0.70259   0.10375   0.32606   0.00000  Uiso   1.00
H146   H     0.67447   0.17971   0.21715   0.00000  Uiso   1.00
H147   H     0.69515   0.14460   0.28434   0.00000  Uiso   1.00
H148   H     0.76456   0.10979   0.24507   0.00000  Uiso   1.00
H149   H     0.77702   0.07542   0.29196   0.00000  Uiso   1.00
H150   H     0.80709   0.03778   0.09447   0.00000  Uiso   1.00
H151   H     0.85958   0.29556   0.23886   0.00000  Uiso   1.00
H152   H     0.80807   0.29584   0.09418   0.00000  Uiso   1.00
H153   H     0.85859   0.03749   0.23915   0.00000  Uiso   1.00
H154   H     0.88738   0.21701   0.29515   0.00000  Uiso   1.00
H155   H     0.77928   0.11632   0.03819   0.00000  Uiso   1.00
H156   H     0.98813   0.28336   0.06588   0.00000  Uiso   1.00
N157   N     0.83332   0.16666   0.28573   0.00000  Uiso   1.00
N158   N     0.83335   0.16668   0.04760   0.00000  Uiso   1.00
O159   O     0.83333   0.10558   0.20487   0.00000  Uiso   1.00
O160   O     0.83334   0.22775   0.12846   0.00000  Uiso   1.00
O161   O     0.83333   0.10559   0.12843   0.00000  Uiso   1.00
O162   O     0.83334   0.22774   0.20490   0.00000  Uiso   1.00
O163   O     0.75725   0.16666   0.19595   0.00000  Uiso   1.00
O164   O     0.90942   0.16667   0.13739   0.00000  Uiso   1.00
O165   O     0.75725   0.16667   0.11950   0.00000  Uiso   1.00
O166   O     0.90942   0.16666   0.21383   0.00000  Uiso   1.00
Zn167  Zn    0.83333   0.16666   0.21771   0.00000  Uiso   1.00
Zn168  Zn    0.83333   0.16667   0.11563   0.00000  Uiso   1.00
C169   C     0.16635   0.42005   0.16680   0.00000  Uiso   1.00
C170   C     0.18059   0.35459   0.20751   0.00000  Uiso   1.00
C171   C     0.16721   0.62415   0.16644   0.00000  Uiso   1.00
C172   C     0.16612   0.37585   0.16689   0.00000  Uiso   1.00
C173   C     0.19865   0.52772   0.02628   0.00000  Uiso   1.00
C174   C     0.13468   0.47228   0.30705   0.00000  Uiso   1.00
C175   C     0.19720   0.52788   0.31176   0.00000  Uiso   1.00
C176   C     0.13613   0.47212   0.02157   0.00000  Uiso   1.00
C177   C     0.23592   0.55945   0.05182   0.00000  Uiso   1.00
C178   C     0.29320   0.55485   0.04298   0.00000  Uiso   1.00
C179   C     0.33085   0.58359   0.07337   0.00000  Uiso   1.00
C180   C     0.16698   0.57995   0.16654   0.00000  Uiso   1.00
C181   C     0.09741   0.44055   0.28151   0.00000  Uiso   1.00
C182   C     0.04014   0.44515   0.29036   0.00000  Uiso   1.00
C183   C     0.00249   0.41641   0.25996   0.00000  Uiso   1.00
C184   C     0.06723   0.49920   0.15502   0.00000  Uiso   1.00
C185   C     0.26610   0.50080   0.17832   0.00000  Uiso   1.00
C186   C     0.01230   0.49620   0.14909   0.00000  Uiso   1.00
C187   C     0.32103   0.50380   0.18424   0.00000  Uiso   1.00
C188   C     0.15212   0.35475   0.12605   0.00000  Uiso   1.00
C189   C     0.18122   0.64525   0.20728   0.00000  Uiso   1.00
C190   C     0.15274   0.64541   0.12582   0.00000  Uiso   1.00
H191   H     0.32553   0.48696   0.11619   0.00000  Uiso   1.00
H192   H     0.32793   0.57694   0.10962   0.00000  Uiso   1.00
H193   H     0.03856   0.57869   0.06712   0.00000  Uiso   1.00
H194   H     0.30485   0.52207   0.04900   0.00000  Uiso   1.00
H195   H     0.29741   0.56292   0.00727   0.00000  Uiso   1.00
H196   H     0.22298   0.59124   0.04138   0.00000  Uiso   1.00
H197   H     0.23544   0.55688   0.08826   0.00000  Uiso   1.00
H198   H     0.00541   0.42306   0.22371   0.00000  Uiso   1.00
H199   H     0.01187   0.38331   0.26745   0.00000  Uiso   1.00
H200   H     0.29478   0.42131   0.26621   0.00000  Uiso   1.00
H201   H     0.03592   0.43708   0.32606   0.00000  Uiso   1.00
H202   H     0.00780   0.51304   0.21715   0.00000  Uiso   1.00
H203   H     0.02849   0.47793   0.28434   0.00000  Uiso   1.00
H204   H     0.09789   0.44312   0.24507   0.00000  Uiso   1.00
H205   H     0.11035   0.40876   0.29196   0.00000  Uiso   1.00
H206   H     0.14042   0.37111   0.09447   0.00000  Uiso   1.00
H207   H     0.19291   0.62889   0.23886   0.00000  Uiso   1.00
H208   H     0.14141   0.62917   0.09418   0.00000  Uiso   1.00
H209   H     0.19193   0.37082   0.23915   0.00000  Uiso   1.00
H210   H     0.22072   0.55034   0.29515   0.00000  Uiso   1.00
H211   H     0.11262   0.44966   0.03819   0.00000  Uiso   1.00
H212   H     0.32146   0.61669   0.06588   0.00000  Uiso   1.00
N213   N     0.16665   0.49999   0.28573   0.00000  Uiso   1.00
N214   N     0.16668   0.50001   0.04760   0.00000  Uiso   1.00
O215   O     0.16666   0.43892   0.20487   0.00000  Uiso   1.00
O216   O     0.16667   0.56108   0.12846   0.00000  Uiso   1.00
O217   O     0.16666   0.43893   0.12843   0.00000  Uiso   1.00
O218   O     0.16667   0.56107   0.20490   0.00000  Uiso   1.00
O219   O     0.09058   0.50000   0.19595   0.00000  Uiso   1.00
O220   O     0.24275   0.50000   0.13739   0.00000  Uiso   1.00
O221   O     0.09058   0.50000   0.11950   0.00000  Uiso   1.00
O222   O     0.24275   0.50000   0.21383   0.00000  Uiso   1.00
Zn223  Zn    0.16667   0.49999   0.21771   0.00000  Uiso   1.00
Zn224  Zn    0.16667   0.50001   0.11563   0.00000  Uiso   1.00
C225   C     0.49968   0.42005   0.16680   0.00000  Uiso   1.00
C226   C     0.51393   0.35459   0.20751   0.00000  Uiso   1.00
C227   C     0.50054   0.62415   0.16644   0.00000  Uiso   1.00
C228   C     0.49946   0.37585   0.16689   0.00000  Uiso   1.00
C229   C     0.53199   0.52772   0.02628   0.00000  Uiso   1.00
C230   C     0.46801   0.47228   0.30705   0.00000  Uiso   1.00
C231   C     0.53053   0.52788   0.31176   0.00000  Uiso   1.00
C232   C     0.46947   0.47212   0.02157   0.00000  Uiso   1.00
C233   C     0.56926   0.55945   0.05182   0.00000  Uiso   1.00
C234   C     0.62653   0.55485   0.04298   0.00000  Uiso   1.00
C235   C     0.66418   0.58359   0.07337   0.00000  Uiso   1.00
C236   C     0.50032   0.57995   0.16654   0.00000  Uiso   1.00
C237   C     0.43074   0.44055   0.28151   0.00000  Uiso   1.00
C238   C     0.37347   0.44515   0.29036   0.00000  Uiso   1.00
C239   C     0.33582   0.41641   0.25996   0.00000  Uiso   1.00
C240   C     0.40057   0.49920   0.15502   0.00000  Uiso   1.00
C241   C     0.59943   0.50080   0.17832   0.00000  Uiso   1.00
C242   C     0.34563   0.49620   0.14909   0.00000  Uiso   1.00
C243   C     0.65437   0.50380   0.18424   0.00000  Uiso   1.00
C244   C     0.48545   0.35475   0.12605   0.00000  Uiso   1.00
C245   C     0.51455   0.64525   0.20728   0.00000  Uiso   1.00
C246   C     0.48607   0.64541   0.12582   0.00000  Uiso   1.00
H247   H     0.65886   0.48696   0.11619   0.00000  Uiso   1.00
H248   H     0.66126   0.57694   0.10962   0.00000  Uiso   1.00
H249   H     0.37189   0.57869   0.06712   0.00000  Uiso   1.00
H250   H     0.63818   0.52207   0.04900   0.00000  Uiso   1.00
H251   H     0.63075   0.56292   0.00727   0.00000  Uiso   1.00
H252   H     0.55631   0.59124   0.04138   0.00000  Uiso   1.00
H253   H     0.56877   0.55688   0.08826   0.00000  Uiso   1.00
H254   H     0.33874   0.42306   0.22371   0.00000  Uiso   1.00
H255   H     0.34520   0.38331   0.26745   0.00000  Uiso   1.00
H256   H     0.62811   0.42131   0.26621   0.00000  Uiso   1.00
H257   H     0.36925   0.43708   0.32606   0.00000  Uiso   1.00
H258   H     0.34114   0.51304   0.21715   0.00000  Uiso   1.00
H259   H     0.36182   0.47793   0.28434   0.00000  Uiso   1.00
H260   H     0.43123   0.44312   0.24507   0.00000  Uiso   1.00
H261   H     0.44369   0.40876   0.29196   0.00000  Uiso   1.00
H262   H     0.47375   0.37111   0.09447   0.00000  Uiso   1.00
H263   H     0.52625   0.62889   0.23886   0.00000  Uiso   1.00
H264   H     0.47474   0.62917   0.09418   0.00000  Uiso   1.00
H265   H     0.52526   0.37082   0.23915   0.00000  Uiso   1.00
H266   H     0.55405   0.55034   0.29515   0.00000  Uiso   1.00
H267   H     0.44595   0.44966   0.03819   0.00000  Uiso   1.00
H268   H     0.65480   0.61669   0.06588   0.00000  Uiso   1.00
N269   N     0.49999   0.49999   0.28573   0.00000  Uiso   1.00
N270   N     0.50001   0.50001   0.04760   0.00000  Uiso   1.00
O271   O     0.50000   0.43892   0.20487   0.00000  Uiso   1.00
O272   O     0.50000   0.56108   0.12846   0.00000  Uiso   1.00
O273   O     0.50000   0.43893   0.12843   0.00000  Uiso   1.00
O274   O     0.50000   0.56107   0.20490   0.00000  Uiso   1.00
O275   O     0.42392   0.50000   0.19595   0.00000  Uiso   1.00
O276   O     0.57608   0.50000   0.13739   0.00000  Uiso   1.00
O277   O     0.42392   0.50000   0.11950   0.00000  Uiso   1.00
O278   O     0.57608   0.50000   0.21383   0.00000  Uiso   1.00
Zn279  Zn    0.50000   0.49999   0.21771   0.00000  Uiso   1.00
Zn280  Zn    0.50000   0.50001   0.11563   0.00000  Uiso   1.00
C281   C     0.83302   0.42005   0.16680   0.00000  Uiso   1.00
C282   C     0.84726   0.35459   0.20751   0.00000  Uiso   1.00
C283   C     0.83388   0.62415   0.16644   0.00000  Uiso   1.00
C284   C     0.83279   0.37585   0.16689   0.00000  Uiso   1.00
C285   C     0.86532   0.52772   0.02628   0.00000  Uiso   1.00
C286   C     0.80135   0.47228   0.30705   0.00000  Uiso   1.00
C287   C     0.86387   0.52788   0.31176   0.00000  Uiso   1.00
C288   C     0.80280   0.47212   0.02157   0.00000  Uiso   1.00
C289   C     0.90259   0.55945   0.05182   0.00000  Uiso   1.00
C290   C     0.95986   0.55485   0.04298   0.00000  Uiso   1.00
C291   C     0.99751   0.58359   0.07337   0.00000  Uiso   1.00
C292   C     0.83365   0.57995   0.16654   0.00000  Uiso   1.00
C293   C     0.76408   0.44055   0.28151   0.00000  Uiso   1.00
C294   C     0.70680   0.44515   0.29036   0.00000  Uiso   1.00
C295   C     0.66915   0.41641   0.25996   0.00000  Uiso   1.00
C296   C     0.73390   0.49920   0.15502   0.00000  Uiso   1.00
C297   C     0.93277   0.50080   0.17832   0.00000  Uiso   1.00
C298   C     0.67897   0.49620   0.14909   0.00000  Uiso   1.00
C299   C     0.98770   0.50380   0.18424   0.00000  Uiso   1.00
C300   C     0.81878   0.35475   0.12605   0.00000  Uiso   1.00
C301   C     0.84788   0.64525   0.20728   0.00000  Uiso   1.00
C302   C     0.81941   0.64541   0.12582   0.00000  Uiso   1.00
H303   H     0.99220   0.48696   0.11619   0.00000  Uiso   1.00
H304   H     0.99460   0.57694   0.10962   0.00000  Uiso   1.00
H305   H     0.70522   0.57869   0.06712   0.00000  Uiso   1.00
H306   H     0.97151   0.52207   0.04900   0.00000  Uiso   1.00
H307   H     0.96408   0.56292   0.00727   0.00000  Uiso   1.00
H308   H     0.88965   0.59124   0.04138   0.00000  Uiso   1.00
H309   H     0.90211   0.55688   0.08826   0.00000  Uiso   1.00
H310   H     0.67207   0.42306   0.22371   0.00000  Uiso   1.00
H311   H     0.67854   0.38331   0.26745   0.00000  Uiso   1.00
H312   H     0.96144   0.42131   0.26621   0.00000  Uiso   1.00
H313   H     0.70259   0.43708   0.32606   0.00000  Uiso   1.00
H314   H     0.67447   0.51304   0.21715   0.00000  Uiso   1.00
H315   H     0.69515   0.47793   0.28434   0.00000  Uiso   1.00
H316   H     0.76456   0.44312   0.24507   0.00000  Uiso   1.00
H317   H     0.77702   0.40876   0.29196   0.00000  Uiso   1.00
H318   H     0.80709   0.37111   0.09447   0.00000  Uiso   1.00
H319   H     0.85958   0.62889   0.23886   0.00000  Uiso   1.00
H320   H     0.80807   0.62917   0.09418   0.00000  Uiso   1.00
H321   H     0.85859   0.37082   0.23915   0.00000  Uiso   1.00
H322   H     0.88738   0.55034   0.29515   0.00000  Uiso   1.00
H323   H     0.77928   0.44966   0.03819   0.00000  Uiso   1.00
H324   H     0.98813   0.61669   0.06588   0.00000  Uiso   1.00
N325   N     0.83332   0.49999   0.28573   0.00000  Uiso   1.00
N326   N     0.83335   0.50001   0.04760   0.00000  Uiso   1.00
O327   O     0.83333   0.43892   0.20487   0.00000  Uiso   1.00
O328   O     0.83334   0.56108   0.12846   0.00000  Uiso   1.00
O329   O     0.83333   0.43893   0.12843   0.00000  Uiso   1.00
O330   O     0.83334   0.56107   0.20490   0.00000  Uiso   1.00
O331   O     0.75725   0.50000   0.19595   0.00000  Uiso   1.00
O332   O     0.90942   0.50000   0.13739   0.00000  Uiso   1.00
O333   O     0.75725   0.50000   0.11950   0.00000  Uiso   1.00
O334   O     0.90942   0.50000   0.21383   0.00000  Uiso   1.00
Zn335  Zn    0.83333   0.49999   0.21771   0.00000  Uiso   1.00
Zn336  Zn    0.83333   0.50001   0.11563   0.00000  Uiso   1.00
C337   C     0.16635   0.75339   0.16680   0.00000  Uiso   1.00
C338   C     0.18059   0.68792   0.20751   0.00000  Uiso   1.00
C339   C     0.16721   0.95748   0.16644   0.00000  Uiso   1.00
C340   C     0.16612   0.70918   0.16689   0.00000  Uiso   1.00
C341   C     0.19865   0.86105   0.02628   0.00000  Uiso   1.00
C342   C     0.13468   0.80562   0.30705   0.00000  Uiso   1.00
C343   C     0.19720   0.86121   0.31176   0.00000  Uiso   1.00
C344   C     0.13613   0.80545   0.02157   0.00000  Uiso   1.00
C345   C     0.23592   0.89278   0.05182   0.00000  Uiso   1.00
C346   C     0.29320   0.88818   0.04298   0.00000  Uiso   1.00
C347   C     0.33085   0.91692   0.07337   0.00000  Uiso   1.00
C348   C     0.16698   0.91328   0.16654   0.00000  Uiso   1.00
C349   C     0.09741   0.77388   0.28151   0.00000  Uiso   1.00
C350   C     0.04014   0.77849   0.29036   0.00000  Uiso   1.00
C351   C     0.00249   0.74974   0.25996   0.00000  Uiso   1.00
C352   C     0.06723   0.83254   0.15502   0.00000  Uiso   1.00
C353   C     0.26610   0.83413   0.17832   0.00000  Uiso   1.00
C354   C     0.01230   0.82953   0.14909   0.00000  Uiso   1.00
C355   C     0.32103   0.83714   0.18424   0.00000  Uiso   1.00
C356   C     0.15212   0.68809   0.12605   0.00000  Uiso   1.00
C357   C     0.18122   0.97858   0.20728   0.00000  Uiso   1.00
C358   C     0.15274   0.97875   0.12582   0.00000  Uiso   1.00
H359   H     0.32553   0.82029   0.11619   0.00000  Uiso   1.00
H360   H     0.32793   0.91027   0.10962   0.00000  Uiso   1.00
H361   H     0.03856   0.91202   0.06712   0.00000  Uiso   1.00
H362   H     0.30485   0.85540   0.04900   0.00000  Uiso   1.00
H363   H     0.29741   0.89625   0.00727   0.00000  Uiso   1.00
H364   H     0.22298   0.92458   0.04138   0.00000  Uiso   1.00
H365   H     0.23544   0.89021   0.08826   0.00000  Uiso   1.00
H366   H     0.00541   0.75639   0.22371   0.00000  Uiso   1.00
H367   H     0.01187   0.71664   0.26745   0.00000  Uiso   1.00
H368   H     0.29478   0.75465   0.26621   0.00000  Uiso   1.00
H369   H     0.03592   0.77041   0.32606   0.00000  Uiso   1.00
H370   H     0.00780   0.84637   0.21715   0.00000  Uiso   1.00
H371   H     0.02849   0.81127   0.28434   0.00000  Uiso   1.00
H372   H     0.09789   0.77645   0.24507   0.00000  Uiso   1.00
H373   H     0.11035   0.74209   0.29196   0.00000  Uiso   1.00
H374   H     0.14042   0.70444   0.09447   0.00000  Uiso   1.00
H375   H     0.19291   0.96222   0.23886   0.00000  Uiso   1.00
H376   H     0.14141   0.96251   0.09418   0.00000  Uiso   1.00
H377   H     0.19193   0.70416   0.23915   0.00000  Uiso   1.00
H378   H     0.22072   0.88368   0.29515   0.00000  Uiso   1.00
H379   H     0.11262   0.78299   0.03819   0.00000  Uiso   1.00
H380   H     0.32146   0.95003   0.06588   0.00000  Uiso   1.00
N381   N     0.16665   0.83332   0.28573   0.00000  Uiso   1.00
N382   N     0.16668   0.83334   0.04760   0.00000  Uiso   1.00
O383   O     0.16666   0.77225   0.20487   0.00000  Uiso   1.00
O384   O     0.16667   0.89442   0.12846   0.00000  Uiso   1.00
O385   O     0.16666   0.77226   0.12843   0.00000  Uiso   1.00
O386   O     0.16667   0.89441   0.20490   0.00000  Uiso   1.00
O387   O     0.09058   0.83333   0.19595   0.00000  Uiso   1.00
O388   O     0.24275   0.83334   0.13739   0.00000  Uiso   1.00
O389   O     0.09058   0.83334   0.11950   0.00000  Uiso   1.00
O390   O     0.24275   0.83333   0.21383   0.00000  Uiso   1.00
Zn391  Zn    0.16667   0.83333   0.21771   0.00000  Uiso   1.00
Zn392  Zn    0.16667   0.83334   0.11563   0.00000  Uiso   1.00
C393   C     0.49968   0.75339   0.16680   0.00000  Uiso   1.00
C394   C     0.51393   0.68792   0.20751   0.00000  Uiso   1.00
C395   C     0.50054   0.95748   0.16644   0.00000  Uiso   1.00
C396   C     0.49946   0.70918   0.16689   0.00000  Uiso   1.00
C397   C     0.53199   0.86105   0.02628   0.00000  Uiso   1.00
C398   C     0.46801   0.80562   0.30705   0.00000  Uiso   1.00
C399   C     0.53053   0.86121   0.31176   0.00000  Uiso   1.00
C400   C     0.46947   0.80545   0.02157   0.00000  Uiso   1.00
C401   C     0.56926   0.89278   0.05182   0.00000  Uiso   1.00
C402   C     0.62653   0.88818   0.04298   0.00000  Uiso   1.00
C403   C     0.66418   0.91692   0.07337   0.00000  Uiso   1.00
C404   C     0.50032   0.91328   0.16654   0.00000  Uiso   1.00
C405   C     0.43074   0.77388   0.28151   0.00000  Uiso   1.00
C406   C     0.37347   0.77849   0.29036   0.00000  Uiso   1.00
C407   C     0.33582   0.74974   0.25996   0.00000  Uiso   1.00
C408   C     0.40057   0.83254   0.15502   0.00000  Uiso   1.00
C409   C     0.59943   0.83413   0.17832   0.00000  Uiso   1.00
C410   C     0.34563   0.82953   0.14909   0.00000  Uiso   1.00
C411   C     0.65437   0.83714   0.18424   0.00000  Uiso   1.00
C412   C     0.48545   0.68809   0.12605   0.00000  Uiso   1.00
C413   C     0.51455   0.97858   0.20728   0.00000  Uiso   1.00
C414   C     0.48607   0.97875   0.12582   0.00000  Uiso   1.00
H415   H     0.65886   0.82029   0.11619   0.00000  Uiso   1.00
H416   H     0.66126   0.91027   0.10962   0.00000  Uiso   1.00
H417   H     0.37189   0.91202   0.06712   0.00000  Uiso   1.00
H418   H     0.63818   0.85540   0.04900   0.00000  Uiso   1.00
H419   H     0.63075   0.89625   0.00727   0.00000  Uiso   1.00
H420   H     0.55631   0.92458   0.04138   0.00000  Uiso   1.00
H421   H     0.56877   0.89021   0.08826   0.00000  Uiso   1.00
H422   H     0.33874   0.75639   0.22371   0.00000  Uiso   1.00
H423   H     0.34520   0.71664   0.26745   0.00000  Uiso   1.00
H424   H     0.62811   0.75465   0.26621   0.00000  Uiso   1.00
H425   H     0.36925   0.77041   0.32606   0.00000  Uiso   1.00
H426   H     0.34114   0.84637   0.21715   0.00000  Uiso   1.00
H427   H     0.36182   0.81127   0.28434   0.00000  Uiso   1.00
H428   H     0.43123   0.77645   0.24507   0.00000  Uiso   1.00
H429   H     0.44369   0.74209   0.29196   0.00000  Uiso   1.00
H430   H     0.47375   0.70444   0.09447   0.00000  Uiso   1.00
H431   H     0.52625   0.96222   0.23886   0.00000  Uiso   1.00
H432   H     0.47474   0.96251   0.09418   0.00000  Uiso   1.00
H433   H     0.52526   0.70416   0.23915   0.00000  Uiso   1.00
H434   H     0.55405   0.88368   0.29515   0.00000  Uiso   1.00
H435   H     0.44595   0.78299   0.03819   0.00000  Uiso   1.00
H436   H     0.65480   0.95003   0.06588   0.00000  Uiso   1.00
N437   N     0.49999   0.83332   0.28573   0.00000  Uiso   1.00
N438   N     0.50001   0.83334   0.04760   0.00000  Uiso   1.00
O439   O     0.50000   0.77225   0.20487   0.00000  Uiso   1.00
O440   O     0.50000   0.89442   0.12846   0.00000  Uiso   1.00
O441   O     0.50000   0.77226   0.12843   0.00000  Uiso   1.00
O442   O     0.50000   0.89441   0.20490   0.00000  Uiso   1.00
O443   O     0.42392   0.83333   0.19595   0.00000  Uiso   1.00
O444   O     0.57608   0.83334   0.13739   0.00000  Uiso   1.00
O445   O     0.42392   0.83334   0.11950   0.00000  Uiso   1.00
O446   O     0.57608   0.83333   0.21383   0.00000  Uiso   1.00
Zn447  Zn    0.50000   0.83333   0.21771   0.00000  Uiso   1.00
Zn448  Zn    0.50000   0.83334   0.11563   0.00000  Uiso   1.00
C449   C     0.83302   0.75339   0.16680   0.00000  Uiso   1.00
C450   C     0.84726   0.68792   0.20751   0.00000  Uiso   1.00
C451   C     0.83388   0.95748   0.16644   0.00000  Uiso   1.00
C452   C     0.83279   0.70918   0.16689   0.00000  Uiso   1.00
C453   C     0.86532   0.86105   0.02628   0.00000  Uiso   1.00
C454   C     0.80135   0.80562   0.30705   0.00000  Uiso   1.00
C455   C     0.86387   0.86121   0.31176   0.00000  Uiso   1.00
C456   C     0.80280   0.80545   0.02157   0.00000  Uiso   1.00
C457   C     0.90259   0.89278   0.05182   0.00000  Uiso   1.00
C458   C     0.95986   0.88818   0.04298   0.00000  Uiso   1.00
C459   C     0.99751   0.91692   0.07337   0.00000  Uiso   1.00
C460   C     0.83365   0.91328   0.16654   0.00000  Uiso   1.00
C461   C     0.76408   0.77388   0.28151   0.00000  Uiso   1.00
C462   C     0.70680   0.77849   0.29036   0.00000  Uiso   1.00
C463   C     0.66915   0.74974   0.25996   0.00000  Uiso   1.00
C464   C     0.73390   0.83254   0.15502   0.00000  Uiso   1.00
C465   C     0.93277   0.83413   0.17832   0.00000  Uiso   1.00
C466   C     0.67897   0.82953   0.14909   0.00000  Uiso   1.00
C467   C     0.98770   0.83714   0.18424   0.00000  Uiso   1.00
C468   C     0.81878   0.68809   0.12605   0.00000  Uiso   1.00
C469   C     0.84788   0.97858   0.20728   0.00000  Uiso   1.00
C470   C     0.81941   0.97875   0.12582   0.00000  Uiso   1.00
H471   H     0.99220   0.82029   0.11619   0.00000  Uiso   1.00
H472   H     0.99460   0.91027   0.10962   0.00000  Uiso   1.00
H473   H     0.70522   0.91202   0.06712   0.00000  Uiso   1.00
H474   H     0.97151   0.85540   0.04900   0.00000  Uiso   1.00
H475   H     0.96408   0.89625   0.00727   0.00000  Uiso   1.00
H476   H     0.88965   0.92458   0.04138   0.00000  Uiso   1.00
H477   H     0.90211   0.89021   0.08826   0.00000  Uiso   1.00
H478   H     0.67207   0.75639   0.22371   0.00000  Uiso   1.00
H479   H     0.67854   0.71664   0.26745   0.00000  Uiso   1.00
H480   H     0.96144   0.75465   0.26621   0.00000  Uiso   1.00
H481   H     0.70259   0.77041   0.32606   0.00000  Uiso   1.00
H482   H     0.67447   0.84637   0.21715   0.00000  Uiso   1.00
H483   H     0.69515   0.81127   0.28434   0.00000  Uiso   1.00
H484   H     0.76456   0.77645   0.24507   0.00000  Uiso   1.00
H485   H     0.77702   0.74209   0.29196   0.00000  Uiso   1.00
H486   H     0.80709   0.70444   0.09447   0.00000  Uiso   1.00
H487   H     0.85958   0.96222   0.23886   0.00000  Uiso   1.00
H488   H     0.80807   0.96251   0.09418   0.00000  Uiso   1.00
H489   H     0.85859   0.70416   0.23915   0.00000  Uiso   1.00
H490   H     0.88738   0.88368   0.29515   0.00000  Uiso   1.00
H491   H     0.77928   0.78299   0.03819   0.00000  Uiso   1.00
H492   H     0.98813   0.95003   0.06588   0.00000  Uiso   1.00
N493   N     0.83332   0.83332   0.28573   0.00000  Uiso   1.00
N494   N     0.83335   0.83334   0.04760   0.00000  Uiso   1.00
O495   O     0.83333   0.77225   0.20487   0.00000  Uiso   1.00
O496   O     0.83334   0.89442   0.12846   0.00000  Uiso   1.00
O497   O     0.83333   0.77226   0.12843   0.00000  Uiso   1.00
O498   O     0.83334   0.89441   0.20490   0.00000  Uiso   1.00
O499   O     0.75725   0.83333   0.19595   0.00000  Uiso   1.00
O500   O     0.90942   0.83334   0.13739   0.00000  Uiso   1.00
O501   O     0.75725   0.83334   0.11950   0.00000  Uiso   1.00
O502   O     0.90942   0.83333   0.21383   0.00000  Uiso   1.00
Zn503  Zn    0.83333   0.83333   0.21771   0.00000  Uiso   1.00
Zn504  Zn    0.83333   0.83334   0.11563   0.00000  Uiso   1.00
C505   C     0.16635   0.08672   0.50013   0.00000  Uiso   1.00
C506   C     0.18059   0.02125   0.54084   0.00000  Uiso   1.00
C507   C     0.16721   0.29082   0.49978   0.00000  Uiso   1.00
C508   C     0.16612   0.04252   0.50022   0.00000  Uiso   1.00
C509   C     0.19865   0.19438   0.35961   0.00000  Uiso   1.00
C510   C     0.13468   0.13895   0.64039   0.00000  Uiso   1.00
C511   C     0.19720   0.19455   0.64510   0.00000  Uiso   1.00
C512   C     0.13613   0.13879   0.35490   0.00000  Uiso   1.00
C513   C     0.23592   0.22612   0.38516   0.00000  Uiso   1.00
C514   C     0.29320   0.22151   0.37631   0.00000  Uiso   1.00
C515   C     0.33085   0.25026   0.40670   0.00000  Uiso   1.00
C516   C     0.16698   0.24661   0.49987   0.00000  Uiso   1.00
C517   C     0.09741   0.10721   0.61484   0.00000  Uiso   1.00
C518   C     0.04014   0.11182   0.62369   0.00000  Uiso   1.00
C519   C     0.00249   0.08307   0.59330   0.00000  Uiso   1.00
C520   C     0.06723   0.16587   0.48835   0.00000  Uiso   1.00
C521   C     0.26610   0.16746   0.51165   0.00000  Uiso   1.00
C522   C     0.01230   0.16286   0.48243   0.00000  Uiso   1.00
C523   C     0.32103   0.17047   0.51757   0.00000  Uiso   1.00
C524   C     0.15212   0.02142   0.45938   0.00000  Uiso   1.00
C525   C     0.18122   0.31191   0.54061   0.00000  Uiso   1.00
C526   C     0.15274   0.31208   0.45916   0.00000  Uiso   1.00
H527   H     0.32553   0.15363   0.44952   0.00000  Uiso   1.00
H528   H     0.32793   0.24360   0.44295   0.00000  Uiso   1.00
H529   H     0.03856   0.24535   0.40046   0.00000  Uiso   1.00
H530   H     0.30485   0.18873   0.38233   0.00000  Uiso   1.00
H531   H     0.29741   0.22959   0.34061   0.00000  Uiso   1.00
H532   H     0.22298   0.25791   0.37471   0.00000  Uiso   1.00
H533   H     0.23544   0.22355   0.42159   0.00000  Uiso   1.00
H534   H     0.00541   0.08973   0.55705   0.00000  Uiso   1.00
H535   H     0.01187   0.04997   0.60078   0.00000  Uiso   1.00
H536   H     0.29478   0.08798   0.59954   0.00000  Uiso   1.00
H537   H     0.03592   0.10375   0.65939   0.00000  Uiso   1.00
H538   H     0.00780   0.17971   0.55048   0.00000  Uiso   1.00
H539   H     0.02849   0.14460   0.61767   0.00000  Uiso   1.00
H540   H     0.09789   0.10979   0.57841   0.00000  Uiso   1.00
H541   H     0.11035   0.07542   0.62529   0.00000  Uiso   1.00
H542   H     0.14042   0.03778   0.42781   0.00000  Uiso   1.00
H543   H     0.19291   0.29556   0.57219   0.00000  Uiso   1.00
H544   H     0.14141   0.29584   0.42751   0.00000  Uiso   1.00
H545   H     0.19193   0.03749   0.57249   0.00000  Uiso   1.00
H546   H     0.22072   0.21701   0.62848   0.00000  Uiso   1.00
H547   H     0.11262   0.11632   0.37152   0.00000  Uiso   1.00
H548   H     0.32146   0.28336   0.39922   0.00000  Uiso   1.00
N549   N     0.16665   0.16666   0.61907   0.00000  Uiso   1.00
N550   N     0.16668   0.16668   0.38093   0.00000  Uiso   1.00
O551   O     0.16666   0.10558   0.53821   0.00000  Uiso   1.00
O552   O     0.16667   0.22775   0.46179   0.00000  Uiso   1.00
O553   O     0.16666   0.10559   0.46176   0.00000  Uiso   1.00
O554   O     0.16667   0.22774   0.53824   0.00000  Uiso   1.00
O555   O     0.09058   0.16666   0.52928   0.00000  Uiso   1.00
O556   O     0.24275   0.16667   0.47072   0.00000  Uiso   1.00
O557   O     0.09058   0.16667   0.45284   0.00000  Uiso   1.00
O558   O     0.24275   0.16666   0.54716   0.00000  Uiso   1.00
Zn559  Zn    0.16667   0.16666   0.55104   0.00000  Uiso   1.00
Zn560  Zn    0.16667   0.16667   0.44896   0.00000  Uiso   1.00
C561   C     0.49968   0.08672   0.50013   0.00000  Uiso   1.00
C562   C     0.51393   0.02125   0.54084   0.00000  Uiso   1.00
C563   C     0.50054   0.29082   0.49978   0.00000  Uiso   1.00
C564   C     0.49946   0.04252   0.50022   0.00000  Uiso   1.00
C565   C     0.53199   0.19438   0.35961   0.00000  Uiso   1.00
C566   C     0.46801   0.13895   0.64039   0.00000  Uiso   1.00
C567   C     0.53053   0.19455   0.64510   0.00000  Uiso   1.00
C568   C     0.46947   0.13879   0.35490   0.00000  Uiso   1.00
C569   C     0.56926   0.22612   0.38516   0.00000  Uiso   1.00
C570   C     0.62653   0.22151   0.37631   0.00000  Uiso   1.00
C571   C     0.66418   0.25026   0.40670   0.00000  Uiso   1.00
C572   C     0.50032   0.24661   0.49987   0.00000  Uiso   1.00
C573   C     0.43074   0.10721   0.61484   0.00000  Uiso   1.00
C574   C     0.37347   0.11182   0.62369   0.00000  Uiso   1.00
C575   C     0.33582   0.08307   0.59330   0.00000  Uiso   1.00
C576   C     0.40057   0.16587   0.48835   0.00000  Uiso   1.00
C577   C     0.59943   0.16746   0.51165   0.00000  Uiso   1.00
C578   C     0.34563   0.16286   0.48243   0.00000  Uiso   1.00
C579   C     0.65437   0.17047   0.51757   0.00000  Uiso   1.00
C580   C     0.48545   0.02142   0.45938   0.00000  Uiso   1.00
C581   C     0.51455   0.31191   0.54061   0.00000  Uiso   1.00
C582   C     0.48607   0.31208   0.45916   0.00000  Uiso   1.00
H583   H     0.65886   0.15363   0.44952   0.00000  Uiso   1.00
H584   H     0.66126   0.24360   0.44295   0.00000  Uiso   1.00
H585   H     0.37189   0.24535   0.40046   0.00000  Uiso   1.00
H586   H     0.63818   0.18873   0.38233   0.00000  Uiso   1.00
H587   H     0.63075   0.22959   0.34061   0.00000  Uiso   1.00
H588   H     0.55631   0.25791   0.37471   0.00000  Uiso   1.00
H589   H     0.56877   0.22355   0.42159   0.00000  Uiso   1.00
H590   H     0.33874   0.08973   0.55705   0.00000  Uiso   1.00
H591   H     0.34520   0.04997   0.60078   0.00000  Uiso   1.00
H592   H     0.62811   0.08798   0.59954   0.00000  Uiso   1.00
H593   H     0.36925   0.10375   0.65939   0.00000  Uiso   1.00
H594   H     0.34114   0.17971   0.55048   0.00000  Uiso   1.00
H595   H     0.36182   0.14460   0.61767   0.00000  Uiso   1.00
H596   H     0.43123   0.10979   0.57841   0.00000  Uiso   1.00
H597   H     0.44369   0.07542   0.62529   0.00000  Uiso   1.00
H598   H     0.47375   0.03778   0.42781   0.00000  Uiso   1.00
H599   H     0.52625   0.29556   0.57219   0.00000  Uiso   1.00
H600   H     0.47474   0.29584   0.42751   0.00000  Uiso   1.00
H601   H     0.52526   0.03749   0.57249   0.00000  Uiso   1.00
H602   H     0.55405   0.21701   0.62848   0.00000  Uiso   1.00
H603   H     0.44595   0.11632   0.37152   0.00000  Uiso   1.00
H604   H     0.65480   0.28336   0.39922   0.00000  Uiso   1.00
N605   N     0.49999   0.16666   0.61907   0.00000  Uiso   1.00
N606   N     0.50001   0.16668   0.38093   0.00000  Uiso   1.00
O607   O     0.50000   0.10558   0.53821   0.00000  Uiso   1.00
O608   O     0.50000   0.22775   0.46179   0.00000  Uiso   1.00
O609   O     0.50000   0.10559   0.46176   0.00000  Uiso   1.00
O610   O     0.50000   0.22774   0.53824   0.00000  Uiso   1.00
O611   O     0.42392   0.16666   0.52928   0.00000  Uiso   1.00
O612   O     0.57608   0.16667   0.47072   0.00000  Uiso   1.00
O613   O     0.42392   0.16667   0.45284   0.00000  Uiso   1.00
O614   O     0.57608   0.16666   0.54716   0.00000  Uiso   1.00
Zn615  Zn    0.50000   0.16666   0.55104   0.00000  Uiso   1.00
Zn616  Zn    0.50000   0.16667   0.44896   0.00000  Uiso   1.00
C617   C     0.83302   0.08672   0.50013   0.00000  Uiso   1.00
C618   C     0.84726   0.02125   0.54084   0.00000  Uiso   1.00
C619   C     0.83388   0.29082   0.49978   0.00000  Uiso   1.00
C620   C     0.83279   0.04252   0.50022   0.00000  Uiso   1.00
C621   C     0.86532   0.19438   0.35961   0.00000  Uiso   1.00
C622   C     0.80135   0.13895   0.64039   0.00000  Uiso   1.00
C623   C     0.86387   0.19455   0.64510   0.00000  Uiso   1.00
C624   C     0.80280   0.13879   0.35490   0.00000  Uiso   1.00
C625   C     0.90259   0.22612   0.38516   0.00000  Uiso   1.00
C626   C     0.95986   0.22151   0.37631   0.00000  Uiso   1.00
C627   C     0.99751   0.25026   0.40670   0.00000  Uiso   1.00
C628   C     0.83365   0.24661   0.49987   0.00000  Uiso   1.00
C629   C     0.76408   0.10721   0.61484   0.00000  Uiso   1.00
C630   C     0.70680   0.11182   0.62369   0.00000  Uiso   1.00
C631   C     0.66915   0.08307   0.59330   0.00000  Uiso   1.00
C632   C     0.73390   0.16587   0.48835   0.00000  Uiso   1.00
C633   C     0.93277   0.16746   0.51165   0.00000  Uiso   1.00
C634   C     0.67897   0.16286   0.48243   0.00000  Uiso   1.00
C635   C     0.98770   0.17047   0.51757   0.00000  Uiso   1.00
C636   C     0.81878   0.02142   0.45938   0.00000  Uiso   1.00
C637   C     0.84788   0.31191   0.54061   0.00000  Uiso   1.00
C638   C     0.81941   0.31208   0.45916   0.00000  Uiso   1.00
H639   H     0.99220   0.15363   0.44952   0.00000  Uiso   1.00
H640   H     0.99460   0.24360   0.44295   0.00000  Uiso   1.00
H641   H     0.70522   0.24535   0.40046   0.00000  Uiso   1.00
H642   H     0.97151   0.18873   0.38233   0.00000  Uiso   1.00
H643   H     0.96408   0.22959   0.34061   0.00000  Uiso   1.00
H644   H     0.88965   0.25791   0.37471   0.00000  Uiso   1.00
H645   H     0.90211   0.22355   0.42159   0.00000  Uiso   1.00
H646   H     0.67207   0.08973   0.55705   0.00000  Uiso   1.00
H647   H     0.67854   0.04997   0.60078   0.00000  Uiso   1.00
H648   H     0.96144   0.08798   0.59954   0.00000  Uiso   1.00
H649   H     0.70259   0.10375   0.65939   0.00000  Uiso   1.00
H650   H     0.67447   0.17971   0.55048   0.00000  Uiso   1.00
H651   H     0.69515   0.14460   0.61767   0.00000  Uiso   1.00
H652   H     0.76456   0.10979   0.57841   0.00000  Uiso   1.00
H653   H     0.77702   0.07542   0.62529   0.00000  Uiso   1.00
H654   H     0.80709   0.03778   0.42781   0.00000  Uiso   1.00
H655   H     0.85958   0.29556   0.57219   0.00000  Uiso   1.00
H656   H     0.80807   0.29584   0.42751   0.00000  Uiso   1.00
H657   H     0.85859   0.03749   0.57249   0.00000  Uiso   1.00
H658   H     0.88738   0.21701   0.62848   0.00000  Uiso   1.00
H659   H     0.77928   0.11632   0.37152   0.00000  Uiso   1.00
H660   H     0.98813   0.28336   0.39922   0.00000  Uiso   1.00
N661   N     0.83332   0.16666   0.61907   0.00000  Uiso   1.00
N662   N     0.83335   0.16668   0.38093   0.00000  Uiso   1.00
O663   O     0.83333   0.10558   0.53821   0.00000  Uiso   1.00
O664   O     0.83334   0.22775   0.46179   0.00000  Uiso   1.00
O665   O     0.83333   0.10559   0.46176   0.00000  Uiso   1.00
O666   O     0.83334   0.22774   0.53824   0.00000  Uiso   1.00
O667   O     0.75725   0.16666   0.52928   0.00000  Uiso   1.00
O668   O     0.90942   0.16667   0.47072   0.00000  Uiso   1.00
O669   O     0.75725   0.16667   0.45284   0.00000  Uiso   1.00
O670   O     0.90942   0.16666   0.54716   0.00000  Uiso   1.00
Zn671  Zn    0.83333   0.16666   0.55104   0.00000  Uiso   1.00
Zn672  Zn    0.83333   0.16667   0.44896   0.00000  Uiso   1.00
C673   C     0.16635   0.42005   0.50013   0.00000  Uiso   1.00
C674   C     0.18059   0.35459   0.54084   0.00000  Uiso   1.00
C675   C     0.16721   0.62415   0.49978   0.00000  Uiso   1.00
C676   C     0.16612   0.37585   0.50022   0.00000  Uiso   1.00
C677   C     0.19865   0.52772   0.35961   0.00000  Uiso   1.00
C678   C     0.13468   0.47228   0.64039   0.00000  Uiso   1.00
C679   C     0.19720   0.52788   0.64510   0.00000  Uiso   1.00
C680   C     0.13613   0.47212   0.35490   0.00000  Uiso   1.00
C681   C     0.23592   0.55945   0.38516   0.00000  Uiso   1.00
C682   C     0.29320   0.55485   0.37631   0.00000  Uiso   1.00
C683   C     0.33085   0.58359   0.40670   0.00000  Uiso   1.00
C684   C     0.16698   0.57995   0.49987   0.00000  Uiso   1.00
C685   C     0.09741   0.44055   0.61484   0.00000  Uiso   1.00
C686   C     0.04014   0.44515   0.62369   0.00000  Uiso   1.00
C687   C     0.00249   0.41641   0.59330   0.00000  Uiso   1.00
C688   C     0.06723   0.49920   0.48835   0.00000  Uiso   1.00
C689   C     0.26610   0.50080   0.51165   0.00000  Uiso   1.00
C690   C     0.01230   0.49620   0.48243   0.00000  Uiso   1.00
C691   C     0.32103   0.50380   0.51757   0.00000  Uiso   1.00
C692   C     0.15212   0.35475   0.45938   0.00000  Uiso   1.00
C693   C     0.18122   0.64525   0.54061   0.00000  Uiso   1.00
C694   C     0.15274   0.64541   0.45916   0.00000  Uiso   1.00
H695   H     0.32553   0.48696   0.44952   0.00000  Uiso   1.00
H696   H     0.32793   0.57694   0.44295   0.00000  Uiso   1.00
H697   H     0.03856   0.57869   0.40046   0.00000  Uiso   1.00
H698   H     0.30485   0.52207   0.38233   0.00000  Uiso   1.00
H699   H     0.29741   0.56292   0.34061   0.00000  Uiso   1.00
H700   H     0.22298   0.59124   0.37471   0.00000  Uiso   1.00
H701   H     0.23544   0.55688   0.42159   0.00000  Uiso   1.00
H702   H     0.00541   0.42306   0.55705   0.00000  Uiso   1.00
H703   H     0.01187   0.38331   0.60078   0.00000  Uiso   1.00
H704   H     0.29478   0.42131   0.59954   0.00000  Uiso   1.00
H705   H     0.03592   0.43708   0.65939   0.00000  Uiso   1.00
H706   H     0.00780   0.51304   0.55048   0.00000  Uiso   1.00
H707   H     0.02849   0.47793   0.61767   0.00000  Uiso   1.00
H708   H     0.09789   0.44312   0.57841   0.00000  Uiso   1.00
H709   H     0.11035   0.40876   0.62529   0.00000  Uiso   1.00
H710   H     0.14042   0.37111   0.42781   0.00000  Uiso   1.00
H711   H     0.19291   0.62889   0.57219   0.00000  Uiso   1.00
H712   H     0.14141   0.62917   0.42751   0.00000  Uiso   1.00
H713   H     0.19193   0.37082   0.57249   0.00000  Uiso   1.00
H714   H     0.22072   0.55034   0.62848   0.00000  Uiso   1.00
H715   H     0.11262   0.44966   0.37152   0.00000  Uiso   1.00
H716   H     0.32146   0.61669   0.39922   0.00000  Uiso   1.00
N717   N     0.16665   0.49999   0.61907   0.00000  Uiso   1.00
N718   N     0.16668   0.50001   0.38093   0.00000  Uiso   1.00
O719   O     0.16666   0.43892   0.53821   0.00000  Uiso   1.00
O720   O     0.16667   0.56108   0.46179   0.00000  Uiso   1.00
O721   O     0.16666   0.43893   0.46176   0.00000  Uiso   1.00
O722   O     0.16667   0.56107   0.53824   0.00000  Uiso   1.00
O723   O     0.09058   0.50000   0.52928   0.00000  Uiso   1.00
O724   O     0.24275   0.50000   0.47072   0.00000  Uiso   1.00
O725   O     0.09058   0.50000   0.45284   0.00000  Uiso   1.00
O726   O     0.24275   0.50000   0.54716   0.00000  Uiso   1.00
Zn727  Zn    0.16667   0.49999   0.55104   0.00000  Uiso   1.00
Zn728  Zn    0.16667   0.50001   0.44896   0.00000  Uiso   1.00
C729   C     0.49968   0.42005   0.50013   0.00000  Uiso   1.00
C730   C     0.51393   0.35459   0.54084   0.00000  Uiso   1.00
C731   C     0.50054   0.62415   0.49978   0.00000  Uiso   1.00
C732   C     0.49946   0.37585   0.50022   0.00000  Uiso   1.00
C733   C     0.53199   0.52772   0.35961   0.00000  Uiso   1.00
C734   C     0.46801   0.47228   0.64039   0.00000  Uiso   1.00
C735   C     0.53053   0.52788   0.64510   0.00000  Uiso   1.00
C736   C     0.46947   0.47212   0.35490   0.00000  Uiso   1.00
C737   C     0.56926   0.55945   0.38516   0.00000  Uiso   1.00
C738   C     0.62653   0.55485   0.37631   0.00000  Uiso   1.00
C739   C     0.66418   0.58359   0.40670   0.00000  Uiso   1.00
C740   C     0.50032   0.57995   0.49987   0.00000  Uiso   1.00
C741   C     0.43074   0.44055   0.61484   0.00000  Uiso   1.00
C742   C     0.37347   0.44515   0.62369   0.00000  Uiso   1.00
C743   C     0.33582   0.41641   0.59330   0.00000  Uiso   1.00
C744   C     0.40057   0.49920   0.48835   0.00000  Uiso   1.00
C745   C     0.59943   0.50080   0.51165   0.00000  Uiso   1.00
C746   C     0.34563   0.49620   0.48243   0.00000  Uiso   1.00
C747   C     0.65437   0.50380   0.51757   0.00000  Uiso   1.00
C748   C     0.48545   0.35475   0.45938   0.00000  Uiso   1.00
C749   C     0.51455   0.64525   0.54061   0.00000  Uiso   1.00
C750   C     0.48607   0.64541   0.45916   0.00000  Uiso   1.00
H751   H     0.65886   0.48696   0.44952   0.00000  Uiso   1.00
H752   H     0.66126   0.57694   0.44295   0.00000  Uiso   1.00
H753   H     0.37189   0.57869   0.40046   0.00000  Uiso   1.00
H754   H     0.63818   0.52207   0.38233   0.00000  Uiso   1.00
H755   H     0.63075   0.56292   0.34061   0.00000  Uiso   1.00
H756   H     0.55631   0.59124   0.37471   0.00000  Uiso   1.00
H757   H     0.56877   0.55688   0.42159   0.00000  Uiso   1.00
H758   H     0.33874   0.42306   0.55705   0.00000  Uiso   1.00
H759   H     0.34520   0.38331   0.60078   0.00000  Uiso   1.00
H760   H     0.62811   0.42131   0.59954   0.00000  Uiso   1.00
H761   H     0.36925   0.43708   0.65939   0.00000  Uiso   1.00
H762   H     0.34114   0.51304   0.55048   0.00000  Uiso   1.00
H763   H     0.36182   0.47793   0.61767   0.00000  Uiso   1.00
H764   H     0.43123   0.44312   0.57841   0.00000  Uiso   1.00
H765   H     0.44369   0.40876   0.62529   0.00000  Uiso   1.00
H766   H     0.47375   0.37111   0.42781   0.00000  Uiso   1.00
H767   H     0.52625   0.62889   0.57219   0.00000  Uiso   1.00
H768   H     0.47474   0.62917   0.42751   0.00000  Uiso   1.00
H769   H     0.52526   0.37082   0.57249   0.00000  Uiso   1.00
H770   H     0.55405   0.55034   0.62848   0.00000  Uiso   1.00
H771   H     0.44595   0.44966   0.37152   0.00000  Uiso   1.00
H772   H     0.65480   0.61669   0.39922   0.00000  Uiso   1.00
N773   N     0.49999   0.49999   0.61907   0.00000  Uiso   1.00
N774   N     0.50001   0.50001   0.38093   0.00000  Uiso   1.00
O775   O     0.50000   0.43892   0.53821   0.00000  Uiso   1.00
O776   O     0.50000   0.56108   0.46179   0.00000  Uiso   1.00
O777   O     0.50000   0.43893   0.46176   0.00000  Uiso   1.00
O778   O     0.50000   0.56107   0.53824   0.00000  Uiso   1.00
O779   O     0.42392   0.50000   0.52928   0.00000  Uiso   1.00
O780   O     0.57608   0.50000   0.47072   0.00000  Uiso   1.00
O781   O     0.42392   0.50000   0.45284   0.00000  Uiso   1.00
O782   O     0.57608   0.50000   0.54716   0.00000  Uiso   1.00
Zn783  Zn    0.50000   0.49999   0.55104   0.00000  Uiso   1.00
Zn784  Zn    0.50000   0.50001   0.44896   0.00000  Uiso   1.00
C785   C     0.83302   0.42005   0.50013   0.00000  Uiso   1.00
C786   C     0.84726   0.35459   0.54084   0.00000  Uiso   1.00
C787   C     0.83388   0.62415   0.49978   0.00000  Uiso   1.00
C788   C     0.83279   0.37585   0.50022   0.00000  Uiso   1.00
C789   C     0.86532   0.52772   0.35961   0.00000  Uiso   1.00
C790   C     0.80135   0.47228   0.64039   0.00000  Uiso   1.00
C791   C     0.86387   0.52788   0.64510   0.00000  Uiso   1.00
C792   C     0.80280   0.47212   0.35490   0.00000  Uiso   1.00
C793   C     0.90259   0.55945   0.38516   0.00000  Uiso   1.00
C794   C     0.95986   0.55485   0.37631   0.00000  Uiso   1.00
C795   C     0.99751   0.58359   0.40670   0.00000  Uiso   1.00
C796   C     0.83365   0.57995   0.49987   0.00000  Uiso   1.00
C797   C     0.76408   0.44055   0.61484   0.00000  Uiso   1.00
C798   C     0.70680   0.44515   0.62369   0.00000  Uiso   1.00
C799   C     0.66915   0.41641   0.59330   0.00000  Uiso   1.00
C800   C     0.73390   0.49920   0.48835   0.00000  Uiso   1.00
C801   C     0.93277   0.50080   0.51165   0.00000  Uiso   1.00
C802   C     0.67897   0.49620   0.48243   0.00000  Uiso   1.00
C803   C     0.98770   0.50380   0.51757   0.00000  Uiso   1.00
C804   C     0.81878   0.35475   0.45938   0.00000  Uiso   1.00
C805   C     0.84788   0.64525   0.54061   0.00000  Uiso   1.00
C806   C     0.81941   0.64541   0.45916   0.00000  Uiso   1.00
H807   H     0.99220   0.48696   0.44952   0.00000  Uiso   1.00
H808   H     0.99460   0.57694   0.44295   0.00000  Uiso   1.00
H809   H     0.70522   0.57869   0.40046   0.00000  Uiso   1.00
H810   H     0.97151   0.52207   0.38233   0.00000  Uiso   1.00
H811   H     0.96408   0.56292   0.34061   0.00000  Uiso   1.00
H812   H     0.88965   0.59124   0.37471   0.00000  Uiso   1.00
H813   H     0.90211   0.55688   0.42159   0.00000  Uiso   1.00
H814   H     0.67207   0.42306   0.55705   0.00000  Uiso   1.00
H815   H     0.67854   0.38331   0.60078   0.00000  Uiso   1.00
H816   H     0.96144   0.42131   0.59954   0.00000  Uiso   1.00
H817   H     0.70259   0.43708   0.65939   0.00000  Uiso   1.00
H818   H     0.67447   0.51304   0.55048   0.00000  Uiso   1.00
H819   H     0.69515   0.47793   0.61767   0.00000  Uiso   1.00
H820   H     0.76456   0.44312   0.57841   0.00000  Uiso   1.00
H821   H     0.77702   0.40876   0.62529   0.00000  Uiso   1.00
H822   H     0.80709   0.37111   0.42781   0.00000  Uiso   1.00
H823   H     0.85958   0.62889   0.57219   0.00000  Uiso   1.00
H824   H     0.80807   0.62917   0.42751   0.00000  Uiso   1.00
H825   H     0.85859   0.37082   0.57249   0.00000  Uiso   1.00
H826   H     0.88738   0.55034   0.62848   0.00000  Uiso   1.00
H827   H     0.77928   0.44966   0.37152   0.00000  Uiso   1.00
H828   H     0.98813   0.61669   0.39922   0.00000  Uiso   1.00
N829   N     0.83332   0.49999   0.61907   0.00000  Uiso   1.00
N830   N     0.83335   0.50001   0.38093   0.00000  Uiso   1.00
O831   O     0.83333   0.43892   0.53821   0.00000  Uiso   1.00
O832   O     0.83334   0.56108   0.46179   0.00000  Uiso   1.00
O833   O     0.83333   0.43893   0.46176   0.00000  Uiso   1.00
O834   O     0.83334   0.56107   0.53824   0.00000  Uiso   1.00
O835   O     0.75725   0.50000   0.52928   0.00000  Uiso   1.00
O836   O     0.90942   0.50000   0.47072   0.00000  Uiso   1.00
O837   O     0.75725   0.50000   0.45284   0.00000  Uiso   1.00
O838   O     0.90942   0.50000   0.54716   0.00000  Uiso   1.00
Zn839  Zn    0.83333   0.49999   0.55104   0.00000  Uiso   1.00
Zn840  Zn    0.83333   0.50001   0.44896   0.00000  Uiso   1.00
C841   C     0.16635   0.75339   0.50013   0.00000  Uiso   1.00
C842   C     0.18059   0.68792   0.54084   0.00000  Uiso   1.00
C843   C     0.16721   0.95748   0.49978   0.00000  Uiso   1.00
C844   C     0.16612   0.70918   0.50022   0.00000  Uiso   1.00
C845   C     0.19865   0.86105   0.35961   0.00000  Uiso   1.00
C846   C     0.13468   0.80562   0.64039   0.00000  Uiso   1.00
C847   C     0.19720   0.86121   0.64510   0.00000  Uiso   1.00
C848   C     0.13613   0.80545   0.35490   0.00000  Uiso   1.00
C849   C     0.23592   0.89278   0.38516   0.00000  Uiso   1.00
C850   C     0.29320   0.88818   0.37631   0.00000  Uiso   1.00
C851   C     0.33085   0.91692   0.40670   0.00000  Uiso   1.00
C852   C     0.16698   0.91328   0.49987   0.00000  Uiso   1.00
C853   C     0.09741   0.77388   0.61484   0.00000  Uiso   1.00
C854   C     0.04014   0.77849   0.62369   0.00000  Uiso   1.00
C855   C     0.00249   0.74974   0.59330   0.00000  Uiso   1.00
C856   C     0.06723   0.83254   0.48835   0.00000  Uiso   1.00
C857   C     0.26610   0.83413   0.51165   0.00000  Uiso   1.00
C858   C     0.01230   0.82953   0.48243   0.00000  Uiso   1.00
C859   C     0.32103   0.83714   0.51757   0.00000  Uiso   1.00
C860   C     0.15212   0.68809   0.45938   0.00000  Uiso   1.00
C861   C     0.18122   0.97858   0.54061   0.00000  Uiso   1.00
C862   C     0.15274   0.97875   0.45916   0.00000  Uiso   1.00
H863   H     0.32553   0.82029   0.44952   0.00000  Uiso   1.00
H864   H     0.32793   0.91027   0.44295   0.00000  Uiso   1.00
H865   H     0.03856   0.91202   0.40046   0.00000  Uiso   1.00
H866   H     0.30485   0.85540   0.38233   0.00000  Uiso   1.00
H867   H     0.29741   0.89625   0.34061   0.00000  Uiso   1.00
H868   H     0.22298   0.92458   0.37471   0.00000  Uiso   1.00
H869   H     0.23544   0.89021   0.42159   0.00000  Uiso   1.00
H870   H     0.00541   0.75639   0.55705   0.00000  Uiso   1.00
H871   H     0.01187   0.71664   0.60078   0.00000  Uiso   1.00
H872   H     0.29478   0.75465   0.59954   0.00000  Uiso   1.00
H873   H     0.03592   0.77041   0.65939   0.00000  Uiso   1.00
H874   H     0.00780   0.84637   0.55048   0.00000  Uiso   1.00
H875   H     0.02849   0.81127   0.61767   0.00000  Uiso   1.00
H876   H     0.09789   0.77645   0.57841   0.00000  Uiso   1.00
H877   H     0.11035   0.74209   0.62529   0.00000  Uiso   1.00
H878   H     0.14042   0.70444   0.42781   0.00000  Uiso   1.00
H879   H     0.19291   0.96222   0.57219   0.00000  Uiso   1.00
H880   H     0.14141   0.96251   0.42751   0.00000  Uiso   1.00
H881   H     0.19193   0.70416   0.57249   0.00000  Uiso   1.00
H882   H     0.22072   0.88368   0.62848   0.00000  Uiso   1.00
H883   H     0.11262   0.78299   0.37152   0.00000  Uiso   1.00
H884   H     0.32146   0.95003   0.39922   0.00000  Uiso   1.00
N885   N     0.16665   0.83332   0.61907   0.00000  Uiso   1.00
N886   N     0.16668   0.83334   0.38093   0.00000  Uiso   1.00
O887   O     0.16666   0.77225   0.53821   0.00000  Uiso   1.00
O888   O     0.16667   0.89442   0.46179   0.00000  Uiso   1.00
O889   O     0.16666   0.77226   0.46176   0.00000  Uiso   1.00
O890   O     0.16667   0.89441   0.53824   0.00000  Uiso   1.00
O891   O     0.09058   0.83333   0.52928   0.00000  Uiso   1.00
O892   O     0.24275   0.83334   0.47072   0.00000  Uiso   1.00
O893   O     0.09058   0.83334   0.45284   0.00000  Uiso   1.00
O894   O     0.24275   0.83333   0.54716   0.00000  Uiso   1.00
Zn895  Zn    0.16667   0.83333   0.55104   0.00000  Uiso   1.00
Zn896  Zn    0.16667   0.83334   0.44896   0.00000  Uiso   1.00
C897   C     0.49968   0.75339   0.50013   0.00000  Uiso   1.00
C898   C     0.51393   0.68792   0.54084   0.00000  Uiso   1.00
C899   C     0.50054   0.95748   0.49978   0.00000  Uiso   1.00
C900   C     0.49946   0.70918   0.50022   0.00000  Uiso   1.00
C901   C     0.53199   0.86105   0.35961   0.00000  Uiso   1.00
C902   C     0.46801   0.80562   0.64039   0.00000  Uiso   1.00
C903   C     0.53053   0.86121   0.64510   0.00000  Uiso   1.00
C904   C     0.46947   0.80545   0.35490   0.00000  Uiso   1.00
C905   C     0.56926   0.89278   0.38516   0.00000  Uiso   1.00
C906   C     0.62653   0.88818   0.37631   0.00000  Uiso   1.00
C907   C     0.66418   0.91692   0.40670   0.00000  Uiso   1.00
C908   C     0.50032   0.91328   0.49987   0.00000  Uiso   1.00
C909   C     0.43074   0.77388   0.61484   0.00000  Uiso   1.00
C910   C     0.37347   0.77849   0.62369   0.00000  Uiso   1.00
C911   C     0.33582   0.74974   0.59330   0.00000  Uiso   1.00
C912   C     0.40057   0.83254   0.48835   0.00000  Uiso   1.00
C913   C     0.59943   0.83413   0.51165   0.00000  Uiso   1.00
C914   C     0.34563   0.82953   0.48243   0.00000  Uiso   1.00
C915   C     0.65437   0.83714   0.51757   0.00000  Uiso   1.00
C916   C     0.48545   0.68809   0.45938   0.00000  Uiso   1.00
C917   C     0.51455   0.97858   0.54061   0.00000  Uiso   1.00
C918   C     0.48607   0.97875   0.45916   0.00000  Uiso   1.00
H919   H     0.65886   0.82029   0.44952   0.00000  Uiso   1.00
H920   H     0.66126   0.91027   0.44295   0.00000  Uiso   1.00
H921   H     0.37189   0.91202   0.40046   0.00000  Uiso   1.00
H922   H     0.63818   0.85540   0.38233   0.00000  Uiso   1.00
H923   H     0.63075   0.89625   0.34061   0.00000  Uiso   1.00
H924   H     0.55631   0.92458   0.37471   0.00000  Uiso   1.00
H925   H     0.56877   0.89021   0.42159   0.00000  Uiso   1.00
H926   H     0.33874   0.75639   0.55705   0.00000  Uiso   1.00
H927   H     0.34520   0.71664   0.60078   0.00000  Uiso   1.00
H928   H     0.62811   0.75465   0.59954   0.00000  Uiso   1.00
H929   H     0.36925   0.77041   0.65939   0.00000  Uiso   1.00
H930   H     0.34114   0.84637   0.55048   0.00000  Uiso   1.00
H931   H     0.36182   0.81127   0.61767   0.00000  Uiso   1.00
H932   H     0.43123   0.77645   0.57841   0.00000  Uiso   1.00
H933   H     0.44369   0.74209   0.62529   0.00000  Uiso   1.00
H934   H     0.47375   0.70444   0.42781   0.00000  Uiso   1.00
H935   H     0.52625   0.96222   0.57219   0.00000  Uiso   1.00
H936   H     0.47474   0.96251   0.42751   0.00000  Uiso   1.00
H937   H     0.52526   0.70416   0.57249   0.00000  Uiso   1.00
H938   H     0.55405   0.88368   0.62848   0.00000  Uiso   1.00
H939   H     0.44595   0.78299   0.37152   0.00000  Uiso   1.00
H940   H     0.65480   0.95003   0.39922   0.00000  Uiso   1.00
N941   N     0.49999   0.83332   0.61907   0.00000  Uiso   1.00
N942   N     0.50001   0.83334   0.38093   0.00000  Uiso   1.00
O943   O     0.50000   0.77225   0.53821   0.00000  Uiso   1.00
O944   O     0.50000   0.89442   0.46179   0.00000  Uiso   1.00
O945   O     0.50000   0.77226   0.46176   0.00000  Uiso   1.00
O946   O     0.50000   0.89441   0.53824   0.00000  Uiso   1.00
O947   O     0.42392   0.83333   0.52928   0.00000  Uiso   1.00
O948   O     0.57608   0.83334   0.47072   0.00000  Uiso   1.00
O949   O     0.42392   0.83334   0.45284   0.00000  Uiso   1.00
O950   O     0.57608   0.83333   0.54716   0.00000  Uiso   1.00
Zn951  Zn    0.50000   0.83333   0.55104   0.00000  Uiso   1.00
Zn952  Zn    0.50000   0.83334   0.44896   0.00000  Uiso   1.00
C953   C     0.83302   0.75339   0.50013   0.00000  Uiso   1.00
C954   C     0.84726   0.68792   0.54084   0.00000  Uiso   1.00
C955   C     0.83388   0.95748   0.49978   0.00000  Uiso   1.00
C956   C     0.83279   0.70918   0.50022   0.00000  Uiso   1.00
C957   C     0.86532   0.86105   0.35961   0.00000  Uiso   1.00
C958   C     0.80135   0.80562   0.64039   0.00000  Uiso   1.00
C959   C     0.86387   0.86121   0.64510   0.00000  Uiso   1.00
C960   C     0.80280   0.80545   0.35490   0.00000  Uiso   1.00
C961   C     0.90259   0.89278   0.38516   0.00000  Uiso   1.00
C962   C     0.95986   0.88818   0.37631   0.00000  Uiso   1.00
C963   C     0.99751   0.91692   0.40670   0.00000  Uiso   1.00
C964   C     0.83365   0.91328   0.49987   0.00000  Uiso   1.00
C965   C     0.76408   0.77388   0.61484   0.00000  Uiso   1.00
C966   C     0.70680   0.77849   0.62369   0.00000  Uiso   1.00
C967   C     0.66915   0.74974   0.59330   0.00000  Uiso   1.00
C968   C     0.73390   0.83254   0.48835   0.00000  Uiso   1.00
C969   C     0.93277   0.83413   0.51165   0.00000  Uiso   1.00
C970   C     0.67897   0.82953   0.48243   0.00000  Uiso   1.00
C971   C     0.98770   0.83714   0.51757   0.00000  Uiso   1.00
C972   C     0.81878   0.68809   0.45938   0.00000  Uiso   1.00
C973   C     0.84788   0.97858   0.54061   0.00000  Uiso   1.00
C974   C     0.81941   0.97875   0.45916   0.00000  Uiso   1.00
H975   H     0.99220   0.82029   0.44952   0.00000  Uiso   1.00
H976   H     0.99460   0.91027   0.44295   0.00000  Uiso   1.00
H977   H     0.70522   0.91202   0.40046   0.00000  Uiso   1.00
H978   H     0.97151   0.85540   0.38233   0.00000  Uiso   1.00
H979   H     0.96408   0.89625   0.34061   0.00000  Uiso   1.00
H980   H     0.88965   0.92458   0.37471   0.00000  Uiso   1.00
H981   H     0.90211   0.89021   0.42159   0.00000  Uiso   1.00
H982   H     0.67207   0.75639   0.55705   0.00000  Uiso   1.00
H983   H     0.67854   0.71664   0.60078   0.00000  Uiso   1.00
H984   H     0.96144   0.75465   0.59954   0.00000  Uiso   1.00
H985   H     0.70259   0.77041   0.65939   0.00000  Uiso   1.00
H986   H     0.67447   0.84637   0.55048   0.00000  Uiso   1.00
H987   H     0.69515   0.81127   0.61767   0.00000  Uiso   1.00
H988   H     0.76456   0.77645   0.57841   0.00000  Uiso   1.00
H989   H     0.77702   0.74209   0.62529   0.00000  Uiso   1.00
H990   H     0.80709   0.70444   0.42781   0.00000  Uiso   1.00
H991   H     0.85958   0.96222   0.57219   0.00000  Uiso   1.00
H992   H     0.80807   0.96251   0.42751   0.00000  Uiso   1.00
H993   H     0.85859   0.70416   0.57249   0.00000  Uiso   1.00
H994   H     0.88738   0.88368   0.62848   0.00000  Uiso   1.00
H995   H     0.77928   0.78299   0.37152   0.00000  Uiso   1.00
H996   H     0.98813   0.95003   0.39922   0.00000  Uiso   1.00
N997   N     0.83332   0.83332   0.61907   0.00000  Uiso   1.00
N998   N     0.83335   0.83334   0.38093   0.00000  Uiso   1.00
O999   O     0.83333   0.77225   0.53821   0.00000  Uiso   1.00
O1000  O     0.83334   0.89442   0.46179   0.00000  Uiso   1.00
O1001  O     0.83333   0.77226   0.46176   0.00000  Uiso   1.00
O1002  O     0.83334   0.89441   0.53824   0.00000  Uiso   1.00
O1003  O     0.75725   0.83333   0.52928   0.00000  Uiso   1.00
O1004  O     0.90942   0.83334   0.47072   0.00000  Uiso   1.00
O1005  O     0.75725   0.83334   0.45284   0.00000  Uiso   1.00
O1006  O     0.90942   0.83333   0.54716   0.00000  Uiso   1.00
Zn1007 Zn    0.83333   0.83333   0.55104   0.00000  Uiso   1.00
Zn1008 Zn    0.83333   0.83334   0.44896   0.00000  Uiso   1.00
C1009  C     0.16635   0.08672   0.83346   0.00000  Uiso   1.00
C1010  C     0.18059   0.02125   0.87418   0.00000  Uiso   1.00
C1011  C     0.16721   0.29082   0.83311   0.00000  Uiso   1.00
C1012  C     0.16612   0.04252   0.83356   0.00000  Uiso   1.00
C1013  C     0.19865   0.19438   0.69295   0.00000  Uiso   1.00
C1014  C     0.13468   0.13895   0.97372   0.00000  Uiso   1.00
C1015  C     0.19720   0.19455   0.97843   0.00000  Uiso   1.00
C1016  C     0.13613   0.13879   0.68824   0.00000  Uiso   1.00
C1017  C     0.23592   0.22612   0.71849   0.00000  Uiso   1.00
C1018  C     0.29320   0.22151   0.70964   0.00000  Uiso   1.00
C1019  C     0.33085   0.25026   0.74004   0.00000  Uiso   1.00
C1020  C     0.16698   0.24661   0.83320   0.00000  Uiso   1.00
C1021  C     0.09741   0.10721   0.94818   0.00000  Uiso   1.00
C1022  C     0.04014   0.11182   0.95702   0.00000  Uiso   1.00
C1023  C     0.00249   0.08307   0.92663   0.00000  Uiso   1.00
C1024  C     0.06723   0.16587   0.82168   0.00000  Uiso   1.00
C1025  C     0.26610   0.16746   0.84498   0.00000  Uiso   1.00
C1026  C     0.01230   0.16286   0.81576   0.00000  Uiso   1.00
C1027  C     0.32103   0.17047   0.85091   0.00000  Uiso   1.00
C1028  C     0.15212   0.02142   0.79272   0.00000  Uiso   1.00
C1029  C     0.18122   0.31191   0.87395   0.00000  Uiso   1.00
C1030  C     0.15274   0.31208   0.79249   0.00000  Uiso   1.00
H1031  H     0.32553   0.15363   0.78285   0.00000  Uiso   1.00
H1032  H     0.32793   0.24360   0.77629   0.00000  Uiso   1.00
H1033  H     0.03856   0.24535   0.73379   0.00000  Uiso   1.00
H1034  H     0.30485   0.18873   0.71566   0.00000  Uiso   1.00
H1035  H     0.29741   0.22959   0.67394   0.00000  Uiso   1.00
H1036  H     0.22298   0.25791   0.70804   0.00000  Uiso   1.00
H1037  H     0.23544   0.22355   0.75493   0.00000  Uiso   1.00
H1038  H     0.00541   0.08973   0.89038   0.00000  Uiso   1.00
H1039  H     0.01187   0.04997   0.93412   0.00000  Uiso   1.00
H1040  H     0.29478   0.08798   0.93288   0.00000  Uiso   1.00
H1041  H     0.03592   0.10375   0.99273   0.00000  Uiso   1.00
H1042  H     0.00780   0.17971   0.88381   0.00000  Uiso   1.00
H1043  H     0.02849   0.14460   0.95100   0.00000  Uiso   1.00
H1044  H     0.09789   0.10979   0.91174   0.00000  Uiso   1.00
H1045  H     0.11035   0.07542   0.95862   0.00000  Uiso   1.00
H1046  H     0.14042   0.03778   0.76114   0.00000  Uiso   1.00
H1047  H     0.19291   0.29556   0.90553   0.00000  Uiso   1.00
H1048  H     0.14141   0.29584   0.76085   0.00000  Uiso   1.00
H1049  H     0.19193   0.03749   0.90582   0.00000  Uiso   1.00
H1050  H     0.22072   0.21701   0.96181   0.00000  Uiso   1.00
H1051  H     0.11262   0.11632   0.70485   0.00000  Uiso   1.00
H1052  H     0.32146   0.28336   0.73255   0.00000  Uiso   1.00
N1053  N     0.16665   0.16666   0.95240   0.00000  Uiso   1.00
N1054  N     0.16668   0.16668   0.71427   0.00000  Uiso   1.00
O1055  O     0.16666   0.10558   0.87154   0.00000  Uiso   1.00
O1056  O     0.16667   0.22775   0.79513   0.00000  Uiso   1.00
O1057  O     0.16666   0.10559   0.79510   0.00000  Uiso   1.00
O1058  O     0.16667   0.22774   0.87157   0.00000  Uiso   1.00
O1059  O     0.09058   0.16666   0.86261   0.00000  Uiso   1.00
O1060  O     0.24275   0.16667   0.80405   0.00000  Uiso   1.00
O1061  O     0.09058   0.16667   0.78617   0.00000  Uiso   1.00
O1062  O     0.24275   0.16666   0.88050   0.00000  Uiso   1.00
Zn1063 Zn    0.16667   0.16666   0.88437   0.00000  Uiso   1.00
Zn1064 Zn    0.16667   0.16667   0.78229   0.00000  Uiso   1.00
C1065  C     0.49968   0.08672   0.83346   0.00000  Uiso   1.00
C1066  C     0.51393   0.02125   0.87418   0.00000  Uiso   1.00
C1067  C     0.50054   0.29082   0.83311   0.00000  Uiso   1.00
C1068  C     0.49946   0.04252   0.83356   0.00000  Uiso   1.00
C1069  C     0.53199   0.19438   0.69295   0.00000  Uiso   1.00
C1070  C     0.46801   0.13895   0.97372   0.00000  Uiso   1.00
C1071  C     0.53053   0.19455   0.97843   0.00000  Uiso   1.00
C1072  C     0.46947   0.13879   0.68824   0.00000  Uiso   1.00
C1073  C     0.56926   0.22612   0.71849   0.00000  Uiso   1.00
C1074  C     0.62653   0.22151   0.70964   0.00000  Uiso   1.00
C1075  C     0.66418   0.25026   0.74004   0.00000  Uiso   1.00
C1076  C     0.50032   0.24661   0.83320   0.00000  Uiso   1.00
C1077  C     0.43074   0.10721   0.94818   0.00000  Uiso   1.00
C1078  C     0.37347   0.11182   0.95702   0.00000  Uiso   1.00
C1079  C     0.33582   0.08307   0.92663   0.00000  Uiso   1.00
C1080  C     0.40057   0.16587   0.82168   0.00000  Uiso   1.00
C1081  C     0.59943   0.16746   0.84498   0.00000  Uiso   1.00
C1082  C     0.34563   0.16286   0.81576   0.00000  Uiso   1.00
C1083  C     0.65437   0.17047   0.85091   0.00000  Uiso   1.00
C1084  C     0.48545   0.02142   0.79272   0.00000  Uiso   1.00
C1085  C     0.51455   0.31191   0.87395   0.00000  Uiso   1.00
C1086  C     0.48607   0.31208   0.79249   0.00000  Uiso   1.00
H1087  H     0.65886   0.15363   0.78285   0.00000  Uiso   1.00
H1088  H     0.66126   0.24360   0.77629   0.00000  Uiso   1.00
H1089  H     0.37189   0.24535   0.73379   0.00000  Uiso   1.00
H1090  H     0.63818   0.18873   0.71566   0.00000  Uiso   1.00
H1091  H     0.63075   0.22959   0.67394   0.00000  Uiso   1.00
H1092  H     0.55631   0.25791   0.70804   0.00000  Uiso   1.00
H1093  H     0.56877   0.22355   0.75493   0.00000  Uiso   1.00
H1094  H     0.33874   0.08973   0.89038   0.00000  Uiso   1.00
H1095  H     0.34520   0.04997   0.93412   0.00000  Uiso   1.00
H1096  H     0.62811   0.08798   0.93288   0.00000  Uiso   1.00
H1097  H     0.36925   0.10375   0.99273   0.00000  Uiso   1.00
H1098  H     0.34114   0.17971   0.88381   0.00000  Uiso   1.00
H1099  H     0.36182   0.14460   0.95100   0.00000  Uiso   1.00
H1100  H     0.43123   0.10979   0.91174   0.00000  Uiso   1.00
H1101  H     0.44369   0.07542   0.95862   0.00000  Uiso   1.00
H1102  H     0.47375   0.03778   0.76114   0.00000  Uiso   1.00
H1103  H     0.52625   0.29556   0.90553   0.00000  Uiso   1.00
H1104  H     0.47474   0.29584   0.76085   0.00000  Uiso   1.00
H1105  H     0.52526   0.03749   0.90582   0.00000  Uiso   1.00
H1106  H     0.55405   0.21701   0.96181   0.00000  Uiso   1.00
H1107  H     0.44595   0.11632   0.70485   0.00000  Uiso   1.00
H1108  H     0.65480   0.28336   0.73255   0.00000  Uiso   1.00
N1109  N     0.49999   0.16666   0.95240   0.00000  Uiso   1.00
N1110  N     0.50001   0.16668   0.71427   0.00000  Uiso   1.00
O1111  O     0.50000   0.10558   0.87154   0.00000  Uiso   1.00
O1112  O     0.50000   0.22775   0.79513   0.00000  Uiso   1.00
O1113  O     0.50000   0.10559   0.79510   0.00000  Uiso   1.00
O1114  O     0.50000   0.22774   0.87157   0.00000  Uiso   1.00
O1115  O     0.42392   0.16666   0.86261   0.00000  Uiso   1.00
O1116  O     0.57608   0.16667   0.80405   0.00000  Uiso   1.00
O1117  O     0.42392   0.16667   0.78617   0.00000  Uiso   1.00
O1118  O     0.57608   0.16666   0.88050   0.00000  Uiso   1.00
Zn1119 Zn    0.50000   0.16666   0.88437   0.00000  Uiso   1.00
Zn1120 Zn    0.50000   0.16667   0.78229   0.00000  Uiso   1.00
C1121  C     0.83302   0.08672   0.83346   0.00000  Uiso   1.00
C1122  C     0.84726   0.02125   0.87418   0.00000  Uiso   1.00
C1123  C     0.83388   0.29082   0.83311   0.00000  Uiso   1.00
C1124  C     0.83279   0.04252   0.83356   0.00000  Uiso   1.00
C1125  C     0.86532   0.19438   0.69295   0.00000  Uiso   1.00
C1126  C     0.80135   0.13895   0.97372   0.00000  Uiso   1.00
C1127  C     0.86387   0.19455   0.97843   0.00000  Uiso   1.00
C1128  C     0.80280   0.13879   0.68824   0.00000  Uiso   1.00
C1129  C     0.90259   0.22612   0.71849   0.00000  Uiso   1.00
C1130  C     0.95986   0.22151   0.70964   0.00000  Uiso   1.00
C1131  C     0.99751   0.25026   0.74004   0.00000  Uiso   1.00
C1132  C     0.83365   0.24661   0.83320   0.00000  Uiso   1.00
C1133  C     0.76408   0.10721   0.94818   0.00000  Uiso   1.00
C1134  C     0.70680   0.11182   0.95702   0.00000  Uiso   1.00
C1135  C     0.66915   0.08307   0.92663   0.00000  Uiso   1.00
C1136  C     0.73390   0.16587   0.82168   0.00000  Uiso   1.00
C1137  C     0.93277   0.16746   0.84498   0.00000  Uiso   1.00
C1138  C     0.67897   0.16286   0.81576   0.00000  Uiso   1.00
C1139  C     0.98770   0.17047   0.85091   0.00000  Uiso   1.00
C1140  C     0.81878   0.02142   0.79272   0.00000  Uiso   1.00
C1141  C     0.84788   0.31191   0.87395   0.00000  Uiso   1.00
C1142  C     0.81941   0.31208   0.79249   0.00000  Uiso   1.00
H1143  H     0.99220   0.15363   0.78285   0.00000  Uiso   1.00
H1144  H     0.99460   0.24360   0.77629   0.00000  Uiso   1.00
H1145  H     0.70522   0.24535   0.73379   0.00000  Uiso   1.00
H1146  H     0.97151   0.18873   0.71566   0.00000  Uiso   1.00
H1147  H     0.96408   0.22959   0.67394   0.00000  Uiso   1.00
H1148  H     0.88965   0.25791   0.70804   0.00000  Uiso   1.00
H1149  H     0.90211   0.22355   0.75493   0.00000  Uiso   1.00
H1150  H     0.67207   0.08973   0.89038   0.00000  Uiso   1.00
H1151  H     0.67854   0.04997   0.93412   0.00000  Uiso   1.00
H1152  H     0.96144   0.08798   0.93288   0.00000  Uiso   1.00
H1153  H     0.70259   0.10375   0.99273   0.00000  Uiso   1.00
H1154  H     0.67447   0.17971   0.88381   0.00000  Uiso   1.00
H1155  H     0.69515   0.14460   0.95100   0.00000  Uiso   1.00
H1156  H     0.76456   0.10979   0.91174   0.00000  Uiso   1.00
H1157  H     0.77702   0.07542   0.95862   0.00000  Uiso   1.00
H1158  H     0.80709   0.03778   0.76114   0.00000  Uiso   1.00
H1159  H     0.85958   0.29556   0.90553   0.00000  Uiso   1.00
H1160  H     0.80807   0.29584   0.76085   0.00000  Uiso   1.00
H1161  H     0.85859   0.03749   0.90582   0.00000  Uiso   1.00
H1162  H     0.88738   0.21701   0.96181   0.00000  Uiso   1.00
H1163  H     0.77928   0.11632   0.70485   0.00000  Uiso   1.00
H1164  H     0.98813   0.28336   0.73255   0.00000  Uiso   1.00
N1165  N     0.83332   0.16666   0.95240   0.00000  Uiso   1.00
N1166  N     0.83335   0.16668   0.71427   0.00000  Uiso   1.00
O1167  O     0.83333   0.10558   0.87154   0.00000  Uiso   1.00
O1168  O     0.83334   0.22775   0.79513   0.00000  Uiso   1.00
O1169  O     0.83333   0.10559   0.79510   0.00000  Uiso   1.00
O1170  O     0.83334   0.22774   0.87157   0.00000  Uiso   1.00
O1171  O     0.75725   0.16666   0.86261   0.00000  Uiso   1.00
O1172  O     0.90942   0.16667   0.80405   0.00000  Uiso   1.00
O1173  O     0.75725   0.16667   0.78617   0.00000  Uiso   1.00
O1174  O     0.90942   0.16666   0.88050   0.00000  Uiso   1.00
Zn1175 Zn    0.83333   0.16666   0.88437   0.00000  Uiso   1.00
Zn1176 Zn    0.83333   0.16667   0.78229   0.00000  Uiso   1.00
C1177  C     0.16635   0.42005   0.83346   0.00000  Uiso   1.00
C1178  C     0.18059   0.35459   0.87418   0.00000  Uiso   1.00
C1179  C     0.16721   0.62415   0.83311   0.00000  Uiso   1.00
C1180  C     0.16612   0.37585   0.83356   0.00000  Uiso   1.00
C1181  C     0.19865   0.52772   0.69295   0.00000  Uiso   1.00
C1182  C     0.13468   0.47228   0.97372   0.00000  Uiso   1.00
C1183  C     0.19720   0.52788   0.97843   0.00000  Uiso   1.00
C1184  C     0.13613   0.47212   0.68824   0.00000  Uiso   1.00
C1185  C     0.23592   0.55945   0.71849   0.00000  Uiso   1.00
C1186  C     0.29320   0.55485   0.70964   0.00000  Uiso   1.00
C1187  C     0.33085   0.58359   0.74004   0.00000  Uiso   1.00
C1188  C     0.16698   0.57995   0.83320   0.00000  Uiso   1.00
C1189  C     0.09741   0.44055   0.94818   0.00000  Uiso   1.00
C1190  C     0.04014   0.44515   0.95702   0.00000  Uiso   1.00
C1191  C     0.00249   0.41641   0.92663   0.00000  Uiso   1.00
C1192  C     0.06723   0.49920   0.82168   0.00000  Uiso   1.00
C1193  C     0.26610   0.50080   0.84498   0.00000  Uiso   1.00
C1194  C     0.01230   0.49620   0.81576   0.00000  Uiso   1.00
C1195  C     0.32103   0.50380   0.85091   0.00000  Uiso   1.00
C1196  C     0.15212   0.35475   0.79272   0.00000  Uiso   1.00
C1197  C     0.18122   0.64525   0.87395   0.00000  Uiso   1.00
C1198  C     0.15274   0.64541   0.79249   0.00000  Uiso   1.00
H1199  H     0.32553   0.48696   0.78285   0.00000  Uiso   1.00
H1200  H     0.32793   0.57694   0.77629   0.00000  Uiso   1.00
H1201  H     0.03856   0.57869   0.73379   0.00000  Uiso   1.00
H1202  H     0.30485   0.52207   0.71566   0.00000  Uiso   1.00
H1203  H     0.29741   0.56292   0.67394   0.00000  Uiso   1.00
H1204  H     0.22298   0.59124   0.70804   0.00000  Uiso   1.00
H1205  H     0.23544   0.55688   0.75493   0.00000  Uiso   1.00
H1206  H     0.00541   0.42306   0.89038   0.00000  Uiso   1.00
H1207  H     0.01187   0.38331   0.93412   0.00000  Uiso   1.00
H1208  H     0.29478   0.42131   0.93288   0.00000  Uiso   1.00
H1209  H     0.03592   0.43708   0.99273   0.00000  Uiso   1.00
H1210  H     0.00780   0.51304   0.88381   0.00000  Uiso   1.00
H1211  H     0.02849   0.47793   0.95100   0.00000  Uiso   1.00
H1212  H     0.09789   0.44312   0.91174   0.00000  Uiso   1.00
H1213  H     0.11035   0.40876   0.95862   0.00000  Uiso   1.00
H1214  H     0.14042   0.37111   0.76114   0.00000  Uiso   1.00
H1215  H     0.19291   0.62889   0.90553   0.00000  Uiso   1.00
H1216  H     0.14141   0.62917   0.76085   0.00000  Uiso   1.00
H1217  H     0.19193   0.37082   0.90582   0.00000  Uiso   1.00
H1218  H     0.22072   0.55034   0.96181   0.00000  Uiso   1.00
H1219  H     0.11262   0.44966   0.70485   0.00000  Uiso   1.00
H1220  H     0.32146   0.61669   0.73255   0.00000  Uiso   1.00
N1221  N     0.16665   0.49999   0.95240   0.00000  Uiso   1.00
N1222  N     0.16668   0.50001   0.71427   0.00000  Uiso   1.00
O1223  O     0.16666   0.43892   0.87154   0.00000  Uiso   1.00
O1224  O     0.16667   0.56108   0.79513   0.00000  Uiso   1.00
O1225  O     0.16666   0.43893   0.79510   0.00000  Uiso   1.00
O1226  O     0.16667   0.56107   0.87157   0.00000  Uiso   1.00
O1227  O     0.09058   0.50000   0.86261   0.00000  Uiso   1.00
O1228  O     0.24275   0.50000   0.80405   0.00000  Uiso   1.00
O1229  O     0.09058   0.50000   0.78617   0.00000  Uiso   1.00
O1230  O     0.24275   0.50000   0.88050   0.00000  Uiso   1.00
Zn1231 Zn    0.16667   0.49999   0.88437   0.00000  Uiso   1.00
Zn1232 Zn    0.16667   0.50001   0.78229   0.00000  Uiso   1.00
C1233  C     0.49968   0.42005   0.83346   0.00000  Uiso   1.00
C1234  C     0.51393   0.35459   0.87418   0.00000  Uiso   1.00
C1235  C     0.50054   0.62415   0.83311   0.00000  Uiso   1.00
C1236  C     0.49946   0.37585   0.83356   0.00000  Uiso   1.00
C1237  C     0.53199   0.52772   0.69295   0.00000  Uiso   1.00
C1238  C     0.46801   0.47228   0.97372   0.00000  Uiso   1.00
C1239  C     0.53053   0.52788   0.97843   0.00000  Uiso   1.00
C1240  C     0.46947   0.47212   0.68824   0.00000  Uiso   1.00
C1241  C     0.56926   0.55945   0.71849   0.00000  Uiso   1.00
C1242  C     0.62653   0.55485   0.70964   0.00000  Uiso   1.00
C1243  C     0.66418   0.58359   0.74004   0.00000  Uiso   1.00
C1244  C     0.50032   0.57995   0.83320   0.00000  Uiso   1.00
C1245  C     0.43074   0.44055   0.94818   0.00000  Uiso   1.00
C1246  C     0.37347   0.44515   0.95702   0.00000  Uiso   1.00
C1247  C     0.33582   0.41641   0.92663   0.00000  Uiso   1.00
C1248  C     0.40057   0.49920   0.82168   0.00000  Uiso   1.00
C1249  C     0.59943   0.50080   0.84498   0.00000  Uiso   1.00
C1250  C     0.34563   0.49620   0.81576   0.00000  Uiso   1.00
C1251  C     0.65437   0.50380   0.85091   0.00000  Uiso   1.00
C1252  C     0.48545   0.35475   0.79272   0.00000  Uiso   1.00
C1253  C     0.51455   0.64525   0.87395   0.00000  Uiso   1.00
C1254  C     0.48607   0.64541   0.79249   0.00000  Uiso   1.00
H1255  H     0.65886   0.48696   0.78285   0.00000  Uiso   1.00
H1256  H     0.66126   0.57694   0.77629   0.00000  Uiso   1.00
H1257  H     0.37189   0.57869   0.73379   0.00000  Uiso   1.00
H1258  H     0.63818   0.52207   0.71566   0.00000  Uiso   1.00
H1259  H     0.63075   0.56292   0.67394   0.00000  Uiso   1.00
H1260  H     0.55631   0.59124   0.70804   0.00000  Uiso   1.00
H1261  H     0.56877   0.55688   0.75493   0.00000  Uiso   1.00
H1262  H     0.33874   0.42306   0.89038   0.00000  Uiso   1.00
H1263  H     0.34520   0.38331   0.93412   0.00000  Uiso   1.00
H1264  H     0.62811   0.42131   0.93288   0.00000  Uiso   1.00
H1265  H     0.36925   0.43708   0.99273   0.00000  Uiso   1.00
H1266  H     0.34114   0.51304   0.88381   0.00000  Uiso   1.00
H1267  H     0.36182   0.47793   0.95100   0.00000  Uiso   1.00
H1268  H     0.43123   0.44312   0.91174   0.00000  Uiso   1.00
H1269  H     0.44369   0.40876   0.95862   0.00000  Uiso   1.00
H1270  H     0.47375   0.37111   0.76114   0.00000  Uiso   1.00
H1271  H     0.52625   0.62889   0.90553   0.00000  Uiso   1.00
H1272  H     0.47474   0.62917   0.76085   0.00000  Uiso   1.00
H1273  H     0.52526   0.37082   0.90582   0.00000  Uiso   1.00
H1274  H     0.55405   0.55034   0.96181   0.00000  Uiso   1.00
H1275  H     0.44595   0.44966   0.70485   0.00000  Uiso   1.00
H1276  H     0.65480   0.61669   0.73255   0.00000  Uiso   1.00
N1277  N     0.49999   0.49999   0.95240   0.00000  Uiso   1.00
N1278  N     0.50001   0.50001   0.71427   0.00000  Uiso   1.00
O1279  O     0.50000   0.43892   0.87154   0.00000  Uiso   1.00
O1280  O     0.50000   0.56108   0.79513   0.00000  Uiso   1.00
O1281  O     0.50000   0.43893   0.79510   0.00000  Uiso   1.00
O1282  O     0.50000   0.56107   0.87157   0.00000  Uiso   1.00
O1283  O     0.42392   0.50000   0.86261   0.00000  Uiso   1.00
O1284  O     0.57608   0.50000   0.80405   0.00000  Uiso   1.00
O1285  O     0.42392   0.50000   0.78617   0.00000  Uiso   1.00
O1286  O     0.57608   0.50000   0.88050   0.00000  Uiso   1.00
Zn1287 Zn    0.50000   0.49999   0.88437   0.00000  Uiso   1.00
Zn1288 Zn    0.50000   0.50001   0.78229   0.00000  Uiso   1.00
C1289  C     0.83302   0.42005   0.83346   0.00000  Uiso   1.00
C1290  C     0.84726   0.35459   0.87418   0.00000  Uiso   1.00
C1291  C     0.83388   0.62415   0.83311   0.00000  Uiso   1.00
C1292  C     0.83279   0.37585   0.83356   0.00000  Uiso   1.00
C1293  C     0.86532   0.52772   0.69295   0.00000  Uiso   1.00
C1294  C     0.80135   0.47228   0.97372   0.00000  Uiso   1.00
C1295  C     0.86387   0.52788   0.97843   0.00000  Uiso   1.00
C1296  C     0.80280   0.47212   0.68824   0.00000  Uiso   1.00
C1297  C     0.90259   0.55945   0.71849   0.00000  Uiso   1.00
C1298  C     0.95986   0.55485   0.70964   0.00000  Uiso   1.00
C1299  C     0.99751   0.58359   0.74004   0.00000  Uiso   1.00
C1300  C     0.83365   0.57995   0.83320   0.00000  Uiso   1.00
C1301  C     0.76408   0.44055   0.94818   0.00000  Uiso   1.00
C1302  C     0.70680   0.44515   0.95702   0.00000  Uiso   1.00
C1303  C     0.66915   0.41641   0.92663   0.00000  Uiso   1.00
C1304  C     0.73390   0.49920   0.82168   0.00000  Uiso   1.00
C1305  C     0.93277   0.50080   0.84498   0.00000  Uiso   1.00
C1306  C     0.67897   0.49620   0.81576   0.00000  Uiso   1.00
C1307  C     0.98770   0.50380   0.85091   0.00000  Uiso   1.00
C1308  C     0.81878   0.35475   0.79272   0.00000  Uiso   1.00
C1309  C     0.84788   0.64525   0.87395   0.00000  Uiso   1.00
C1310  C     0.81941   0.64541   0.79249   0.00000  Uiso   1.00
H1311  H     0.99220   0.48696   0.78285   0.00000  Uiso   1.00
H1312  H     0.99460   0.57694   0.77629   0.00000  Uiso   1.00
H1313  H     0.70522   0.57869   0.73379   0.00000  Uiso   1.00
H1314  H     0.97151   0.52207   0.71566   0.00000  Uiso   1.00
H1315  H     0.96408   0.56292   0.67394   0.00000  Uiso   1.00
H1316  H     0.88965   0.59124   0.70804   0.00000  Uiso   1.00
H1317  H     0.90211   0.55688   0.75493   0.00000  Uiso   1.00
H1318  H     0.67207   0.42306   0.89038   0.00000  Uiso   1.00
H1319  H     0.67854   0.38331   0.93412   0.00000  Uiso   1.00
H1320  H     0.96144   0.42131   0.93288   0.00000  Uiso   1.00
H1321  H     0.70259   0.43708   0.99273   0.00000  Uiso   1.00
H1322  H     0.67447   0.51304   0.88381   0.00000  Uiso   1.00
H1323  H     0.69515   0.47793   0.95100   0.00000  Uiso   1.00
H1324  H     0.76456   0.44312   0.91174   0.00000  Uiso   1.00
H1325  H     0.77702   0.40876   0.95862   0.00000  Uiso   1.00
H1326  H     0.80709   0.37111   0.76114   0.00000  Uiso   1.00
H1327  H     0.85958   0.62889   0.90553   0.00000  Uiso   1.00
H1328  H     0.80807   0.62917   0.76085   0.00000  Uiso   1.00
H1329  H     0.85859   0.37082   0.90582   0.00000  Uiso   1.00
H1330  H     0.88738   0.55034   0.96181   0.00000  Uiso   1.00
H1331  H     0.77928   0.44966   0.70485   0.00000  Uiso   1.00
H1332  H     0.98813   0.61669   0.73255   0.00000  Uiso   1.00
N1333  N     0.83332   0.49999   0.95240   0.00000  Uiso   1.00
N1334  N     0.83335   0.50001   0.71427   0.00000  Uiso   1.00
O1335  O     0.83333   0.43892   0.87154   0.00000  Uiso   1.00
O1336  O     0.83334   0.56108   0.79513   0.00000  Uiso   1.00
O1337  O     0.83333   0.43893   0.79510   0.00000  Uiso   1.00
O1338  O     0.83334   0.56107   0.87157   0.00000  Uiso   1.00
O1339  O     0.75725   0.50000   0.86261   0.00000  Uiso   1.00
O1340  O     0.90942   0.50000   0.80405   0.00000  Uiso   1.00
O1341  O     0.75725   0.50000   0.78617   0.00000  Uiso   1.00
O1342  O     0.90942   0.50000   0.88050   0.00000  Uiso   1.00
Zn1343 Zn    0.83333   0.49999   0.88437   0.00000  Uiso   1.00
Zn1344 Zn    0.83333   0.50001   0.78229   0.00000  Uiso   1.00
C1345  C     0.16635   0.75339   0.83346   0.00000  Uiso   1.00
C1346  C     0.18059   0.68792   0.87418   0.00000  Uiso   1.00
C1347  C     0.16721   0.95748   0.83311   0.00000  Uiso   1.00
C1348  C     0.16612   0.70918   0.83356   0.00000  Uiso   1.00
C1349  C     0.19865   0.86105   0.69295   0.00000  Uiso   1.00
C1350  C     0.13468   0.80562   0.97372   0.00000  Uiso   1.00
C1351  C     0.19720   0.86121   0.97843   0.00000  Uiso   1.00
C1352  C     0.13613   0.80545   0.68824   0.00000  Uiso   1.00
C1353  C     0.23592   0.89278   0.71849   0.00000  Uiso   1.00
C1354  C     0.29320   0.88818   0.70964   0.00000  Uiso   1.00
C1355  C     0.33085   0.91692   0.74004   0.00000  Uiso   1.00
C1356  C     0.16698   0.91328   0.83320   0.00000  Uiso   1.00
C1357  C     0.09741   0.77388   0.94818   0.00000  Uiso   1.00
C1358  C     0.04014   0.77849   0.95702   0.00000  Uiso   1.00
C1359  C     0.00249   0.74974   0.92663   0.00000  Uiso   1.00
C1360  C     0.06723   0.83254   0.82168   0.00000  Uiso   1.00
C1361  C     0.26610   0.83413   0.84498   0.00000  Uiso   1.00
C1362  C     0.01230   0.82953   0.81576   0.00000  Uiso   1.00
C1363  C     0.32103   0.83714   0.85091   0.00000  Uiso   1.00
C1364  C     0.15212   0.68809   0.79272   0.00000  Uiso   1.00
C1365  C     0.18122   0.97858   0.87395   0.00000  Uiso   1.00
C1366  C     0.15274   0.97875   0.79249   0.00000  Uiso   1.00
H1367  H     0.32553   0.82029   0.78285   0.00000  Uiso   1.00
H1368  H     0.32793   0.91027   0.77629   0.00000  Uiso   1.00
H1369  H     0.03856   0.91202   0.73379   0.00000  Uiso   1.00
H1370  H     0.30485   0.85540   0.71566   0.00000  Uiso   1.00
H1371  H     0.29741   0.89625   0.67394   0.00000  Uiso   1.00
H1372  H     0.22298   0.92458   0.70804   0.00000  Uiso   1.00
H1373  H     0.23544   0.89021   0.75493   0.00000  Uiso   1.00
H1374  H     0.00541   0.75639   0.89038   0.00000  Uiso   1.00
H1375  H     0.01187   0.71664   0.93412   0.00000  Uiso   1.00
H1376  H     0.29478   0.75465   0.93288   0.00000  Uiso   1.00
H1377  H     0.03592   0.77041   0.99273   0.00000  Uiso   1.00
H1378  H     0.00780   0.84637   0.88381   0.00000  Uiso   1.00
H1379  H     0.02849   0.81127   0.95100   0.00000  Uiso   1.00
H1380  H     0.09789   0.77645   0.91174   0.00000  Uiso   1.00
H1381  H     0.11035   0.74209   0.95862   0.00000  Uiso   1.00
H1382  H     0.14042   0.70444   0.76114   0.00000  Uiso   1.00
H1383  H     0.19291   0.96222   0.90553   0.00000  Uiso   1.00
H1384  H     0.14141   0.96251   0.76085   0.00000  Uiso   1.00
H1385  H     0.19193   0.70416   0.90582   0.00000  Uiso   1.00
H1386  H     0.22072   0.88368   0.96181   0.00000  Uiso   1.00
H1387  H     0.11262   0.78299   0.70485   0.00000  Uiso   1.00
H1388  H     0.32146   0.95003   0.73255   0.00000  Uiso   1.00
N1389  N     0.16665   0.83332   0.95240   0.00000  Uiso   1.00
N1390  N     0.16668   0.83334   0.71427   0.00000  Uiso   1.00
O1391  O     0.16666   0.77225   0.87154   0.00000  Uiso   1.00
O1392  O     0.16667   0.89442   0.79513   0.00000  Uiso   1.00
O1393  O     0.16666   0.77226   0.79510   0.00000  Uiso   1.00
O1394  O     0.16667   0.89441   0.87157   0.00000  Uiso   1.00
O1395  O     0.09058   0.83333   0.86261   0.00000  Uiso   1.00
O1396  O     0.24275   0.83334   0.80405   0.00000  Uiso   1.00
O1397  O     0.09058   0.83334   0.78617   0.00000  Uiso   1.00
O1398  O     0.24275   0.83333   0.88050   0.00000  Uiso   1.00
Zn1399 Zn    0.16667   0.83333   0.88437   0.00000  Uiso   1.00
Zn1400 Zn    0.16667   0.83334   0.78229   0.00000  Uiso   1.00
C1401  C     0.49968   0.75339   0.83346   0.00000  Uiso   1.00
C1402  C     0.51393   0.68792   0.87418   0.00000  Uiso   1.00
C1403  C     0.50054   0.95748   0.83311   0.00000  Uiso   1.00
C1404  C     0.49946   0.70918   0.83356   0.00000  Uiso   1.00
C1405  C     0.53199   0.86105   0.69295   0.00000  Uiso   1.00
C1406  C     0.46801   0.80562   0.97372   0.00000  Uiso   1.00
C1407  C     0.53053   0.86121   0.97843   0.00000  Uiso   1.00
C1408  C     0.46947   0.80545   0.68824   0.00000  Uiso   1.00
C1409  C     0.56926   0.89278   0.71849   0.00000  Uiso   1.00
C1410  C     0.62653   0.88818   0.70964   0.00000  Uiso   1.00
C1411  C     0.66418   0.91692   0.74004   0.00000  Uiso   1.00
C1412  C     0.50032   0.91328   0.83320   0.00000  Uiso   1.00
C1413  C     0.43074   0.77388   0.94818   0.00000  Uiso   1.00
C1414  C     0.37347   0.77849   0.95702   0.00000  Uiso   1.00
C1415  C     0.33582   0.74974   0.92663   0.00000  Uiso   1.00
C1416  C     0.40057   0.83254   0.82168   0.00000  Uiso   1.00
C1417  C     0.59943   0.83413   0.84498   0.00000  Uiso   1.00
C1418  C     0.34563   0.82953   0.81576   0.00000  Uiso   1.00
C1419  C     0.65437   0.83714   0.85091   0.00000  Uiso   1.00
C1420  C     0.48545   0.68809   0.79272   0.00000  Uiso   1.00
C1421  C     0.51455   0.97858   0.87395   0.00000  Uiso   1.00
C1422  C     0.48607   0.97875   0.79249   0.00000  Uiso   1.00
H1423  H     0.65886   0.82029   0.78285   0.00000  Uiso   1.00
H1424  H     0.66126   0.91027   0.77629   0.00000  Uiso   1.00
H1425  H     0.37189   0.91202   0.73379   0.00000  Uiso   1.00
H1426  H     0.63818   0.85540   0.71566   0.00000  Uiso   1.00
H1427  H     0.63075   0.89625   0.67394   0.00000  Uiso   1.00
H1428  H     0.55631   0.92458   0.70804   0.00000  Uiso   1.00
H1429  H     0.56877   0.89021   0.75493   0.00000  Uiso   1.00
H1430  H     0.33874   0.75639   0.89038   0.00000  Uiso   1.00
H1431  H     0.34520   0.71664   0.93412   0.00000  Uiso   1.00
H1432  H     0.62811   0.75465   0.93288   0.00000  Uiso   1.00
H1433  H     0.36925   0.77041   0.99273   0.00000  Uiso   1.00
H1434  H     0.34114   0.84637   0.88381   0.00000  Uiso   1.00
H1435  H     0.36182   0.81127   0.95100   0.00000  Uiso   1.00
H1436  H     0.43123   0.77645   0.91174   0.00000  Uiso   1.00
H1437  H     0.44369   0.74209   0.95862   0.00000  Uiso   1.00
H1438  H     0.47375   0.70444   0.76114   0.00000  Uiso   1.00
H1439  H     0.52625   0.96222   0.90553   0.00000  Uiso   1.00
H1440  H     0.47474   0.96251   0.76085   0.00000  Uiso   1.00
H1441  H     0.52526   0.70416   0.90582   0.00000  Uiso   1.00
H1442  H     0.55405   0.88368   0.96181   0.00000  Uiso   1.00
H1443  H     0.44595   0.78299   0.70485   0.00000  Uiso   1.00
H1444  H     0.65480   0.95003   0.73255   0.00000  Uiso   1.00
N1445  N     0.49999   0.83332   0.95240   0.00000  Uiso   1.00
N1446  N     0.50001   0.83334   0.71427   0.00000  Uiso   1.00
O1447  O     0.50000   0.77225   0.87154   0.00000  Uiso   1.00
O1448  O     0.50000   0.89442   0.79513   0.00000  Uiso   1.00
O1449  O     0.50000   0.77226   0.79510   0.00000  Uiso   1.00
O1450  O     0.50000   0.89441   0.87157   0.00000  Uiso   1.00
O1451  O     0.42392   0.83333   0.86261   0.00000  Uiso   1.00
O1452  O     0.57608   0.83334   0.80405   0.00000  Uiso   1.00
O1453  O     0.42392   0.83334   0.78617   0.00000  Uiso   1.00
O1454  O     0.57608   0.83333   0.88050   0.00000  Uiso   1.00
Zn1455 Zn    0.50000   0.83333   0.88437   0.00000  Uiso   1.00
Zn1456 Zn    0.50000   0.83334   0.78229   0.00000  Uiso   1.00
C1457  C     0.83302   0.75339   0.83346   0.00000  Uiso   1.00
C1458  C     0.84726   0.68792   0.87418   0.00000  Uiso   1.00
C1459  C     0.83388   0.95748   0.83311   0.00000  Uiso   1.00
C1460  C     0.83279   0.70918   0.83356   0.00000  Uiso   1.00
C1461  C     0.86532   0.86105   0.69295   0.00000  Uiso   1.00
C1462  C     0.80135   0.80562   0.97372   0.00000  Uiso   1.00
C1463  C     0.86387   0.86121   0.97843   0.00000  Uiso   1.00
C1464  C     0.80280   0.80545   0.68824   0.00000  Uiso   1.00
C1465  C     0.90259   0.89278   0.71849   0.00000  Uiso   1.00
C1466  C     0.95986   0.88818   0.70964   0.00000  Uiso   1.00
C1467  C     0.99751   0.91692   0.74004   0.00000  Uiso   1.00
C1468  C     0.83365   0.91328   0.83320   0.00000  Uiso   1.00
C1469  C     0.76408   0.77388   0.94818   0.00000  Uiso   1.00
C1470  C     0.70680   0.77849   0.95702   0.00000  Uiso   1.00
C1471  C     0.66915   0.74974   0.92663   0.00000  Uiso   1.00
C1472  C     0.73390   0.83254   0.82168   0.00000  Uiso   1.00
C1473  C     0.93277   0.83413   0.84498   0.00000  Uiso   1.00
C1474  C     0.67897   0.82953   0.81576   0.00000  Uiso   1.00
C1475  C     0.98770   0.83714   0.85091   0.00000  Uiso   1.00
C1476  C     0.81878   0.68809   0.79272   0.00000  Uiso   1.00
C1477  C     0.84788   0.97858   0.87395   0.00000  Uiso   1.00
C1478  C     0.81941   0.97875   0.79249   0.00000  Uiso   1.00
H1479  H     0.99220   0.82029   0.78285   0.00000  Uiso   1.00
H1480  H     0.99460   0.91027   0.77629   0.00000  Uiso   1.00
H1481  H     0.70522   0.91202   0.73379   0.00000  Uiso   1.00
H1482  H     0.97151   0.85540   0.71566   0.00000  Uiso   1.00
H1483  H     0.96408   0.89625   0.67394   0.00000  Uiso   1.00
H1484  H     0.88965   0.92458   0.70804   0.00000  Uiso   1.00
H1485  H     0.90211   0.89021   0.75493   0.00000  Uiso   1.00
H1486  H     0.67207   0.75639   0.89038   0.00000  Uiso   1.00
H1487  H     0.67854   0.71664   0.93412   0.00000  Uiso   1.00
H1488  H     0.96144   0.75465   0.93288   0.00000  Uiso   1.00
H1489  H     0.70259   0.77041   0.99273   0.00000  Uiso   1.00
H1490  H     0.67447   0.84637   0.88381   0.00000  Uiso   1.00
H1491  H     0.69515   0.81127   0.95100   0.00000  Uiso   1.00
H1492  H     0.76456   0.77645   0.91174   0.00000  Uiso   1.00
H1493  H     0.77702   0.74209   0.95862   0.00000  Uiso   1.00
H1494  H     0.80709   0.70444   0.76114   0.00000  Uiso   1.00
H1495  H     0.85958   0.96222   0.90553   0.00000  Uiso   1.00
H1496  H     0.80807   0.96251   0.76085   0.00000  Uiso   1.00
H1497  H     0.85859   0.70416   0.90582   0.00000  Uiso   1.00
H1498  H     0.88738   0.88368   0.96181   0.00000  Uiso   1.00
H1499  H     0.77928   0.78299   0.70485   0.00000  Uiso   1.00
H1500  H     0.98813   0.95003   0.73255   0.00000  Uiso   1.00
N1501  N     0.83332   0.83332   0.95240   0.00000  Uiso   1.00
N1502  N     0.83335   0.83334   0.71427   0.00000  Uiso   1.00
O1503  O     0.83333   0.77225   0.87154   0.00000  Uiso   1.00
O1504  O     0.83334   0.89442   0.79513   0.00000  Uiso   1.00
O1505  O     0.83333   0.77226   0.79510   0.00000  Uiso   1.00
O1506  O     0.83334   0.89441   0.87157   0.00000  Uiso   1.00
O1507  O     0.75725   0.83333   0.86261   0.00000  Uiso   1.00
O1508  O     0.90942   0.83334   0.80405   0.00000  Uiso   1.00
O1509  O     0.75725   0.83334   0.78617   0.00000  Uiso   1.00
O1510  O     0.90942   0.83333   0.88050   0.00000  Uiso   1.00
Zn1511 Zn    0.83333   0.83333   0.88437   0.00000  Uiso   1.00
Zn1512 Zn    0.83333   0.83334   0.78229   0.00000  Uiso   1.00
loop_
_geom_bond_atom_site_label_1
_geom_bond_atom_site_label_2
_geom_bond_distance
_geom_bond_site_symmetry_2
_ccdc_geom_bond_type
C1     C4      1.418   .     S
C1     O47     1.292   .     A
C1     O49     1.288   .     A
C2     C4      1.395   .     A
C2     H41     1.084   .     S
C2     C357    1.370   1_545 S
C3     C21     1.399   .     A
C3     C22     1.395   .     A
C3     C12     1.418   .     S
C4     C20     1.399   .     A
C5     C9      1.514   .     S
C5     N46     1.393   .     A
C5     C1015   1.421   1_554 S
C6     N45     1.393   .     A
C6     C13     1.514   .     S
C6     C512    1.421   .     S
C7     N45     1.352   .     A
C7     H42     1.081   .     S
C7     C509    1.421   .     S
C8     H43     1.081   .     S
C8     N46     1.352   .     A
C8     C1014   1.421   1_554 S
C9     C10     1.540   .     S
C9     H29     1.089   .     S
C9     H28     1.112   .     S
C10    H27     1.110   .     S
C10    H26     1.109   .     S
C10    C11     1.528   .     S
C11    H44     1.111   .     S
C11    H24     1.110   .     S
C11    H81     1.111   .     S
C12    O50     1.288   .     A
C12    O48     1.292   .     A
C13    C14     1.540   .     S
C13    H37     1.112   .     S
C13    H36     1.089   .     S
C14    H33     1.110   .     S
C14    H35     1.109   .     S
C14    C15     1.528   .     S
C15    H31     1.111   .     S
C15    H30     1.110   .     S
C15    H144    1.111   1_455 S
C16    O51     1.286   .     A
C16    O53     1.283   .     A
C16    C18     1.398   .     S
C17    O52     1.286   .     A
C17    C19     1.398   .     S
C17    O54     1.283   .     A
C18    C131    1.322   1_455 S
C18    H135    1.086   1_455 S
C19    C74     1.322   .     S
C19    H90     1.086   .     S
C20    H38     1.084   .     S
C20    C358    1.370   1_545 S
C21    H39     1.084   .     S
C21    C170    1.370   .     S
C22    H40     1.084   .     S
C22    C188    1.370   .     S
H23    C74     1.086   .     S
H25    C123    1.111   1_455 S
H32    C71     1.111   .     S
H34    C131    1.086   1_455 S
N45    Zn55    2.027   .     S
N46    Zn56    2.027   .     S
O47    Zn55    2.002   .     S
O48    Zn56    2.002   .     S
O49    Zn56    1.992   .     S
O50    Zn55    1.992   .     S
O51    Zn55    1.975   .     S
O52    Zn56    1.975   .     S
O53    Zn56    1.972   .     S
O54    Zn55    1.972   .     S
C57    C60     1.418   .     S
C57    O103    1.292   .     A
C57    O105    1.288   .     A
C58    C60     1.395   .     A
C58    H97     1.084   .     S
C58    C413    1.370   1_545 S
C59    C77     1.399   .     A
C59    C78     1.395   .     A
C59    C68     1.418   .     S
C60    C76     1.399   .     A
C61    C65     1.514   .     S
C61    N102    1.393   .     A
C61    C1071   1.421   1_554 S
C62    N101    1.393   .     A
C62    C69     1.514   .     S
C62    C568    1.421   .     S
C63    N101    1.352   .     A
C63    H98     1.081   .     S
C63    C565    1.421   .     S
C64    H99     1.081   .     S
C64    N102    1.352   .     A
C64    C1070   1.421   1_554 S
C65    C66     1.540   .     S
C65    H85     1.089   .     S
C65    H84     1.112   .     S
C66    H83     1.110   .     S
C66    H82     1.109   .     S
C66    C67     1.528   .     S
C67    H100    1.111   .     S
C67    H80     1.110   .     S
C67    H137    1.111   .     S
C68    O106    1.288   .     A
C68    O104    1.292   .     A
C69    C70     1.540   .     S
C69    H93     1.112   .     S
C69    H92     1.089   .     S
C70    H89     1.110   .     S
C70    H91     1.109   .     S
C70    C71     1.528   .     S
C71    H87     1.111   .     S
C71    H86     1.110   .     S
C72    O107    1.286   .     A
C72    O109    1.283   .     A
C72    C74     1.398   .     S
C73    O108    1.286   .     A
C73    C75     1.398   .     S
C73    O110    1.283   .     A
C75    C130    1.322   .     S
C75    H146    1.086   .     S
C76    H94     1.084   .     S
C76    C414    1.370   1_545 S
C77    H95     1.084   .     S
C77    C226    1.370   .     S
C78    H96     1.084   .     S
C78    C244    1.370   .     S
H79    C130    1.086   .     S
H88    C127    1.111   .     S
N101   Zn111   2.027   .     S
N102   Zn112   2.027   .     S
O103   Zn111   2.002   .     S
O104   Zn112   2.002   .     S
O105   Zn112   1.992   .     S
O106   Zn111   1.992   .     S
O107   Zn111   1.975   .     S
O108   Zn112   1.975   .     S
O109   Zn112   1.972   .     S
O110   Zn111   1.972   .     S
C113   C116    1.418   .     S
C113   O159    1.292   .     A
C113   O161    1.288   .     A
C114   C116    1.395   .     A
C114   H153    1.084   .     S
C114   C469    1.370   1_545 S
C115   C133    1.399   .     A
C115   C134    1.395   .     A
C115   C124    1.418   .     S
C116   C132    1.399   .     A
C117   C121    1.514   .     S
C117   N158    1.393   .     A
C117   C1127   1.421   1_554 S
C118   N157    1.393   .     A
C118   C125    1.514   .     S
C118   C624    1.421   .     S
C119   N157    1.352   .     A
C119   H154    1.081   .     S
C119   C621    1.421   .     S
C120   H155    1.081   .     S
C120   N158    1.352   .     A
C120   C1126   1.421   1_554 S
C121   C122    1.540   .     S
C121   H141    1.089   .     S
C121   H140    1.112   .     S
C122   H139    1.110   .     S
C122   H138    1.109   .     S
C122   C123    1.528   .     S
C123   H156    1.111   .     S
C123   H136    1.110   .     S
C123   H25     1.111   1_655 S
C124   O162    1.288   .     A
C124   O160    1.292   .     A
C125   C126    1.540   .     S
C125   H149    1.112   .     S
C125   H148    1.089   .     S
C126   H145    1.110   .     S
C126   H147    1.109   .     S
C126   C127    1.528   .     S
C127   H143    1.111   .     S
C127   H142    1.110   .     S
C128   O163    1.286   .     A
C128   O165    1.283   .     A
C128   C130    1.398   .     S
C129   O164    1.286   .     A
C129   C131    1.398   .     S
C129   O166    1.283   .     A
C131   C18     1.322   1_655 S
C131   H34     1.086   1_655 S
C132   H150    1.084   .     S
C132   C470    1.370   1_545 S
C133   H151    1.084   .     S
C133   C282    1.370   .     S
C134   H152    1.084   .     S
C134   C300    1.370   .     S
H135   C18     1.086   1_655 S
H144   C15     1.111   1_655 S
N157   Zn167   2.027   .     S
N158   Zn168   2.027   .     S
O159   Zn167   2.002   .     S
O160   Zn168   2.002   .     S
O161   Zn168   1.992   .     S
O162   Zn167   1.992   .     S
O163   Zn167   1.975   .     S
O164   Zn168   1.975   .     S
O165   Zn168   1.972   .     S
O166   Zn167   1.972   .     S
C169   C172    1.418   .     S
C169   O215    1.292   .     A
C169   O217    1.288   .     A
C170   C172    1.395   .     A
C170   H209    1.084   .     S
C171   C189    1.399   .     A
C171   C190    1.395   .     A
C171   C180    1.418   .     S
C172   C188    1.399   .     A
C173   C177    1.514   .     S
C173   N214    1.393   .     A
C173   C1183   1.421   1_554 S
C174   N213    1.393   .     A
C174   C181    1.514   .     S
C174   C680    1.421   .     S
C175   N213    1.352   .     A
C175   H210    1.081   .     S
C175   C677    1.421   .     S
C176   H211    1.081   .     S
C176   N214    1.352   .     A
C176   C1182   1.421   1_554 S
C177   C178    1.540   .     S
C177   H197    1.089   .     S
C177   H196    1.112   .     S
C178   H195    1.110   .     S
C178   H194    1.109   .     S
C178   C179    1.528   .     S
C179   H212    1.111   .     S
C179   H192    1.110   .     S
C179   H249    1.111   .     S
C180   O218    1.288   .     A
C180   O216    1.292   .     A
C181   C182    1.540   .     S
C181   H205    1.112   .     S
C181   H204    1.089   .     S
C182   H201    1.110   .     S
C182   H203    1.109   .     S
C182   C183    1.528   .     S
C183   H199    1.111   .     S
C183   H198    1.110   .     S
C183   H312    1.111   1_455 S
C184   O219    1.286   .     A
C184   O221    1.283   .     A
C184   C186    1.398   .     S
C185   O220    1.286   .     A
C185   C187    1.398   .     S
C185   O222    1.283   .     A
C186   C299    1.322   1_455 S
C186   H303    1.086   1_455 S
C187   C242    1.322   .     S
C187   H258    1.086   .     S
C188   H206    1.084   .     S
C189   H207    1.084   .     S
C189   C338    1.370   .     S
C190   H208    1.084   .     S
C190   C356    1.370   .     S
H191   C242    1.086   .     S
H193   C291    1.111   1_455 S
H200   C239    1.111   .     S
H202   C299    1.086   1_455 S
N213   Zn223   2.027   .     S
N214   Zn224   2.027   .     S
O215   Zn223   2.002   .     S
O216   Zn224   2.002   .     S
O217   Zn224   1.992   .     S
O218   Zn223   1.992   .     S
O219   Zn223   1.975   .     S
O220   Zn224   1.975   .     S
O221   Zn224   1.972   .     S
O222   Zn223   1.972   .     S
C225   C228    1.418   .     S
C225   O271    1.292   .     A
C225   O273    1.288   .     A
C226   C228    1.395   .     A
C226   H265    1.084   .     S
C227   C245    1.399   .     A
C227   C246    1.395   .     A
C227   C236    1.418   .     S
C228   C244    1.399   .     A
C229   C233    1.514   .     S
C229   N270    1.393   .     A
C229   C1239   1.421   1_554 S
C230   N269    1.393   .     A
C230   C237    1.514   .     S
C230   C736    1.421   .     S
C231   N269    1.352   .     A
C231   H266    1.081   .     S
C231   C733    1.421   .     S
C232   H267    1.081   .     S
C232   N270    1.352   .     A
C232   C1238   1.421   1_554 S
C233   C234    1.540   .     S
C233   H253    1.089   .     S
C233   H252    1.112   .     S
C234   H251    1.110   .     S
C234   H250    1.109   .     S
C234   C235    1.528   .     S
C235   H268    1.111   .     S
C235   H248    1.110   .     S
C235   H305    1.111   .     S
C236   O274    1.288   .     A
C236   O272    1.292   .     A
C237   C238    1.540   .     S
C237   H261    1.112   .     S
C237   H260    1.089   .     S
C238   H257    1.110   .     S
C238   H259    1.109   .     S
C238   C239    1.528   .     S
C239   H255    1.111   .     S
C239   H254    1.110   .     S
C240   O275    1.286   .     A
C240   O277    1.283   .     A
C240   C242    1.398   .     S
C241   O276    1.286   .     A
C241   C243    1.398   .     S
C241   O278    1.283   .     A
C243   C298    1.322   .     S
C243   H314    1.086   .     S
C244   H262    1.084   .     S
C245   H263    1.084   .     S
C245   C394    1.370   .     S
C246   H264    1.084   .     S
C246   C412    1.370   .     S
H247   C298    1.086   .     S
H256   C295    1.111   .     S
N269   Zn279   2.027   .     S
N270   Zn280   2.027   .     S
O271   Zn279   2.002   .     S
O272   Zn280   2.002   .     S
O273   Zn280   1.992   .     S
O274   Zn279   1.992   .     S
O275   Zn279   1.975   .     S
O276   Zn280   1.975   .     S
O277   Zn280   1.972   .     S
O278   Zn279   1.972   .     S
C281   C284    1.418   .     S
C281   O327    1.292   .     A
C281   O329    1.288   .     A
C282   C284    1.395   .     A
C282   H321    1.084   .     S
C283   C301    1.399   .     A
C283   C302    1.395   .     A
C283   C292    1.418   .     S
C284   C300    1.399   .     A
C285   C289    1.514   .     S
C285   N326    1.393   .     A
C285   C1295   1.421   1_554 S
C286   N325    1.393   .     A
C286   C293    1.514   .     S
C286   C792    1.421   .     S
C287   N325    1.352   .     A
C287   H322    1.081   .     S
C287   C789    1.421   .     S
C288   H323    1.081   .     S
C288   N326    1.352   .     A
C288   C1294   1.421   1_554 S
C289   C290    1.540   .     S
C289   H309    1.089   .     S
C289   H308    1.112   .     S
C290   H307    1.110   .     S
C290   H306    1.109   .     S
C290   C291    1.528   .     S
C291   H324    1.111   .     S
C291   H304    1.110   .     S
C291   H193    1.111   1_655 S
C292   O330    1.288   .     A
C292   O328    1.292   .     A
C293   C294    1.540   .     S
C293   H317    1.112   .     S
C293   H316    1.089   .     S
C294   H313    1.110   .     S
C294   H315    1.109   .     S
C294   C295    1.528   .     S
C295   H311    1.111   .     S
C295   H310    1.110   .     S
C296   O331    1.286   .     A
C296   O333    1.283   .     A
C296   C298    1.398   .     S
C297   O332    1.286   .     A
C297   C299    1.398   .     S
C297   O334    1.283   .     A
C299   C186    1.322   1_655 S
C299   H202    1.086   1_655 S
C300   H318    1.084   .     S
C301   H319    1.084   .     S
C301   C450    1.370   .     S
C302   H320    1.084   .     S
C302   C468    1.370   .     S
H303   C186    1.086   1_655 S
H312   C183    1.111   1_655 S
N325   Zn335   2.027   .     S
N326   Zn336   2.027   .     S
O327   Zn335   2.002   .     S
O328   Zn336   2.002   .     S
O329   Zn336   1.992   .     S
O330   Zn335   1.992   .     S
O331   Zn335   1.975   .     S
O332   Zn336   1.975   .     S
O333   Zn336   1.972   .     S
O334   Zn335   1.972   .     S
C337   C340    1.418   .     S
C337   O383    1.292   .     A
C337   O385    1.288   .     A
C338   C340    1.395   .     A
C338   H377    1.084   .     S
C339   C357    1.399   .     A
C339   C358    1.395   .     A
C339   C348    1.418   .     S
C340   C356    1.399   .     A
C341   C345    1.514   .     S
C341   N382    1.393   .     A
C341   C1351   1.421   1_554 S
C342   N381    1.393   .     A
C342   C349    1.514   .     S
C342   C848    1.421   .     S
C343   N381    1.352   .     A
C343   H378    1.081   .     S
C343   C845    1.421   .     S
C344   H379    1.081   .     S
C344   N382    1.352   .     A
C344   C1350   1.421   1_554 S
C345   C346    1.540   .     S
C345   H365    1.089   .     S
C345   H364    1.112   .     S
C346   H363    1.110   .     S
C346   H362    1.109   .     S
C346   C347    1.528   .     S
C347   H380    1.111   .     S
C347   H360    1.110   .     S
C347   H417    1.111   .     S
C348   O386    1.288   .     A
C348   O384    1.292   .     A
C349   C350    1.540   .     S
C349   H373    1.112   .     S
C349   H372    1.089   .     S
C350   H369    1.110   .     S
C350   H371    1.109   .     S
C350   C351    1.528   .     S
C351   H367    1.111   .     S
C351   H366    1.110   .     S
C351   H480    1.111   1_455 S
C352   O387    1.286   .     A
C352   O389    1.283   .     A
C352   C354    1.398   .     S
C353   O388    1.286   .     A
C353   C355    1.398   .     S
C353   O390    1.283   .     A
C354   C467    1.322   1_455 S
C354   H471    1.086   1_455 S
C355   C410    1.322   .     S
C355   H426    1.086   .     S
C356   H374    1.084   .     S
C357   H375    1.084   .     S
C357   C2      1.370   1_565 S
C358   H376    1.084   .     S
C358   C20     1.370   1_565 S
H359   C410    1.086   .     S
H361   C459    1.111   1_455 S
H368   C407    1.111   .     S
H370   C467    1.086   1_455 S
N381   Zn391   2.027   .     S
N382   Zn392   2.027   .     S
O383   Zn391   2.002   .     S
O384   Zn392   2.002   .     S
O385   Zn392   1.992   .     S
O386   Zn391   1.992   .     S
O387   Zn391   1.975   .     S
O388   Zn392   1.975   .     S
O389   Zn392   1.972   .     S
O390   Zn391   1.972   .     S
C393   C396    1.418   .     S
C393   O439    1.292   .     A
C393   O441    1.288   .     A
C394   C396    1.395   .     A
C394   H433    1.084   .     S
C395   C413    1.399   .     A
C395   C414    1.395   .     A
C395   C404    1.418   .     S
C396   C412    1.399   .     A
C397   C401    1.514   .     S
C397   N438    1.393   .     A
C397   C1407   1.421   1_554 S
C398   N437    1.393   .     A
C398   C405    1.514   .     S
C398   C904    1.421   .     S
C399   N437    1.352   .     A
C399   H434    1.081   .     S
C399   C901    1.421   .     S
C400   H435    1.081   .     S
C400   N438    1.352   .     A
C400   C1406   1.421   1_554 S
C401   C402    1.540   .     S
C401   H421    1.089   .     S
C401   H420    1.112   .     S
C402   H419    1.110   .     S
C402   H418    1.109   .     S
C402   C403    1.528   .     S
C403   H436    1.111   .     S
C403   H416    1.110   .     S
C403   H473    1.111   .     S
C404   O442    1.288   .     A
C404   O440    1.292   .     A
C405   C406    1.540   .     S
C405   H429    1.112   .     S
C405   H428    1.089   .     S
C406   H425    1.110   .     S
C406   H427    1.109   .     S
C406   C407    1.528   .     S
C407   H423    1.111   .     S
C407   H422    1.110   .     S
C408   O443    1.286   .     A
C408   O445    1.283   .     A
C408   C410    1.398   .     S
C409   O444    1.286   .     A
C409   C411    1.398   .     S
C409   O446    1.283   .     A
C411   C466    1.322   .     S
C411   H482    1.086   .     S
C412   H430    1.084   .     S
C413   H431    1.084   .     S
C413   C58     1.370   1_565 S
C414   H432    1.084   .     S
C414   C76     1.370   1_565 S
H415   C466    1.086   .     S
H424   C463    1.111   .     S
N437   Zn447   2.027   .     S
N438   Zn448   2.027   .     S
O439   Zn447   2.002   .     S
O440   Zn448   2.002   .     S
O441   Zn448   1.992   .     S
O442   Zn447   1.992   .     S
O443   Zn447   1.975   .     S
O444   Zn448   1.975   .     S
O445   Zn448   1.972   .     S
O446   Zn447   1.972   .     S
C449   C452    1.418   .     S
C449   O495    1.292   .     A
C449   O497    1.288   .     A
C450   C452    1.395   .     A
C450   H489    1.084   .     S
C451   C469    1.399   .     A
C451   C470    1.395   .     A
C451   C460    1.418   .     S
C452   C468    1.399   .     A
C453   C457    1.514   .     S
C453   N494    1.393   .     A
C453   C1463   1.421   1_554 S
C454   N493    1.393   .     A
C454   C461    1.514   .     S
C454   C960    1.421   .     S
C455   N493    1.352   .     A
C455   H490    1.081   .     S
C455   C957    1.421   .     S
C456   H491    1.081   .     S
C456   N494    1.352   .     A
C456   C1462   1.421   1_554 S
C457   C458    1.540   .     S
C457   H477    1.089   .     S
C457   H476    1.112   .     S
C458   H475    1.110   .     S
C458   H474    1.109   .     S
C458   C459    1.528   .     S
C459   H492    1.111   .     S
C459   H472    1.110   .     S
C459   H361    1.111   1_655 S
C460   O498    1.288   .     A
C460   O496    1.292   .     A
C461   C462    1.540   .     S
C461   H485    1.112   .     S
C461   H484    1.089   .     S
C462   H481    1.110   .     S
C462   H483    1.109   .     S
C462   C463    1.528   .     S
C463   H479    1.111   .     S
C463   H478    1.110   .     S
C464   O499    1.286   .     A
C464   O501    1.283   .     A
C464   C466    1.398   .     S
C465   O500    1.286   .     A
C465   C467    1.398   .     S
C465   O502    1.283   .     A
C467   C354    1.322   1_655 S
C467   H370    1.086   1_655 S
C468   H486    1.084   .     S
C469   H487    1.084   .     S
C469   C114    1.370   1_565 S
C470   H488    1.084   .     S
C470   C132    1.370   1_565 S
H471   C354    1.086   1_655 S
H480   C351    1.111   1_655 S
N493   Zn503   2.027   .     S
N494   Zn504   2.027   .     S
O495   Zn503   2.002   .     S
O496   Zn504   2.002   .     S
O497   Zn504   1.992   .     S
O498   Zn503   1.992   .     S
O499   Zn503   1.975   .     S
O500   Zn504   1.975   .     S
O501   Zn504   1.972   .     S
O502   Zn503   1.972   .     S
C505   C508    1.418   .     S
C505   O551    1.292   .     A
C505   O553    1.288   .     A
C506   C508    1.395   .     A
C506   H545    1.084   .     S
C506   C861    1.370   1_545 S
C507   C525    1.399   .     A
C507   C526    1.395   .     A
C507   C516    1.418   .     S
C508   C524    1.399   .     A
C509   C513    1.514   .     S
C509   N550    1.393   .     A
C510   N549    1.393   .     A
C510   C517    1.514   .     S
C510   C1016   1.421   .     S
C511   N549    1.352   .     A
C511   H546    1.081   .     S
C511   C1013   1.421   .     S
C512   H547    1.081   .     S
C512   N550    1.352   .     A
C513   C514    1.540   .     S
C513   H533    1.089   .     S
C513   H532    1.112   .     S
C514   H531    1.110   .     S
C514   H530    1.109   .     S
C514   C515    1.528   .     S
C515   H548    1.111   .     S
C515   H528    1.110   .     S
C515   H585    1.111   .     S
C516   O554    1.288   .     A
C516   O552    1.292   .     A
C517   C518    1.540   .     S
C517   H541    1.112   .     S
C517   H540    1.089   .     S
C518   H537    1.110   .     S
C518   H539    1.109   .     S
C518   C519    1.528   .     S
C519   H535    1.111   .     S
C519   H534    1.110   .     S
C519   H648    1.111   1_455 S
C520   O555    1.286   .     A
C520   O557    1.283   .     A
C520   C522    1.398   .     S
C521   O556    1.286   .     A
C521   C523    1.398   .     S
C521   O558    1.283   .     A
C522   C635    1.322   1_455 S
C522   H639    1.086   1_455 S
C523   C578    1.322   .     S
C523   H594    1.086   .     S
C524   H542    1.084   .     S
C524   C862    1.370   1_545 S
C525   H543    1.084   .     S
C525   C674    1.370   .     S
C526   H544    1.084   .     S
C526   C692    1.370   .     S
H527   C578    1.086   .     S
H529   C627    1.111   1_455 S
H536   C575    1.111   .     S
H538   C635    1.086   1_455 S
N549   Zn559   2.027   .     S
N550   Zn560   2.027   .     S
O551   Zn559   2.002   .     S
O552   Zn560   2.002   .     S
O553   Zn560   1.992   .     S
O554   Zn559   1.992   .     S
O555   Zn559   1.975   .     S
O556   Zn560   1.975   .     S
O557   Zn560   1.972   .     S
O558   Zn559   1.972   .     S
C561   C564    1.418   .     S
C561   O607    1.292   .     A
C561   O609    1.288   .     A
C562   C564    1.395   .     A
C562   H601    1.084   .     S
C562   C917    1.370   1_545 S
C563   C581    1.399   .     A
C563   C582    1.395   .     A
C563   C572    1.418   .     S
C564   C580    1.399   .     A
C565   C569    1.514   .     S
C565   N606    1.393   .     A
C566   N605    1.393   .     A
C566   C573    1.514   .     S
C566   C1072   1.421   .     S
C567   N605    1.352   .     A
C567   H602    1.081   .     S
C567   C1069   1.421   .     S
C568   H603    1.081   .     S
C568   N606    1.352   .     A
C569   C570    1.540   .     S
C569   H589    1.089   .     S
C569   H588    1.112   .     S
C570   H587    1.110   .     S
C570   H586    1.109   .     S
C570   C571    1.528   .     S
C571   H604    1.111   .     S
C571   H584    1.110   .     S
C571   H641    1.111   .     S
C572   O610    1.288   .     A
C572   O608    1.292   .     A
C573   C574    1.540   .     S
C573   H597    1.112   .     S
C573   H596    1.089   .     S
C574   H593    1.110   .     S
C574   H595    1.109   .     S
C574   C575    1.528   .     S
C575   H591    1.111   .     S
C575   H590    1.110   .     S
C576   O611    1.286   .     A
C576   O613    1.283   .     A
C576   C578    1.398   .     S
C577   O612    1.286   .     A
C577   C579    1.398   .     S
C577   O614    1.283   .     A
C579   C634    1.322   .     S
C579   H650    1.086   .     S
C580   H598    1.084   .     S
C580   C918    1.370   1_545 S
C581   H599    1.084   .     S
C581   C730    1.370   .     S
C582   H600    1.084   .     S
C582   C748    1.370   .     S
H583   C634    1.086   .     S
H592   C631    1.111   .     S
N605   Zn615   2.027   .     S
N606   Zn616   2.027   .     S
O607   Zn615   2.002   .     S
O608   Zn616   2.002   .     S
O609   Zn616   1.992   .     S
O610   Zn615   1.992   .     S
O611   Zn615   1.975   .     S
O612   Zn616   1.975   .     S
O613   Zn616   1.972   .     S
O614   Zn615   1.972   .     S
C617   C620    1.418   .     S
C617   O663    1.292   .     A
C617   O665    1.288   .     A
C618   C620    1.395   .     A
C618   H657    1.084   .     S
C618   C973    1.370   1_545 S
C619   C637    1.399   .     A
C619   C638    1.395   .     A
C619   C628    1.418   .     S
C620   C636    1.399   .     A
C621   C625    1.514   .     S
C621   N662    1.393   .     A
C622   N661    1.393   .     A
C622   C629    1.514   .     S
C622   C1128   1.421   .     S
C623   N661    1.352   .     A
C623   H658    1.081   .     S
C623   C1125   1.421   .     S
C624   H659    1.081   .     S
C624   N662    1.352   .     A
C625   C626    1.540   .     S
C625   H645    1.089   .     S
C625   H644    1.112   .     S
C626   H643    1.110   .     S
C626   H642    1.109   .     S
C626   C627    1.528   .     S
C627   H660    1.111   .     S
C627   H640    1.110   .     S
C627   H529    1.111   1_655 S
C628   O666    1.288   .     A
C628   O664    1.292   .     A
C629   C630    1.540   .     S
C629   H653    1.112   .     S
C629   H652    1.089   .     S
C630   H649    1.110   .     S
C630   H651    1.109   .     S
C630   C631    1.528   .     S
C631   H647    1.111   .     S
C631   H646    1.110   .     S
C632   O667    1.286   .     A
C632   O669    1.283   .     A
C632   C634    1.398   .     S
C633   O668    1.286   .     A
C633   C635    1.398   .     S
C633   O670    1.283   .     A
C635   C522    1.322   1_655 S
C635   H538    1.086   1_655 S
C636   H654    1.084   .     S
C636   C974    1.370   1_545 S
C637   H655    1.084   .     S
C637   C786    1.370   .     S
C638   H656    1.084   .     S
C638   C804    1.370   .     S
H639   C522    1.086   1_655 S
H648   C519    1.111   1_655 S
N661   Zn671   2.027   .     S
N662   Zn672   2.027   .     S
O663   Zn671   2.002   .     S
O664   Zn672   2.002   .     S
O665   Zn672   1.992   .     S
O666   Zn671   1.992   .     S
O667   Zn671   1.975   .     S
O668   Zn672   1.975   .     S
O669   Zn672   1.972   .     S
O670   Zn671   1.972   .     S
C673   C676    1.418   .     S
C673   O719    1.292   .     A
C673   O721    1.288   .     A
C674   C676    1.395   .     A
C674   H713    1.084   .     S
C675   C693    1.399   .     A
C675   C694    1.395   .     A
C675   C684    1.418   .     S
C676   C692    1.399   .     A
C677   C681    1.514   .     S
C677   N718    1.393   .     A
C678   N717    1.393   .     A
C678   C685    1.514   .     S
C678   C1184   1.421   .     S
C679   N717    1.352   .     A
C679   H714    1.081   .     S
C679   C1181   1.421   .     S
C680   H715    1.081   .     S
C680   N718    1.352   .     A
C681   C682    1.540   .     S
C681   H701    1.089   .     S
C681   H700    1.112   .     S
C682   H699    1.110   .     S
C682   H698    1.109   .     S
C682   C683    1.528   .     S
C683   H716    1.111   .     S
C683   H696    1.110   .     S
C683   H753    1.111   .     S
C684   O722    1.288   .     A
C684   O720    1.292   .     A
C685   C686    1.540   .     S
C685   H709    1.112   .     S
C685   H708    1.089   .     S
C686   H705    1.110   .     S
C686   H707    1.109   .     S
C686   C687    1.528   .     S
C687   H703    1.111   .     S
C687   H702    1.110   .     S
C687   H816    1.111   1_455 S
C688   O723    1.286   .     A
C688   O725    1.283   .     A
C688   C690    1.398   .     S
C689   O724    1.286   .     A
C689   C691    1.398   .     S
C689   O726    1.283   .     A
C690   C803    1.322   1_455 S
C690   H807    1.086   1_455 S
C691   C746    1.322   .     S
C691   H762    1.086   .     S
C692   H710    1.084   .     S
C693   H711    1.084   .     S
C693   C842    1.370   .     S
C694   H712    1.084   .     S
C694   C860    1.370   .     S
H695   C746    1.086   .     S
H697   C795    1.111   1_455 S
H704   C743    1.111   .     S
H706   C803    1.086   1_455 S
N717   Zn727   2.027   .     S
N718   Zn728   2.027   .     S
O719   Zn727   2.002   .     S
O720   Zn728   2.002   .     S
O721   Zn728   1.992   .     S
O722   Zn727   1.992   .     S
O723   Zn727   1.975   .     S
O724   Zn728   1.975   .     S
O725   Zn728   1.972   .     S
O726   Zn727   1.972   .     S
C729   C732    1.418   .     S
C729   O775    1.292   .     A
C729   O777    1.288   .     A
C730   C732    1.395   .     A
C730   H769    1.084   .     S
C731   C749    1.399   .     A
C731   C750    1.395   .     A
C731   C740    1.418   .     S
C732   C748    1.399   .     A
C733   C737    1.514   .     S
C733   N774    1.393   .     A
C734   N773    1.393   .     A
C734   C741    1.514   .     S
C734   C1240   1.421   .     S
C735   N773    1.352   .     A
C735   H770    1.081   .     S
C735   C1237   1.421   .     S
C736   H771    1.081   .     S
C736   N774    1.352   .     A
C737   C738    1.540   .     S
C737   H757    1.089   .     S
C737   H756    1.112   .     S
C738   H755    1.110   .     S
C738   H754    1.109   .     S
C738   C739    1.528   .     S
C739   H772    1.111   .     S
C739   H752    1.110   .     S
C739   H809    1.111   .     S
C740   O778    1.288   .     A
C740   O776    1.292   .     A
C741   C742    1.540   .     S
C741   H765    1.112   .     S
C741   H764    1.089   .     S
C742   H761    1.110   .     S
C742   H763    1.109   .     S
C742   C743    1.528   .     S
C743   H759    1.111   .     S
C743   H758    1.110   .     S
C744   O779    1.286   .     A
C744   O781    1.283   .     A
C744   C746    1.398   .     S
C745   O780    1.286   .     A
C745   C747    1.398   .     S
C745   O782    1.283   .     A
C747   C802    1.322   .     S
C747   H818    1.086   .     S
C748   H766    1.084   .     S
C749   H767    1.084   .     S
C749   C898    1.370   .     S
C750   H768    1.084   .     S
C750   C916    1.370   .     S
H751   C802    1.086   .     S
H760   C799    1.111   .     S
N773   Zn783   2.027   .     S
N774   Zn784   2.027   .     S
O775   Zn783   2.002   .     S
O776   Zn784   2.002   .     S
O777   Zn784   1.992   .     S
O778   Zn783   1.992   .     S
O779   Zn783   1.975   .     S
O780   Zn784   1.975   .     S
O781   Zn784   1.972   .     S
O782   Zn783   1.972   .     S
C785   C788    1.418   .     S
C785   O831    1.292   .     A
C785   O833    1.288   .     A
C786   C788    1.395   .     A
C786   H825    1.084   .     S
C787   C805    1.399   .     A
C787   C806    1.395   .     A
C787   C796    1.418   .     S
C788   C804    1.399   .     A
C789   C793    1.514   .     S
C789   N830    1.393   .     A
C790   N829    1.393   .     A
C790   C797    1.514   .     S
C790   C1296   1.421   .     S
C791   N829    1.352   .     A
C791   H826    1.081   .     S
C791   C1293   1.421   .     S
C792   H827    1.081   .     S
C792   N830    1.352   .     A
C793   C794    1.540   .     S
C793   H813    1.089   .     S
C793   H812    1.112   .     S
C794   H811    1.110   .     S
C794   H810    1.109   .     S
C794   C795    1.528   .     S
C795   H828    1.111   .     S
C795   H808    1.110   .     S
C795   H697    1.111   1_655 S
C796   O834    1.288   .     A
C796   O832    1.292   .     A
C797   C798    1.540   .     S
C797   H821    1.112   .     S
C797   H820    1.089   .     S
C798   H817    1.110   .     S
C798   H819    1.109   .     S
C798   C799    1.528   .     S
C799   H815    1.111   .     S
C799   H814    1.110   .     S
C800   O835    1.286   .     A
C800   O837    1.283   .     A
C800   C802    1.398   .     S
C801   O836    1.286   .     A
C801   C803    1.398   .     S
C801   O838    1.283   .     A
C803   C690    1.322   1_655 S
C803   H706    1.086   1_655 S
C804   H822    1.084   .     S
C805   H823    1.084   .     S
C805   C954    1.370   .     S
C806   H824    1.084   .     S
C806   C972    1.370   .     S
H807   C690    1.086   1_655 S
H816   C687    1.111   1_655 S
N829   Zn839   2.027   .     S
N830   Zn840   2.027   .     S
O831   Zn839   2.002   .     S
O832   Zn840   2.002   .     S
O833   Zn840   1.992   .     S
O834   Zn839   1.992   .     S
O835   Zn839   1.975   .     S
O836   Zn840   1.975   .     S
O837   Zn840   1.972   .     S
O838   Zn839   1.972   .     S
C841   C844    1.418   .     S
C841   O887    1.292   .     A
C841   O889    1.288   .     A
C842   C844    1.395   .     A
C842   H881    1.084   .     S
C843   C861    1.399   .     A
C843   C862    1.395   .     A
C843   C852    1.418   .     S
C844   C860    1.399   .     A
C845   C849    1.514   .     S
C845   N886    1.393   .     A
C846   N885    1.393   .     A
C846   C853    1.514   .     S
C846   C1352   1.421   .     S
C847   N885    1.352   .     A
C847   H882    1.081   .     S
C847   C1349   1.421   .     S
C848   H883    1.081   .     S
C848   N886    1.352   .     A
C849   C850    1.540   .     S
C849   H869    1.089   .     S
C849   H868    1.112   .     S
C850   H867    1.110   .     S
C850   H866    1.109   .     S
C850   C851    1.528   .     S
C851   H884    1.111   .     S
C851   H864    1.110   .     S
C851   H921    1.111   .     S
C852   O890    1.288   .     A
C852   O888    1.292   .     A
C853   C854    1.540   .     S
C853   H877    1.112   .     S
C853   H876    1.089   .     S
C854   H873    1.110   .     S
C854   H875    1.109   .     S
C854   C855    1.528   .     S
C855   H871    1.111   .     S
C855   H870    1.110   .     S
C855   H984    1.111   1_455 S
C856   O891    1.286   .     A
C856   O893    1.283   .     A
C856   C858    1.398   .     S
C857   O892    1.286   .     A
C857   C859    1.398   .     S
C857   O894    1.283   .     A
C858   C971    1.322   1_455 S
C858   H975    1.086   1_455 S
C859   C914    1.322   .     S
C859   H930    1.086   .     S
C860   H878    1.084   .     S
C861   H879    1.084   .     S
C861   C506    1.370   1_565 S
C862   H880    1.084   .     S
C862   C524    1.370   1_565 S
H863   C914    1.086   .     S
H865   C963    1.111   1_455 S
H872   C911    1.111   .     S
H874   C971    1.086   1_455 S
N885   Zn895   2.027   .     S
N886   Zn896   2.027   .     S
O887   Zn895   2.002   .     S
O888   Zn896   2.002   .     S
O889   Zn896   1.992   .     S
O890   Zn895   1.992   .     S
O891   Zn895   1.975   .     S
O892   Zn896   1.975   .     S
O893   Zn896   1.972   .     S
O894   Zn895   1.972   .     S
C897   C900    1.418   .     S
C897   O943    1.292   .     A
C897   O945    1.288   .     A
C898   C900    1.395   .     A
C898   H937    1.084   .     S
C899   C917    1.399   .     A
C899   C918    1.395   .     A
C899   C908    1.418   .     S
C900   C916    1.399   .     A
C901   C905    1.514   .     S
C901   N942    1.393   .     A
C902   N941    1.393   .     A
C902   C909    1.514   .     S
C902   C1408   1.421   .     S
C903   N941    1.352   .     A
C903   H938    1.081   .     S
C903   C1405   1.421   .     S
C904   H939    1.081   .     S
C904   N942    1.352   .     A
C905   C906    1.540   .     S
C905   H925    1.089   .     S
C905   H924    1.112   .     S
C906   H923    1.110   .     S
C906   H922    1.109   .     S
C906   C907    1.528   .     S
C907   H940    1.111   .     S
C907   H920    1.110   .     S
C907   H977    1.111   .     S
C908   O946    1.288   .     A
C908   O944    1.292   .     A
C909   C910    1.540   .     S
C909   H933    1.112   .     S
C909   H932    1.089   .     S
C910   H929    1.110   .     S
C910   H931    1.109   .     S
C910   C911    1.528   .     S
C911   H927    1.111   .     S
C911   H926    1.110   .     S
C912   O947    1.286   .     A
C912   O949    1.283   .     A
C912   C914    1.398   .     S
C913   O948    1.286   .     A
C913   C915    1.398   .     S
C913   O950    1.283   .     A
C915   C970    1.322   .     S
C915   H986    1.086   .     S
C916   H934    1.084   .     S
C917   H935    1.084   .     S
C917   C562    1.370   1_565 S
C918   H936    1.084   .     S
C918   C580    1.370   1_565 S
H919   C970    1.086   .     S
H928   C967    1.111   .     S
N941   Zn951   2.027   .     S
N942   Zn952   2.027   .     S
O943   Zn951   2.002   .     S
O944   Zn952   2.002   .     S
O945   Zn952   1.992   .     S
O946   Zn951   1.992   .     S
O947   Zn951   1.975   .     S
O948   Zn952   1.975   .     S
O949   Zn952   1.972   .     S
O950   Zn951   1.972   .     S
C953   C956    1.418   .     S
C953   O999    1.292   .     A
C953   O1001   1.288   .     A
C954   C956    1.395   .     A
C954   H993    1.084   .     S
C955   C973    1.399   .     A
C955   C974    1.395   .     A
C955   C964    1.418   .     S
C956   C972    1.399   .     A
C957   C961    1.514   .     S
C957   N998    1.393   .     A
C958   N997    1.393   .     A
C958   C965    1.514   .     S
C958   C1464   1.421   .     S
C959   N997    1.352   .     A
C959   H994    1.081   .     S
C959   C1461   1.421   .     S
C960   H995    1.081   .     S
C960   N998    1.352   .     A
C961   C962    1.540   .     S
C961   H981    1.089   .     S
C961   H980    1.112   .     S
C962   H979    1.110   .     S
C962   H978    1.109   .     S
C962   C963    1.528   .     S
C963   H996    1.111   .     S
C963   H976    1.110   .     S
C963   H865    1.111   1_655 S
C964   O1002   1.288   .     A
C964   O1000   1.292   .     A
C965   C966    1.540   .     S
C965   H989    1.112   .     S
C965   H988    1.089   .     S
C966   H985    1.110   .     S
C966   H987    1.109   .     S
C966   C967    1.528   .     S
C967   H983    1.111   .     S
C967   H982    1.110   .     S
C968   O1003   1.286   .     A
C968   O1005   1.283   .     A
C968   C970    1.398   .     S
C969   O1004   1.286   .     A
C969   C971    1.398   .     S
C969   O1006   1.283   .     A
C971   C858    1.322   1_655 S
C971   H874    1.086   1_655 S
C972   H990    1.084   .     S
C973   H991    1.084   .     S
C973   C618    1.370   1_565 S
C974   H992    1.084   .     S
C974   C636    1.370   1_565 S
H975   C858    1.086   1_655 S
H984   C855    1.111   1_655 S
N997   Zn1007  2.027   .     S
N998   Zn1008  2.027   .     S
O999   Zn1007  2.002   .     S
O1000  Zn1008  2.002   .     S
O1001  Zn1008  1.992   .     S
O1002  Zn1007  1.992   .     S
O1003  Zn1007  1.975   .     S
O1004  Zn1008  1.975   .     S
O1005  Zn1008  1.972   .     S
O1006  Zn1007  1.972   .     S
C1009  C1012   1.418   .     S
C1009  O1055   1.292   .     A
C1009  O1057   1.288   .     A
C1010  C1012   1.395   .     A
C1010  H1049   1.084   .     S
C1010  C1365   1.370   1_545 S
C1011  C1029   1.399   .     A
C1011  C1030   1.395   .     A
C1011  C1020   1.418   .     S
C1012  C1028   1.399   .     A
C1013  C1017   1.514   .     S
C1013  N1054   1.393   .     A
C1014  N1053   1.393   .     A
C1014  C1021   1.514   .     S
C1014  C8      1.421   1_556 S
C1015  N1053   1.352   .     A
C1015  H1050   1.081   .     S
C1015  C5      1.421   1_556 S
C1016  H1051   1.081   .     S
C1016  N1054   1.352   .     A
C1017  C1018   1.540   .     S
C1017  H1037   1.089   .     S
C1017  H1036   1.112   .     S
C1018  H1035   1.110   .     S
C1018  H1034   1.109   .     S
C1018  C1019   1.528   .     S
C1019  H1052   1.111   .     S
C1019  H1032   1.110   .     S
C1019  H1089   1.111   .     S
C1020  O1058   1.288   .     A
C1020  O1056   1.292   .     A
C1021  C1022   1.540   .     S
C1021  H1045   1.112   .     S
C1021  H1044   1.089   .     S
C1022  H1041   1.110   .     S
C1022  H1043   1.109   .     S
C1022  C1023   1.528   .     S
C1023  H1039   1.111   .     S
C1023  H1038   1.110   .     S
C1023  H1152   1.111   1_455 S
C1024  O1059   1.286   .     A
C1024  O1061   1.283   .     A
C1024  C1026   1.398   .     S
C1025  O1060   1.286   .     A
C1025  C1027   1.398   .     S
C1025  O1062   1.283   .     A
C1026  C1139   1.322   1_455 S
C1026  H1143   1.086   1_455 S
C1027  C1082   1.322   .     S
C1027  H1098   1.086   .     S
C1028  H1046   1.084   .     S
C1028  C1366   1.370   1_545 S
C1029  H1047   1.084   .     S
C1029  C1178   1.370   .     S
C1030  H1048   1.084   .     S
C1030  C1196   1.370   .     S
H1031  C1082   1.086   .     S
H1033  C1131   1.111   1_455 S
H1040  C1079   1.111   .     S
H1042  C1139   1.086   1_455 S
N1053  Zn1063  2.027   .     S
N1054  Zn1064  2.027   .     S
O1055  Zn1063  2.002   .     S
O1056  Zn1064  2.002   .     S
O1057  Zn1064  1.992   .     S
O1058  Zn1063  1.992   .     S
O1059  Zn1063  1.975   .     S
O1060  Zn1064  1.975   .     S
O1061  Zn1064  1.972   .     S
O1062  Zn1063  1.972   .     S
C1065  C1068   1.418   .     S
C1065  O1111   1.292   .     A
C1065  O1113   1.288   .     A
C1066  C1068   1.395   .     A
C1066  H1105   1.084   .     S
C1066  C1421   1.370   1_545 S
C1067  C1085   1.399   .     A
C1067  C1086   1.395   .     A
C1067  C1076   1.418   .     S
C1068  C1084   1.399   .     A
C1069  C1073   1.514   .     S
C1069  N1110   1.393   .     A
C1070  N1109   1.393   .     A
C1070  C1077   1.514   .     S
C1070  C64     1.421   1_556 S
C1071  N1109   1.352   .     A
C1071  H1106   1.081   .     S
C1071  C61     1.421   1_556 S
C1072  H1107   1.081   .     S
C1072  N1110   1.352   .     A
C1073  C1074   1.540   .     S
C1073  H1093   1.089   .     S
C1073  H1092   1.112   .     S
C1074  H1091   1.110   .     S
C1074  H1090   1.109   .     S
C1074  C1075   1.528   .     S
C1075  H1108   1.111   .     S
C1075  H1088   1.110   .     S
C1075  H1145   1.111   .     S
C1076  O1114   1.288   .     A
C1076  O1112   1.292   .     A
C1077  C1078   1.540   .     S
C1077  H1101   1.112   .     S
C1077  H1100   1.089   .     S
C1078  H1097   1.110   .     S
C1078  H1099   1.109   .     S
C1078  C1079   1.528   .     S
C1079  H1095   1.111   .     S
C1079  H1094   1.110   .     S
C1080  O1115   1.286   .     A
C1080  O1117   1.283   .     A
C1080  C1082   1.398   .     S
C1081  O1116   1.286   .     A
C1081  C1083   1.398   .     S
C1081  O1118   1.283   .     A
C1083  C1138   1.322   .     S
C1083  H1154   1.086   .     S
C1084  H1102   1.084   .     S
C1084  C1422   1.370   1_545 S
C1085  H1103   1.084   .     S
C1085  C1234   1.370   .     S
C1086  H1104   1.084   .     S
C1086  C1252   1.370   .     S
H1087  C1138   1.086   .     S
H1096  C1135   1.111   .     S
N1109  Zn1119  2.027   .     S
N1110  Zn1120  2.027   .     S
O1111  Zn1119  2.002   .     S
O1112  Zn1120  2.002   .     S
O1113  Zn1120  1.992   .     S
O1114  Zn1119  1.992   .     S
O1115  Zn1119  1.975   .     S
O1116  Zn1120  1.975   .     S
O1117  Zn1120  1.972   .     S
O1118  Zn1119  1.972   .     S
C1121  C1124   1.418   .     S
C1121  O1167   1.292   .     A
C1121  O1169   1.288   .     A
C1122  C1124   1.395   .     A
C1122  H1161   1.084   .     S
C1122  C1477   1.370   1_545 S
C1123  C1141   1.399   .     A
C1123  C1142   1.395   .     A
C1123  C1132   1.418   .     S
C1124  C1140   1.399   .     A
C1125  C1129   1.514   .     S
C1125  N1166   1.393   .     A
C1126  N1165   1.393   .     A
C1126  C1133   1.514   .     S
C1126  C120    1.421   1_556 S
C1127  N1165   1.352   .     A
C1127  H1162   1.081   .     S
C1127  C117    1.421   1_556 S
C1128  H1163   1.081   .     S
C1128  N1166   1.352   .     A
C1129  C1130   1.540   .     S
C1129  H1149   1.089   .     S
C1129  H1148   1.112   .     S
C1130  H1147   1.110   .     S
C1130  H1146   1.109   .     S
C1130  C1131   1.528   .     S
C1131  H1164   1.111   .     S
C1131  H1144   1.110   .     S
C1131  H1033   1.111   1_655 S
C1132  O1170   1.288   .     A
C1132  O1168   1.292   .     A
C1133  C1134   1.540   .     S
C1133  H1157   1.112   .     S
C1133  H1156   1.089   .     S
C1134  H1153   1.110   .     S
C1134  H1155   1.109   .     S
C1134  C1135   1.528   .     S
C1135  H1151   1.111   .     S
C1135  H1150   1.110   .     S
C1136  O1171   1.286   .     A
C1136  O1173   1.283   .     A
C1136  C1138   1.398   .     S
C1137  O1172   1.286   .     A
C1137  C1139   1.398   .     S
C1137  O1174   1.283   .     A
C1139  C1026   1.322   1_655 S
C1139  H1042   1.086   1_655 S
C1140  H1158   1.084   .     S
C1140  C1478   1.370   1_545 S
C1141  H1159   1.084   .     S
C1141  C1290   1.370   .     S
C1142  H1160   1.084   .     S
C1142  C1308   1.370   .     S
H1143  C1026   1.086   1_655 S
H1152  C1023   1.111   1_655 S
N1165  Zn1175  2.027   .     S
N1166  Zn1176  2.027   .     S
O1167  Zn1175  2.002   .     S
O1168  Zn1176  2.002   .     S
O1169  Zn1176  1.992   .     S
O1170  Zn1175  1.992   .     S
O1171  Zn1175  1.975   .     S
O1172  Zn1176  1.975   .     S
O1173  Zn1176  1.972   .     S
O1174  Zn1175  1.972   .     S
C1177  C1180   1.418   .     S
C1177  O1223   1.292   .     A
C1177  O1225   1.288   .     A
C1178  C1180   1.395   .     A
C1178  H1217   1.084   .     S
C1179  C1197   1.399   .     A
C1179  C1198   1.395   .     A
C1179  C1188   1.418   .     S
C1180  C1196   1.399   .     A
C1181  C1185   1.514   .     S
C1181  N1222   1.393   .     A
C1182  N1221   1.393   .     A
C1182  C1189   1.514   .     S
C1182  C176    1.421   1_556 S
C1183  N1221   1.352   .     A
C1183  H1218   1.081   .     S
C1183  C173    1.421   1_556 S
C1184  H1219   1.081   .     S
C1184  N1222   1.352   .     A
C1185  C1186   1.540   .     S
C1185  H1205   1.089   .     S
C1185  H1204   1.112   .     S
C1186  H1203   1.110   .     S
C1186  H1202   1.109   .     S
C1186  C1187   1.528   .     S
C1187  H1220   1.111   .     S
C1187  H1200   1.110   .     S
C1187  H1257   1.111   .     S
C1188  O1226   1.288   .     A
C1188  O1224   1.292   .     A
C1189  C1190   1.540   .     S
C1189  H1213   1.112   .     S
C1189  H1212   1.089   .     S
C1190  H1209   1.110   .     S
C1190  H1211   1.109   .     S
C1190  C1191   1.528   .     S
C1191  H1207   1.111   .     S
C1191  H1206   1.110   .     S
C1191  H1320   1.111   1_455 S
C1192  O1227   1.286   .     A
C1192  O1229   1.283   .     A
C1192  C1194   1.398   .     S
C1193  O1228   1.286   .     A
C1193  C1195   1.398   .     S
C1193  O1230   1.283   .     A
C1194  C1307   1.322   1_455 S
C1194  H1311   1.086   1_455 S
C1195  C1250   1.322   .     S
C1195  H1266   1.086   .     S
C1196  H1214   1.084   .     S
C1197  H1215   1.084   .     S
C1197  C1346   1.370   .     S
C1198  H1216   1.084   .     S
C1198  C1364   1.370   .     S
H1199  C1250   1.086   .     S
H1201  C1299   1.111   1_455 S
H1208  C1247   1.111   .     S
H1210  C1307   1.086   1_455 S
N1221  Zn1231  2.027   .     S
N1222  Zn1232  2.027   .     S
O1223  Zn1231  2.002   .     S
O1224  Zn1232  2.002   .     S
O1225  Zn1232  1.992   .     S
O1226  Zn1231  1.992   .     S
O1227  Zn1231  1.975   .     S
O1228  Zn1232  1.975   .     S
O1229  Zn1232  1.972   .     S
O1230  Zn1231  1.972   .     S
C1233  C1236   1.418   .     S
C1233  O1279   1.292   .     A
C1233  O1281   1.288   .     A
C1234  C1236   1.395   .     A
C1234  H1273   1.084   .     S
C1235  C1253   1.399   .     A
C1235  C1254   1.395   .     A
C1235  C1244   1.418   .     S
C1236  C1252   1.399   .     A
C1237  C1241   1.514   .     S
C1237  N1278   1.393   .     A
C1238  N1277   1.393   .     A
C1238  C1245   1.514   .     S
C1238  C232    1.421   1_556 S
C1239  N1277   1.352   .     A
C1239  H1274   1.081   .     S
C1239  C229    1.421   1_556 S
C1240  H1275   1.081   .     S
C1240  N1278   1.352   .     A
C1241  C1242   1.540   .     S
C1241  H1261   1.089   .     S
C1241  H1260   1.112   .     S
C1242  H1259   1.110   .     S
C1242  H1258   1.109   .     S
C1242  C1243   1.528   .     S
C1243  H1276   1.111   .     S
C1243  H1256   1.110   .     S
C1243  H1313   1.111   .     S
C1244  O1282   1.288   .     A
C1244  O1280   1.292   .     A
C1245  C1246   1.540   .     S
C1245  H1269   1.112   .     S
C1245  H1268   1.089   .     S
C1246  H1265   1.110   .     S
C1246  H1267   1.109   .     S
C1246  C1247   1.528   .     S
C1247  H1263   1.111   .     S
C1247  H1262   1.110   .     S
C1248  O1283   1.286   .     A
C1248  O1285   1.283   .     A
C1248  C1250   1.398   .     S
C1249  O1284   1.286   .     A
C1249  C1251   1.398   .     S
C1249  O1286   1.283   .     A
C1251  C1306   1.322   .     S
C1251  H1322   1.086   .     S
C1252  H1270   1.084   .     S
C1253  H1271   1.084   .     S
C1253  C1402   1.370   .     S
C1254  H1272   1.084   .     S
C1254  C1420   1.370   .     S
H1255  C1306   1.086   .     S
H1264  C1303   1.111   .     S
N1277  Zn1287  2.027   .     S
N1278  Zn1288  2.027   .     S
O1279  Zn1287  2.002   .     S
O1280  Zn1288  2.002   .     S
O1281  Zn1288  1.992   .     S
O1282  Zn1287  1.992   .     S
O1283  Zn1287  1.975   .     S
O1284  Zn1288  1.975   .     S
O1285  Zn1288  1.972   .     S
O1286  Zn1287  1.972   .     S
C1289  C1292   1.418   .     S
C1289  O1335   1.292   .     A
C1289  O1337   1.288   .     A
C1290  C1292   1.395   .     A
C1290  H1329   1.084   .     S
C1291  C1309   1.399   .     A
C1291  C1310   1.395   .     A
C1291  C1300   1.418   .     S
C1292  C1308   1.399   .     A
C1293  C1297   1.514   .     S
C1293  N1334   1.393   .     A
C1294  N1333   1.393   .     A
C1294  C1301   1.514   .     S
C1294  C288    1.421   1_556 S
C1295  N1333   1.352   .     A
C1295  H1330   1.081   .     S
C1295  C285    1.421   1_556 S
C1296  H1331   1.081   .     S
C1296  N1334   1.352   .     A
C1297  C1298   1.540   .     S
C1297  H1317   1.089   .     S
C1297  H1316   1.112   .     S
C1298  H1315   1.110   .     S
C1298  H1314   1.109   .     S
C1298  C1299   1.528   .     S
C1299  H1332   1.111   .     S
C1299  H1312   1.110   .     S
C1299  H1201   1.111   1_655 S
C1300  O1338   1.288   .     A
C1300  O1336   1.292   .     A
C1301  C1302   1.540   .     S
C1301  H1325   1.112   .     S
C1301  H1324   1.089   .     S
C1302  H1321   1.110   .     S
C1302  H1323   1.109   .     S
C1302  C1303   1.528   .     S
C1303  H1319   1.111   .     S
C1303  H1318   1.110   .     S
C1304  O1339   1.286   .     A
C1304  O1341   1.283   .     A
C1304  C1306   1.398   .     S
C1305  O1340   1.286   .     A
C1305  C1307   1.398   .     S
C1305  O1342   1.283   .     A
C1307  C1194   1.322   1_655 S
C1307  H1210   1.086   1_655 S
C1308  H1326   1.084   .     S
C1309  H1327   1.084   .     S
C1309  C1458   1.370   .     S
C1310  H1328   1.084   .     S
C1310  C1476   1.370   .     S
H1311  C1194   1.086   1_655 S
H1320  C1191   1.111   1_655 S
N1333  Zn1343  2.027   .     S
N1334  Zn1344  2.027   .     S
O1335  Zn1343  2.002   .     S
O1336  Zn1344  2.002   .     S
O1337  Zn1344  1.992   .     S
O1338  Zn1343  1.992   .     S
O1339  Zn1343  1.975   .     S
O1340  Zn1344  1.975   .     S
O1341  Zn1344  1.972   .     S
O1342  Zn1343  1.972   .     S
C1345  C1348   1.418   .     S
C1345  O1391   1.292   .     A
C1345  O1393   1.288   .     A
C1346  C1348   1.395   .     A
C1346  H1385   1.084   .     S
C1347  C1365   1.399   .     A
C1347  C1366   1.395   .     A
C1347  C1356   1.418   .     S
C1348  C1364   1.399   .     A
C1349  C1353   1.514   .     S
C1349  N1390   1.393   .     A
C1350  N1389   1.393   .     A
C1350  C1357   1.514   .     S
C1350  C344    1.421   1_556 S
C1351  N1389   1.352   .     A
C1351  H1386   1.081   .     S
C1351  C341    1.421   1_556 S
C1352  H1387   1.081   .     S
C1352  N1390   1.352   .     A
C1353  C1354   1.540   .     S
C1353  H1373   1.089   .     S
C1353  H1372   1.112   .     S
C1354  H1371   1.110   .     S
C1354  H1370   1.109   .     S
C1354  C1355   1.528   .     S
C1355  H1388   1.111   .     S
C1355  H1368   1.110   .     S
C1355  H1425   1.111   .     S
C1356  O1394   1.288   .     A
C1356  O1392   1.292   .     A
C1357  C1358   1.540   .     S
C1357  H1381   1.112   .     S
C1357  H1380   1.089   .     S
C1358  H1377   1.110   .     S
C1358  H1379   1.109   .     S
C1358  C1359   1.528   .     S
C1359  H1375   1.111   .     S
C1359  H1374   1.110   .     S
C1359  H1488   1.111   1_455 S
C1360  O1395   1.286   .     A
C1360  O1397   1.283   .     A
C1360  C1362   1.398   .     S
C1361  O1396   1.286   .     A
C1361  C1363   1.398   .     S
C1361  O1398   1.283   .     A
C1362  C1475   1.322   1_455 S
C1362  H1479   1.086   1_455 S
C1363  C1418   1.322   .     S
C1363  H1434   1.086   .     S
C1364  H1382   1.084   .     S
C1365  H1383   1.084   .     S
C1365  C1010   1.370   1_565 S
C1366  H1384   1.084   .     S
C1366  C1028   1.370   1_565 S
H1367  C1418   1.086   .     S
H1369  C1467   1.111   1_455 S
H1376  C1415   1.111   .     S
H1378  C1475   1.086   1_455 S
N1389  Zn1399  2.027   .     S
N1390  Zn1400  2.027   .     S
O1391  Zn1399  2.002   .     S
O1392  Zn1400  2.002   .     S
O1393  Zn1400  1.992   .     S
O1394  Zn1399  1.992   .     S
O1395  Zn1399  1.975   .     S
O1396  Zn1400  1.975   .     S
O1397  Zn1400  1.972   .     S
O1398  Zn1399  1.972   .     S
C1401  C1404   1.418   .     S
C1401  O1447   1.292   .     A
C1401  O1449   1.288   .     A
C1402  C1404   1.395   .     A
C1402  H1441   1.084   .     S
C1403  C1421   1.399   .     A
C1403  C1422   1.395   .     A
C1403  C1412   1.418   .     S
C1404  C1420   1.399   .     A
C1405  C1409   1.514   .     S
C1405  N1446   1.393   .     A
C1406  N1445   1.393   .     A
C1406  C1413   1.514   .     S
C1406  C400    1.421   1_556 S
C1407  N1445   1.352   .     A
C1407  H1442   1.081   .     S
C1407  C397    1.421   1_556 S
C1408  H1443   1.081   .     S
C1408  N1446   1.352   .     A
C1409  C1410   1.540   .     S
C1409  H1429   1.089   .     S
C1409  H1428   1.112   .     S
C1410  H1427   1.110   .     S
C1410  H1426   1.109   .     S
C1410  C1411   1.528   .     S
C1411  H1444   1.111   .     S
C1411  H1424   1.110   .     S
C1411  H1481   1.111   .     S
C1412  O1450   1.288   .     A
C1412  O1448   1.292   .     A
C1413  C1414   1.540   .     S
C1413  H1437   1.112   .     S
C1413  H1436   1.089   .     S
C1414  H1433   1.110   .     S
C1414  H1435   1.109   .     S
C1414  C1415   1.528   .     S
C1415  H1431   1.111   .     S
C1415  H1430   1.110   .     S
C1416  O1451   1.286   .     A
C1416  O1453   1.283   .     A
C1416  C1418   1.398   .     S
C1417  O1452   1.286   .     A
C1417  C1419   1.398   .     S
C1417  O1454   1.283   .     A
C1419  C1474   1.322   .     S
C1419  H1490   1.086   .     S
C1420  H1438   1.084   .     S
C1421  H1439   1.084   .     S
C1421  C1066   1.370   1_565 S
C1422  H1440   1.084   .     S
C1422  C1084   1.370   1_565 S
H1423  C1474   1.086   .     S
H1432  C1471   1.111   .     S
N1445  Zn1455  2.027   .     S
N1446  Zn1456  2.027   .     S
O1447  Zn1455  2.002   .     S
O1448  Zn1456  2.002   .     S
O1449  Zn1456  1.992   .     S
O1450  Zn1455  1.992   .     S
O1451  Zn1455  1.975   .     S
O1452  Zn1456  1.975   .     S
O1453  Zn1456  1.972   .     S
O1454  Zn1455  1.972   .     S
C1457  C1460   1.418   .     S
C1457  O1503   1.292   .     A
C1457  O1505   1.288   .     A
C1458  C1460   1.395   .     A
C1458  H1497   1.084   .     S
C1459  C1477   1.399   .     A
C1459  C1478   1.395   .     A
C1459  C1468   1.418   .     S
C1460  C1476   1.399   .     A
C1461  C1465   1.514   .     S
C1461  N1502   1.393   .     A
C1462  N1501   1.393   .     A
C1462  C1469   1.514   .     S
C1462  C456    1.421   1_556 S
C1463  N1501   1.352   .     A
C1463  H1498   1.081   .     S
C1463  C453    1.421   1_556 S
C1464  H1499   1.081   .     S
C1464  N1502   1.352   .     A
C1465  C1466   1.540   .     S
C1465  H1485   1.089   .     S
C1465  H1484   1.112   .     S
C1466  H1483   1.110   .     S
C1466  H1482   1.109   .     S
C1466  C1467   1.528   .     S
C1467  H1500   1.111   .     S
C1467  H1480   1.110   .     S
C1467  H1369   1.111   1_655 S
C1468  O1506   1.288   .     A
C1468  O1504   1.292   .     A
C1469  C1470   1.540   .     S
C1469  H1493   1.112   .     S
C1469  H1492   1.089   .     S
C1470  H1489   1.110   .     S
C1470  H1491   1.109   .     S
C1470  C1471   1.528   .     S
C1471  H1487   1.111   .     S
C1471  H1486   1.110   .     S
C1472  O1507   1.286   .     A
C1472  O1509   1.283   .     A
C1472  C1474   1.398   .     S
C1473  O1508   1.286   .     A
C1473  C1475   1.398   .     S
C1473  O1510   1.283   .     A
C1475  C1362   1.322   1_655 S
C1475  H1378   1.086   1_655 S
C1476  H1494   1.084   .     S
C1477  H1495   1.084   .     S
C1477  C1122   1.370   1_565 S
C1478  H1496   1.084   .     S
C1478  C1140   1.370   1_565 S
H1479  C1362   1.086   1_655 S
H1488  C1359   1.111   1_655 S
N1501  Zn1511  2.027   .     S
N1502  Zn1512  2.027   .     S
O1503  Zn1511  2.002   .     S
O1504  Zn1512  2.002   .     S
O1505  Zn1512  1.992   .     S
O1506  Zn1511  1.992   .     S
O1507  Zn1511  1.975   .     S
O1508  Zn1512  1.975   .     S
O1509  Zn1512  1.972   .     S
O1510  Zn1511  1.972   .     S
