data_str_m3_o2_o10_pcu_sym.143
_audit_creation_date              2020-01-03
_audit_creation_method            'Materials Studio'
_symmetry_space_group_name_H-M    'P1'
_symmetry_Int_Tables_number       1
_symmetry_cell_setting            triclinic
loop_
_symmetry_equiv_pos_as_xyz
  x,y,z
_cell_length_a                    25.7694
_cell_length_b                    29.9528
_cell_length_c                    28.2727
_cell_angle_alpha                 90.5410
_cell_angle_beta                  98.6760
_cell_angle_gamma                 89.9272
loop_
_atom_site_label
_atom_site_type_symbol
_atom_site_fract_x
_atom_site_fract_y
_atom_site_fract_z
_atom_site_U_iso_or_equiv
_atom_site_adp_type
_atom_site_occupancy
C1     C     0.16603   0.16374   0.24960   0.00000  Uiso   1.00
C2     C     0.16599   0.33623   0.25020   0.00000  Uiso   1.00
C3     C     0.12768   0.27181   0.04699   0.00000  Uiso   1.00
C4     C     0.20575   0.27171   0.45347   0.00000  Uiso   1.00
C5     C     0.12824   0.27179   0.09683   0.00000  Uiso   1.00
C6     C     0.20518   0.27171   0.40362   0.00000  Uiso   1.00
C7     C     0.20531   0.22789   0.10754   0.00000  Uiso   1.00
C8     C     0.12785   0.22811   0.39200   0.00000  Uiso   1.00
C9     C     0.20654   0.22719   0.05787   0.00000  Uiso   1.00
C10    C     0.12662   0.22741   0.44165   0.00000  Uiso   1.00
C11    C     0.16702   0.24934   0.02665   0.00000  Uiso   1.00
C12    C     0.16629   0.24936   0.47334   0.00000  Uiso   1.00
C13    C     0.06697   0.24998   0.23751   0.00000  Uiso   1.00
C14    C     0.26637   0.25000   0.26249   0.00000  Uiso   1.00
C15    C     0.01196   0.24993   0.23074   0.00000  Uiso   1.00
C16    C     0.32138   0.25001   0.26926   0.00000  Uiso   1.00
C17    C     0.19873   0.04868   0.29133   0.00000  Uiso   1.00
C18    C     0.20067   0.45120   0.21914   0.00000  Uiso   1.00
C19    C     0.19404   0.09458   0.29050   0.00000  Uiso   1.00
C20    C     0.19592   0.40530   0.21844   0.00000  Uiso   1.00
C21    C     0.16870   0.11565   0.24928   0.00000  Uiso   1.00
C22    C     0.16860   0.38425   0.25128   0.00000  Uiso   1.00
C23    C     0.14799   0.09038   0.20840   0.00000  Uiso   1.00
C24    C     0.14589   0.40946   0.28523   0.00000  Uiso   1.00
C25    C     0.15360   0.04446   0.20946   0.00000  Uiso   1.00
C26    C     0.15150   0.45538   0.28600   0.00000  Uiso   1.00
C27    C     0.17854   0.02387   0.25081   0.00000  Uiso   1.00
C28    C     0.17848   0.47600   0.25293   0.00000  Uiso   1.00
H29    H     0.32464   0.24984   0.19421   0.00000  Uiso   1.00
H30    H     0.00870   0.25009   0.30579   0.00000  Uiso   1.00
H31    H     0.21763   0.03245   0.32348   0.00000  Uiso   1.00
H32    H     0.22115   0.46745   0.19327   0.00000  Uiso   1.00
H33    H     0.21044   0.11360   0.32201   0.00000  Uiso   1.00
H34    H     0.21385   0.38623   0.19242   0.00000  Uiso   1.00
H35    H     0.13674   0.02459   0.17872   0.00000  Uiso   1.00
H36    H     0.13311   0.47523   0.31112   0.00000  Uiso   1.00
H37    H     0.09673   0.28938   0.02439   0.00000  Uiso   1.00
H38    H     0.23679   0.28917   0.47643   0.00000  Uiso   1.00
H39    H     0.09781   0.28927   0.11203   0.00000  Uiso   1.00
H40    H     0.23569   0.28910   0.38879   0.00000  Uiso   1.00
H41    H     0.23533   0.21050   0.13132   0.00000  Uiso   1.00
H42    H     0.09771   0.21087   0.36787   0.00000  Uiso   1.00
N43    N     0.16667   0.24999   0.12624   0.00000  Uiso   1.00
N44    N     0.16667   0.25001   0.37376   0.00000  Uiso   1.00
O45    O     0.16667   0.18453   0.28974   0.00000  Uiso   1.00
O46    O     0.16666   0.31546   0.21026   0.00000  Uiso   1.00
O47    O     0.16667   0.18453   0.21026   0.00000  Uiso   1.00
O48    O     0.16666   0.31547   0.28974   0.00000  Uiso   1.00
O49    O     0.09058   0.25000   0.28044   0.00000  Uiso   1.00
O50    O     0.24275   0.25000   0.21956   0.00000  Uiso   1.00
O51    O     0.09058   0.25000   0.20096   0.00000  Uiso   1.00
O52    O     0.24275   0.25000   0.29904   0.00000  Uiso   1.00
Zn53   Zn    0.16667   0.25000   0.30307   0.00000  Uiso   1.00
Zn54   Zn    0.16667   0.24999   0.19693   0.00000  Uiso   1.00
Br55   Br    0.10834   0.11538   0.15165   0.00000  Uiso   1.00
Br56   Br    0.10349   0.38418   0.32872   0.00000  Uiso   1.00
Br57   Br    0.26158   0.19445   0.03448   0.00000  Uiso   1.00
Br58   Br    0.07138   0.19491   0.46438   0.00000  Uiso   1.00
C59    C     0.49937   0.16374   0.24960   0.00000  Uiso   1.00
C60    C     0.49932   0.33623   0.25020   0.00000  Uiso   1.00
C61    C     0.46101   0.27181   0.04699   0.00000  Uiso   1.00
C62    C     0.53908   0.27171   0.45347   0.00000  Uiso   1.00
C63    C     0.46157   0.27179   0.09683   0.00000  Uiso   1.00
C64    C     0.53851   0.27171   0.40362   0.00000  Uiso   1.00
C65    C     0.53865   0.22789   0.10754   0.00000  Uiso   1.00
C66    C     0.46119   0.22811   0.39200   0.00000  Uiso   1.00
C67    C     0.53988   0.22719   0.05787   0.00000  Uiso   1.00
C68    C     0.45995   0.22741   0.44165   0.00000  Uiso   1.00
C69    C     0.50036   0.24934   0.02665   0.00000  Uiso   1.00
C70    C     0.49962   0.24936   0.47334   0.00000  Uiso   1.00
C71    C     0.40030   0.24998   0.23751   0.00000  Uiso   1.00
C72    C     0.59970   0.25000   0.26249   0.00000  Uiso   1.00
C73    C     0.34529   0.24993   0.23074   0.00000  Uiso   1.00
C74    C     0.65471   0.25001   0.26926   0.00000  Uiso   1.00
C75    C     0.53207   0.04868   0.29133   0.00000  Uiso   1.00
C76    C     0.53400   0.45120   0.21914   0.00000  Uiso   1.00
C77    C     0.52737   0.09458   0.29050   0.00000  Uiso   1.00
C78    C     0.52926   0.40530   0.21844   0.00000  Uiso   1.00
C79    C     0.50203   0.11565   0.24928   0.00000  Uiso   1.00
C80    C     0.50194   0.38425   0.25128   0.00000  Uiso   1.00
C81    C     0.48132   0.09038   0.20840   0.00000  Uiso   1.00
C82    C     0.47922   0.40946   0.28523   0.00000  Uiso   1.00
C83    C     0.48694   0.04446   0.20946   0.00000  Uiso   1.00
C84    C     0.48483   0.45538   0.28600   0.00000  Uiso   1.00
C85    C     0.51187   0.02387   0.25081   0.00000  Uiso   1.00
C86    C     0.51181   0.47600   0.25293   0.00000  Uiso   1.00
H87    H     0.65797   0.24984   0.19421   0.00000  Uiso   1.00
H88    H     0.34203   0.25009   0.30579   0.00000  Uiso   1.00
H89    H     0.55097   0.03245   0.32348   0.00000  Uiso   1.00
H90    H     0.55448   0.46745   0.19327   0.00000  Uiso   1.00
H91    H     0.54377   0.11360   0.32201   0.00000  Uiso   1.00
H92    H     0.54718   0.38623   0.19242   0.00000  Uiso   1.00
H93    H     0.47008   0.02459   0.17872   0.00000  Uiso   1.00
H94    H     0.46644   0.47523   0.31112   0.00000  Uiso   1.00
H95    H     0.43006   0.28938   0.02439   0.00000  Uiso   1.00
H96    H     0.57012   0.28917   0.47643   0.00000  Uiso   1.00
H97    H     0.43114   0.28927   0.11203   0.00000  Uiso   1.00
H98    H     0.56902   0.28910   0.38879   0.00000  Uiso   1.00
H99    H     0.56866   0.21050   0.13132   0.00000  Uiso   1.00
H100   H     0.43104   0.21087   0.36787   0.00000  Uiso   1.00
N101   N     0.50000   0.24999   0.12624   0.00000  Uiso   1.00
N102   N     0.50000   0.25001   0.37376   0.00000  Uiso   1.00
O103   O     0.50000   0.18453   0.28974   0.00000  Uiso   1.00
O104   O     0.50000   0.31546   0.21026   0.00000  Uiso   1.00
O105   O     0.50000   0.18453   0.21026   0.00000  Uiso   1.00
O106   O     0.50000   0.31547   0.28974   0.00000  Uiso   1.00
O107   O     0.42392   0.25000   0.28044   0.00000  Uiso   1.00
O108   O     0.57608   0.25000   0.21956   0.00000  Uiso   1.00
O109   O     0.42392   0.25000   0.20096   0.00000  Uiso   1.00
O110   O     0.57608   0.25000   0.29904   0.00000  Uiso   1.00
Zn111  Zn    0.50000   0.25000   0.30307   0.00000  Uiso   1.00
Zn112  Zn    0.50000   0.24999   0.19693   0.00000  Uiso   1.00
Br113  Br    0.44167   0.11538   0.15165   0.00000  Uiso   1.00
Br114  Br    0.43682   0.38418   0.32872   0.00000  Uiso   1.00
Br115  Br    0.59491   0.19445   0.03448   0.00000  Uiso   1.00
Br116  Br    0.40472   0.19491   0.46438   0.00000  Uiso   1.00
C117   C     0.83270   0.16374   0.24960   0.00000  Uiso   1.00
C118   C     0.83265   0.33623   0.25020   0.00000  Uiso   1.00
C119   C     0.79434   0.27181   0.04699   0.00000  Uiso   1.00
C120   C     0.87242   0.27171   0.45347   0.00000  Uiso   1.00
C121   C     0.79491   0.27179   0.09683   0.00000  Uiso   1.00
C122   C     0.87185   0.27171   0.40362   0.00000  Uiso   1.00
C123   C     0.87198   0.22789   0.10754   0.00000  Uiso   1.00
C124   C     0.79452   0.22811   0.39200   0.00000  Uiso   1.00
C125   C     0.87321   0.22719   0.05787   0.00000  Uiso   1.00
C126   C     0.79329   0.22741   0.44165   0.00000  Uiso   1.00
C127   C     0.83369   0.24934   0.02665   0.00000  Uiso   1.00
C128   C     0.83296   0.24936   0.47334   0.00000  Uiso   1.00
C129   C     0.73363   0.24998   0.23751   0.00000  Uiso   1.00
C130   C     0.93303   0.25000   0.26249   0.00000  Uiso   1.00
C131   C     0.67863   0.24993   0.23074   0.00000  Uiso   1.00
C132   C     0.98804   0.25001   0.26926   0.00000  Uiso   1.00
C133   C     0.86540   0.04868   0.29133   0.00000  Uiso   1.00
C134   C     0.86734   0.45120   0.21914   0.00000  Uiso   1.00
C135   C     0.86070   0.09458   0.29050   0.00000  Uiso   1.00
C136   C     0.86259   0.40530   0.21844   0.00000  Uiso   1.00
C137   C     0.83537   0.11565   0.24928   0.00000  Uiso   1.00
C138   C     0.83527   0.38425   0.25128   0.00000  Uiso   1.00
C139   C     0.81466   0.09038   0.20840   0.00000  Uiso   1.00
C140   C     0.81255   0.40946   0.28523   0.00000  Uiso   1.00
C141   C     0.82027   0.04446   0.20946   0.00000  Uiso   1.00
C142   C     0.81817   0.45538   0.28600   0.00000  Uiso   1.00
C143   C     0.84521   0.02387   0.25081   0.00000  Uiso   1.00
C144   C     0.84514   0.47600   0.25293   0.00000  Uiso   1.00
H145   H     0.99130   0.24984   0.19421   0.00000  Uiso   1.00
H146   H     0.67537   0.25009   0.30579   0.00000  Uiso   1.00
H147   H     0.88430   0.03245   0.32348   0.00000  Uiso   1.00
H148   H     0.88782   0.46745   0.19327   0.00000  Uiso   1.00
H149   H     0.87711   0.11360   0.32201   0.00000  Uiso   1.00
H150   H     0.88052   0.38623   0.19242   0.00000  Uiso   1.00
H151   H     0.80341   0.02459   0.17872   0.00000  Uiso   1.00
H152   H     0.79978   0.47523   0.31112   0.00000  Uiso   1.00
H153   H     0.76340   0.28938   0.02439   0.00000  Uiso   1.00
H154   H     0.90345   0.28917   0.47643   0.00000  Uiso   1.00
H155   H     0.76448   0.28927   0.11203   0.00000  Uiso   1.00
H156   H     0.90235   0.28910   0.38879   0.00000  Uiso   1.00
H157   H     0.90199   0.21050   0.13132   0.00000  Uiso   1.00
H158   H     0.76438   0.21087   0.36787   0.00000  Uiso   1.00
N159   N     0.83333   0.24999   0.12624   0.00000  Uiso   1.00
N160   N     0.83333   0.25001   0.37376   0.00000  Uiso   1.00
O161   O     0.83334   0.18453   0.28974   0.00000  Uiso   1.00
O162   O     0.83333   0.31546   0.21026   0.00000  Uiso   1.00
O163   O     0.83334   0.18453   0.21026   0.00000  Uiso   1.00
O164   O     0.83333   0.31547   0.28974   0.00000  Uiso   1.00
O165   O     0.75725   0.25000   0.28044   0.00000  Uiso   1.00
O166   O     0.90942   0.25000   0.21956   0.00000  Uiso   1.00
O167   O     0.75725   0.25000   0.20096   0.00000  Uiso   1.00
O168   O     0.90942   0.25000   0.29904   0.00000  Uiso   1.00
Zn169  Zn    0.83333   0.25000   0.30307   0.00000  Uiso   1.00
Zn170  Zn    0.83333   0.24999   0.19693   0.00000  Uiso   1.00
Br171  Br    0.77500   0.11538   0.15165   0.00000  Uiso   1.00
Br172  Br    0.77015   0.38418   0.32872   0.00000  Uiso   1.00
Br173  Br    0.92824   0.19445   0.03448   0.00000  Uiso   1.00
Br174  Br    0.73805   0.19491   0.46438   0.00000  Uiso   1.00
C175   C     0.16603   0.66374   0.24960   0.00000  Uiso   1.00
C176   C     0.16599   0.83623   0.25020   0.00000  Uiso   1.00
C177   C     0.12768   0.77181   0.04699   0.00000  Uiso   1.00
C178   C     0.20575   0.77171   0.45347   0.00000  Uiso   1.00
C179   C     0.12824   0.77179   0.09683   0.00000  Uiso   1.00
C180   C     0.20518   0.77171   0.40362   0.00000  Uiso   1.00
C181   C     0.20531   0.72789   0.10754   0.00000  Uiso   1.00
C182   C     0.12785   0.72811   0.39200   0.00000  Uiso   1.00
C183   C     0.20654   0.72719   0.05787   0.00000  Uiso   1.00
C184   C     0.12662   0.72741   0.44165   0.00000  Uiso   1.00
C185   C     0.16702   0.74934   0.02665   0.00000  Uiso   1.00
C186   C     0.16629   0.74936   0.47334   0.00000  Uiso   1.00
C187   C     0.06697   0.74998   0.23751   0.00000  Uiso   1.00
C188   C     0.26637   0.75000   0.26249   0.00000  Uiso   1.00
C189   C     0.01196   0.74993   0.23074   0.00000  Uiso   1.00
C190   C     0.32138   0.75001   0.26926   0.00000  Uiso   1.00
C191   C     0.19873   0.54868   0.29133   0.00000  Uiso   1.00
C192   C     0.20067   0.95120   0.21914   0.00000  Uiso   1.00
C193   C     0.19404   0.59458   0.29050   0.00000  Uiso   1.00
C194   C     0.19592   0.90530   0.21844   0.00000  Uiso   1.00
C195   C     0.16870   0.61565   0.24928   0.00000  Uiso   1.00
C196   C     0.16860   0.88425   0.25128   0.00000  Uiso   1.00
C197   C     0.14799   0.59038   0.20840   0.00000  Uiso   1.00
C198   C     0.14589   0.90946   0.28523   0.00000  Uiso   1.00
C199   C     0.15360   0.54446   0.20946   0.00000  Uiso   1.00
C200   C     0.15150   0.95538   0.28600   0.00000  Uiso   1.00
C201   C     0.17854   0.52387   0.25081   0.00000  Uiso   1.00
C202   C     0.17848   0.97600   0.25293   0.00000  Uiso   1.00
H203   H     0.32464   0.74984   0.19421   0.00000  Uiso   1.00
H204   H     0.00870   0.75009   0.30579   0.00000  Uiso   1.00
H205   H     0.21763   0.53245   0.32348   0.00000  Uiso   1.00
H206   H     0.22115   0.96745   0.19327   0.00000  Uiso   1.00
H207   H     0.21044   0.61360   0.32201   0.00000  Uiso   1.00
H208   H     0.21385   0.88623   0.19242   0.00000  Uiso   1.00
H209   H     0.13674   0.52459   0.17872   0.00000  Uiso   1.00
H210   H     0.13311   0.97523   0.31112   0.00000  Uiso   1.00
H211   H     0.09673   0.78938   0.02439   0.00000  Uiso   1.00
H212   H     0.23679   0.78917   0.47643   0.00000  Uiso   1.00
H213   H     0.09781   0.78927   0.11203   0.00000  Uiso   1.00
H214   H     0.23569   0.78910   0.38879   0.00000  Uiso   1.00
H215   H     0.23533   0.71050   0.13132   0.00000  Uiso   1.00
H216   H     0.09771   0.71087   0.36787   0.00000  Uiso   1.00
N217   N     0.16667   0.74999   0.12624   0.00000  Uiso   1.00
N218   N     0.16667   0.75001   0.37376   0.00000  Uiso   1.00
O219   O     0.16667   0.68453   0.28974   0.00000  Uiso   1.00
O220   O     0.16666   0.81546   0.21026   0.00000  Uiso   1.00
O221   O     0.16667   0.68453   0.21026   0.00000  Uiso   1.00
O222   O     0.16666   0.81547   0.28974   0.00000  Uiso   1.00
O223   O     0.09058   0.75000   0.28044   0.00000  Uiso   1.00
O224   O     0.24275   0.75000   0.21956   0.00000  Uiso   1.00
O225   O     0.09058   0.75000   0.20096   0.00000  Uiso   1.00
O226   O     0.24275   0.75000   0.29904   0.00000  Uiso   1.00
Zn227  Zn    0.16667   0.75000   0.30307   0.00000  Uiso   1.00
Zn228  Zn    0.16667   0.74999   0.19693   0.00000  Uiso   1.00
Br229  Br    0.10834   0.61538   0.15165   0.00000  Uiso   1.00
Br230  Br    0.10349   0.88418   0.32872   0.00000  Uiso   1.00
Br231  Br    0.26158   0.69445   0.03448   0.00000  Uiso   1.00
Br232  Br    0.07138   0.69491   0.46438   0.00000  Uiso   1.00
C233   C     0.49937   0.66374   0.24960   0.00000  Uiso   1.00
C234   C     0.49932   0.83623   0.25020   0.00000  Uiso   1.00
C235   C     0.46101   0.77181   0.04699   0.00000  Uiso   1.00
C236   C     0.53908   0.77171   0.45347   0.00000  Uiso   1.00
C237   C     0.46157   0.77179   0.09683   0.00000  Uiso   1.00
C238   C     0.53851   0.77171   0.40362   0.00000  Uiso   1.00
C239   C     0.53865   0.72789   0.10754   0.00000  Uiso   1.00
C240   C     0.46119   0.72811   0.39200   0.00000  Uiso   1.00
C241   C     0.53988   0.72719   0.05787   0.00000  Uiso   1.00
C242   C     0.45995   0.72741   0.44165   0.00000  Uiso   1.00
C243   C     0.50036   0.74934   0.02665   0.00000  Uiso   1.00
C244   C     0.49962   0.74936   0.47334   0.00000  Uiso   1.00
C245   C     0.40030   0.74998   0.23751   0.00000  Uiso   1.00
C246   C     0.59970   0.75000   0.26249   0.00000  Uiso   1.00
C247   C     0.34529   0.74993   0.23074   0.00000  Uiso   1.00
C248   C     0.65471   0.75001   0.26926   0.00000  Uiso   1.00
C249   C     0.53207   0.54868   0.29133   0.00000  Uiso   1.00
C250   C     0.53400   0.95120   0.21914   0.00000  Uiso   1.00
C251   C     0.52737   0.59458   0.29050   0.00000  Uiso   1.00
C252   C     0.52926   0.90530   0.21844   0.00000  Uiso   1.00
C253   C     0.50203   0.61565   0.24928   0.00000  Uiso   1.00
C254   C     0.50194   0.88425   0.25128   0.00000  Uiso   1.00
C255   C     0.48132   0.59038   0.20840   0.00000  Uiso   1.00
C256   C     0.47922   0.90946   0.28523   0.00000  Uiso   1.00
C257   C     0.48694   0.54446   0.20946   0.00000  Uiso   1.00
C258   C     0.48483   0.95538   0.28600   0.00000  Uiso   1.00
C259   C     0.51187   0.52387   0.25081   0.00000  Uiso   1.00
C260   C     0.51181   0.97600   0.25293   0.00000  Uiso   1.00
H261   H     0.65797   0.74984   0.19421   0.00000  Uiso   1.00
H262   H     0.34203   0.75009   0.30579   0.00000  Uiso   1.00
H263   H     0.55097   0.53245   0.32348   0.00000  Uiso   1.00
H264   H     0.55448   0.96745   0.19327   0.00000  Uiso   1.00
H265   H     0.54377   0.61360   0.32201   0.00000  Uiso   1.00
H266   H     0.54718   0.88623   0.19242   0.00000  Uiso   1.00
H267   H     0.47008   0.52459   0.17872   0.00000  Uiso   1.00
H268   H     0.46644   0.97523   0.31112   0.00000  Uiso   1.00
H269   H     0.43006   0.78938   0.02439   0.00000  Uiso   1.00
H270   H     0.57012   0.78917   0.47643   0.00000  Uiso   1.00
H271   H     0.43114   0.78927   0.11203   0.00000  Uiso   1.00
H272   H     0.56902   0.78910   0.38879   0.00000  Uiso   1.00
H273   H     0.56866   0.71050   0.13132   0.00000  Uiso   1.00
H274   H     0.43104   0.71087   0.36787   0.00000  Uiso   1.00
N275   N     0.50000   0.74999   0.12624   0.00000  Uiso   1.00
N276   N     0.50000   0.75001   0.37376   0.00000  Uiso   1.00
O277   O     0.50000   0.68453   0.28974   0.00000  Uiso   1.00
O278   O     0.50000   0.81546   0.21026   0.00000  Uiso   1.00
O279   O     0.50000   0.68453   0.21026   0.00000  Uiso   1.00
O280   O     0.50000   0.81547   0.28974   0.00000  Uiso   1.00
O281   O     0.42392   0.75000   0.28044   0.00000  Uiso   1.00
O282   O     0.57608   0.75000   0.21956   0.00000  Uiso   1.00
O283   O     0.42392   0.75000   0.20096   0.00000  Uiso   1.00
O284   O     0.57608   0.75000   0.29904   0.00000  Uiso   1.00
Zn285  Zn    0.50000   0.75000   0.30307   0.00000  Uiso   1.00
Zn286  Zn    0.50000   0.74999   0.19693   0.00000  Uiso   1.00
Br287  Br    0.44167   0.61538   0.15165   0.00000  Uiso   1.00
Br288  Br    0.43682   0.88418   0.32872   0.00000  Uiso   1.00
Br289  Br    0.59491   0.69445   0.03448   0.00000  Uiso   1.00
Br290  Br    0.40472   0.69491   0.46438   0.00000  Uiso   1.00
C291   C     0.83270   0.66374   0.24960   0.00000  Uiso   1.00
C292   C     0.83265   0.83623   0.25020   0.00000  Uiso   1.00
C293   C     0.79434   0.77181   0.04699   0.00000  Uiso   1.00
C294   C     0.87242   0.77171   0.45347   0.00000  Uiso   1.00
C295   C     0.79491   0.77179   0.09683   0.00000  Uiso   1.00
C296   C     0.87185   0.77171   0.40362   0.00000  Uiso   1.00
C297   C     0.87198   0.72789   0.10754   0.00000  Uiso   1.00
C298   C     0.79452   0.72811   0.39200   0.00000  Uiso   1.00
C299   C     0.87321   0.72719   0.05787   0.00000  Uiso   1.00
C300   C     0.79329   0.72741   0.44165   0.00000  Uiso   1.00
C301   C     0.83369   0.74934   0.02665   0.00000  Uiso   1.00
C302   C     0.83296   0.74936   0.47334   0.00000  Uiso   1.00
C303   C     0.73363   0.74998   0.23751   0.00000  Uiso   1.00
C304   C     0.93303   0.75000   0.26249   0.00000  Uiso   1.00
C305   C     0.67863   0.74993   0.23074   0.00000  Uiso   1.00
C306   C     0.98804   0.75001   0.26926   0.00000  Uiso   1.00
C307   C     0.86540   0.54868   0.29133   0.00000  Uiso   1.00
C308   C     0.86734   0.95120   0.21914   0.00000  Uiso   1.00
C309   C     0.86070   0.59458   0.29050   0.00000  Uiso   1.00
C310   C     0.86259   0.90530   0.21844   0.00000  Uiso   1.00
C311   C     0.83537   0.61565   0.24928   0.00000  Uiso   1.00
C312   C     0.83527   0.88425   0.25128   0.00000  Uiso   1.00
C313   C     0.81466   0.59038   0.20840   0.00000  Uiso   1.00
C314   C     0.81255   0.90946   0.28523   0.00000  Uiso   1.00
C315   C     0.82027   0.54446   0.20946   0.00000  Uiso   1.00
C316   C     0.81817   0.95538   0.28600   0.00000  Uiso   1.00
C317   C     0.84521   0.52387   0.25081   0.00000  Uiso   1.00
C318   C     0.84514   0.97600   0.25293   0.00000  Uiso   1.00
H319   H     0.99130   0.74984   0.19421   0.00000  Uiso   1.00
H320   H     0.67537   0.75009   0.30579   0.00000  Uiso   1.00
H321   H     0.88430   0.53245   0.32348   0.00000  Uiso   1.00
H322   H     0.88782   0.96745   0.19327   0.00000  Uiso   1.00
H323   H     0.87711   0.61360   0.32201   0.00000  Uiso   1.00
H324   H     0.88052   0.88623   0.19242   0.00000  Uiso   1.00
H325   H     0.80341   0.52459   0.17872   0.00000  Uiso   1.00
H326   H     0.79978   0.97523   0.31112   0.00000  Uiso   1.00
H327   H     0.76340   0.78938   0.02439   0.00000  Uiso   1.00
H328   H     0.90345   0.78917   0.47643   0.00000  Uiso   1.00
H329   H     0.76448   0.78927   0.11203   0.00000  Uiso   1.00
H330   H     0.90235   0.78910   0.38879   0.00000  Uiso   1.00
H331   H     0.90199   0.71050   0.13132   0.00000  Uiso   1.00
H332   H     0.76438   0.71087   0.36787   0.00000  Uiso   1.00
N333   N     0.83333   0.74999   0.12624   0.00000  Uiso   1.00
N334   N     0.83333   0.75001   0.37376   0.00000  Uiso   1.00
O335   O     0.83334   0.68453   0.28974   0.00000  Uiso   1.00
O336   O     0.83333   0.81546   0.21026   0.00000  Uiso   1.00
O337   O     0.83334   0.68453   0.21026   0.00000  Uiso   1.00
O338   O     0.83333   0.81547   0.28974   0.00000  Uiso   1.00
O339   O     0.75725   0.75000   0.28044   0.00000  Uiso   1.00
O340   O     0.90942   0.75000   0.21956   0.00000  Uiso   1.00
O341   O     0.75725   0.75000   0.20096   0.00000  Uiso   1.00
O342   O     0.90942   0.75000   0.29904   0.00000  Uiso   1.00
Zn343  Zn    0.83333   0.75000   0.30307   0.00000  Uiso   1.00
Zn344  Zn    0.83333   0.74999   0.19693   0.00000  Uiso   1.00
Br345  Br    0.77500   0.61538   0.15165   0.00000  Uiso   1.00
Br346  Br    0.77015   0.88418   0.32872   0.00000  Uiso   1.00
Br347  Br    0.92824   0.69445   0.03448   0.00000  Uiso   1.00
Br348  Br    0.73805   0.69491   0.46438   0.00000  Uiso   1.00
C349   C     0.16603   0.16374   0.74960   0.00000  Uiso   1.00
C350   C     0.16599   0.33623   0.75020   0.00000  Uiso   1.00
C351   C     0.12768   0.27181   0.54699   0.00000  Uiso   1.00
C352   C     0.20575   0.27171   0.95347   0.00000  Uiso   1.00
C353   C     0.12824   0.27179   0.59683   0.00000  Uiso   1.00
C354   C     0.20518   0.27171   0.90362   0.00000  Uiso   1.00
C355   C     0.20531   0.22789   0.60754   0.00000  Uiso   1.00
C356   C     0.12785   0.22811   0.89200   0.00000  Uiso   1.00
C357   C     0.20654   0.22719   0.55787   0.00000  Uiso   1.00
C358   C     0.12662   0.22741   0.94165   0.00000  Uiso   1.00
C359   C     0.16702   0.24934   0.52665   0.00000  Uiso   1.00
C360   C     0.16629   0.24936   0.97334   0.00000  Uiso   1.00
C361   C     0.06697   0.24998   0.73751   0.00000  Uiso   1.00
C362   C     0.26637   0.25000   0.76249   0.00000  Uiso   1.00
C363   C     0.01196   0.24993   0.73074   0.00000  Uiso   1.00
C364   C     0.32138   0.25001   0.76926   0.00000  Uiso   1.00
C365   C     0.19873   0.04868   0.79133   0.00000  Uiso   1.00
C366   C     0.20067   0.45120   0.71914   0.00000  Uiso   1.00
C367   C     0.19404   0.09458   0.79050   0.00000  Uiso   1.00
C368   C     0.19592   0.40530   0.71844   0.00000  Uiso   1.00
C369   C     0.16870   0.11565   0.74928   0.00000  Uiso   1.00
C370   C     0.16860   0.38425   0.75128   0.00000  Uiso   1.00
C371   C     0.14799   0.09038   0.70840   0.00000  Uiso   1.00
C372   C     0.14589   0.40946   0.78523   0.00000  Uiso   1.00
C373   C     0.15360   0.04446   0.70946   0.00000  Uiso   1.00
C374   C     0.15150   0.45538   0.78600   0.00000  Uiso   1.00
C375   C     0.17854   0.02387   0.75081   0.00000  Uiso   1.00
C376   C     0.17848   0.47600   0.75293   0.00000  Uiso   1.00
H377   H     0.32464   0.24984   0.69421   0.00000  Uiso   1.00
H378   H     0.00870   0.25009   0.80579   0.00000  Uiso   1.00
H379   H     0.21763   0.03245   0.82348   0.00000  Uiso   1.00
H380   H     0.22115   0.46745   0.69327   0.00000  Uiso   1.00
H381   H     0.21044   0.11360   0.82201   0.00000  Uiso   1.00
H382   H     0.21385   0.38623   0.69242   0.00000  Uiso   1.00
H383   H     0.13674   0.02459   0.67872   0.00000  Uiso   1.00
H384   H     0.13311   0.47523   0.81112   0.00000  Uiso   1.00
H385   H     0.09673   0.28938   0.52439   0.00000  Uiso   1.00
H386   H     0.23679   0.28917   0.97643   0.00000  Uiso   1.00
H387   H     0.09781   0.28927   0.61203   0.00000  Uiso   1.00
H388   H     0.23569   0.28910   0.88879   0.00000  Uiso   1.00
H389   H     0.23533   0.21050   0.63132   0.00000  Uiso   1.00
H390   H     0.09771   0.21087   0.86787   0.00000  Uiso   1.00
N391   N     0.16667   0.24999   0.62624   0.00000  Uiso   1.00
N392   N     0.16667   0.25001   0.87376   0.00000  Uiso   1.00
O393   O     0.16667   0.18453   0.78974   0.00000  Uiso   1.00
O394   O     0.16666   0.31546   0.71026   0.00000  Uiso   1.00
O395   O     0.16667   0.18453   0.71026   0.00000  Uiso   1.00
O396   O     0.16666   0.31547   0.78974   0.00000  Uiso   1.00
O397   O     0.09058   0.25000   0.78044   0.00000  Uiso   1.00
O398   O     0.24275   0.25000   0.71956   0.00000  Uiso   1.00
O399   O     0.09058   0.25000   0.70096   0.00000  Uiso   1.00
O400   O     0.24275   0.25000   0.79904   0.00000  Uiso   1.00
Zn401  Zn    0.16667   0.25000   0.80307   0.00000  Uiso   1.00
Zn402  Zn    0.16667   0.24999   0.69693   0.00000  Uiso   1.00
Br403  Br    0.10834   0.11538   0.65165   0.00000  Uiso   1.00
Br404  Br    0.10349   0.38418   0.82872   0.00000  Uiso   1.00
Br405  Br    0.26158   0.19445   0.53448   0.00000  Uiso   1.00
Br406  Br    0.07138   0.19491   0.96438   0.00000  Uiso   1.00
C407   C     0.49937   0.16374   0.74960   0.00000  Uiso   1.00
C408   C     0.49932   0.33623   0.75020   0.00000  Uiso   1.00
C409   C     0.46101   0.27181   0.54699   0.00000  Uiso   1.00
C410   C     0.53908   0.27171   0.95347   0.00000  Uiso   1.00
C411   C     0.46157   0.27179   0.59683   0.00000  Uiso   1.00
C412   C     0.53851   0.27171   0.90362   0.00000  Uiso   1.00
C413   C     0.53865   0.22789   0.60754   0.00000  Uiso   1.00
C414   C     0.46119   0.22811   0.89200   0.00000  Uiso   1.00
C415   C     0.53988   0.22719   0.55787   0.00000  Uiso   1.00
C416   C     0.45995   0.22741   0.94165   0.00000  Uiso   1.00
C417   C     0.50036   0.24934   0.52665   0.00000  Uiso   1.00
C418   C     0.49962   0.24936   0.97334   0.00000  Uiso   1.00
C419   C     0.40030   0.24998   0.73751   0.00000  Uiso   1.00
C420   C     0.59970   0.25000   0.76249   0.00000  Uiso   1.00
C421   C     0.34529   0.24993   0.73074   0.00000  Uiso   1.00
C422   C     0.65471   0.25001   0.76926   0.00000  Uiso   1.00
C423   C     0.53207   0.04868   0.79133   0.00000  Uiso   1.00
C424   C     0.53400   0.45120   0.71914   0.00000  Uiso   1.00
C425   C     0.52737   0.09458   0.79050   0.00000  Uiso   1.00
C426   C     0.52926   0.40530   0.71844   0.00000  Uiso   1.00
C427   C     0.50203   0.11565   0.74928   0.00000  Uiso   1.00
C428   C     0.50194   0.38425   0.75128   0.00000  Uiso   1.00
C429   C     0.48132   0.09038   0.70840   0.00000  Uiso   1.00
C430   C     0.47922   0.40946   0.78523   0.00000  Uiso   1.00
C431   C     0.48694   0.04446   0.70946   0.00000  Uiso   1.00
C432   C     0.48483   0.45538   0.78600   0.00000  Uiso   1.00
C433   C     0.51187   0.02387   0.75081   0.00000  Uiso   1.00
C434   C     0.51181   0.47600   0.75293   0.00000  Uiso   1.00
H435   H     0.65797   0.24984   0.69421   0.00000  Uiso   1.00
H436   H     0.34203   0.25009   0.80579   0.00000  Uiso   1.00
H437   H     0.55097   0.03245   0.82348   0.00000  Uiso   1.00
H438   H     0.55448   0.46745   0.69327   0.00000  Uiso   1.00
H439   H     0.54377   0.11360   0.82201   0.00000  Uiso   1.00
H440   H     0.54718   0.38623   0.69242   0.00000  Uiso   1.00
H441   H     0.47008   0.02459   0.67872   0.00000  Uiso   1.00
H442   H     0.46644   0.47523   0.81112   0.00000  Uiso   1.00
H443   H     0.43006   0.28938   0.52439   0.00000  Uiso   1.00
H444   H     0.57012   0.28917   0.97643   0.00000  Uiso   1.00
H445   H     0.43114   0.28927   0.61203   0.00000  Uiso   1.00
H446   H     0.56902   0.28910   0.88879   0.00000  Uiso   1.00
H447   H     0.56866   0.21050   0.63132   0.00000  Uiso   1.00
H448   H     0.43104   0.21087   0.86787   0.00000  Uiso   1.00
N449   N     0.50000   0.24999   0.62624   0.00000  Uiso   1.00
N450   N     0.50000   0.25001   0.87376   0.00000  Uiso   1.00
O451   O     0.50000   0.18453   0.78974   0.00000  Uiso   1.00
O452   O     0.50000   0.31546   0.71026   0.00000  Uiso   1.00
O453   O     0.50000   0.18453   0.71026   0.00000  Uiso   1.00
O454   O     0.50000   0.31547   0.78974   0.00000  Uiso   1.00
O455   O     0.42392   0.25000   0.78044   0.00000  Uiso   1.00
O456   O     0.57608   0.25000   0.71956   0.00000  Uiso   1.00
O457   O     0.42392   0.25000   0.70096   0.00000  Uiso   1.00
O458   O     0.57608   0.25000   0.79904   0.00000  Uiso   1.00
Zn459  Zn    0.50000   0.25000   0.80307   0.00000  Uiso   1.00
Zn460  Zn    0.50000   0.24999   0.69693   0.00000  Uiso   1.00
Br461  Br    0.44167   0.11538   0.65165   0.00000  Uiso   1.00
Br462  Br    0.43682   0.38418   0.82872   0.00000  Uiso   1.00
Br463  Br    0.59491   0.19445   0.53448   0.00000  Uiso   1.00
Br464  Br    0.40472   0.19491   0.96438   0.00000  Uiso   1.00
C465   C     0.83270   0.16374   0.74960   0.00000  Uiso   1.00
C466   C     0.83265   0.33623   0.75020   0.00000  Uiso   1.00
C467   C     0.79434   0.27181   0.54699   0.00000  Uiso   1.00
C468   C     0.87242   0.27171   0.95347   0.00000  Uiso   1.00
C469   C     0.79491   0.27179   0.59683   0.00000  Uiso   1.00
C470   C     0.87185   0.27171   0.90362   0.00000  Uiso   1.00
C471   C     0.87198   0.22789   0.60754   0.00000  Uiso   1.00
C472   C     0.79452   0.22811   0.89200   0.00000  Uiso   1.00
C473   C     0.87321   0.22719   0.55787   0.00000  Uiso   1.00
C474   C     0.79329   0.22741   0.94165   0.00000  Uiso   1.00
C475   C     0.83369   0.24934   0.52665   0.00000  Uiso   1.00
C476   C     0.83296   0.24936   0.97334   0.00000  Uiso   1.00
C477   C     0.73363   0.24998   0.73751   0.00000  Uiso   1.00
C478   C     0.93303   0.25000   0.76249   0.00000  Uiso   1.00
C479   C     0.67863   0.24993   0.73074   0.00000  Uiso   1.00
C480   C     0.98804   0.25001   0.76926   0.00000  Uiso   1.00
C481   C     0.86540   0.04868   0.79133   0.00000  Uiso   1.00
C482   C     0.86734   0.45120   0.71914   0.00000  Uiso   1.00
C483   C     0.86070   0.09458   0.79050   0.00000  Uiso   1.00
C484   C     0.86259   0.40530   0.71844   0.00000  Uiso   1.00
C485   C     0.83537   0.11565   0.74928   0.00000  Uiso   1.00
C486   C     0.83527   0.38425   0.75128   0.00000  Uiso   1.00
C487   C     0.81466   0.09038   0.70840   0.00000  Uiso   1.00
C488   C     0.81255   0.40946   0.78523   0.00000  Uiso   1.00
C489   C     0.82027   0.04446   0.70946   0.00000  Uiso   1.00
C490   C     0.81817   0.45538   0.78600   0.00000  Uiso   1.00
C491   C     0.84521   0.02387   0.75081   0.00000  Uiso   1.00
C492   C     0.84514   0.47600   0.75293   0.00000  Uiso   1.00
H493   H     0.99130   0.24984   0.69421   0.00000  Uiso   1.00
H494   H     0.67537   0.25009   0.80579   0.00000  Uiso   1.00
H495   H     0.88430   0.03245   0.82348   0.00000  Uiso   1.00
H496   H     0.88782   0.46745   0.69327   0.00000  Uiso   1.00
H497   H     0.87711   0.11360   0.82201   0.00000  Uiso   1.00
H498   H     0.88052   0.38623   0.69242   0.00000  Uiso   1.00
H499   H     0.80341   0.02459   0.67872   0.00000  Uiso   1.00
H500   H     0.79978   0.47523   0.81112   0.00000  Uiso   1.00
H501   H     0.76340   0.28938   0.52439   0.00000  Uiso   1.00
H502   H     0.90345   0.28917   0.97643   0.00000  Uiso   1.00
H503   H     0.76448   0.28927   0.61203   0.00000  Uiso   1.00
H504   H     0.90235   0.28910   0.88879   0.00000  Uiso   1.00
H505   H     0.90199   0.21050   0.63132   0.00000  Uiso   1.00
H506   H     0.76438   0.21087   0.86787   0.00000  Uiso   1.00
N507   N     0.83333   0.24999   0.62624   0.00000  Uiso   1.00
N508   N     0.83333   0.25001   0.87376   0.00000  Uiso   1.00
O509   O     0.83334   0.18453   0.78974   0.00000  Uiso   1.00
O510   O     0.83333   0.31546   0.71026   0.00000  Uiso   1.00
O511   O     0.83334   0.18453   0.71026   0.00000  Uiso   1.00
O512   O     0.83333   0.31547   0.78974   0.00000  Uiso   1.00
O513   O     0.75725   0.25000   0.78044   0.00000  Uiso   1.00
O514   O     0.90942   0.25000   0.71956   0.00000  Uiso   1.00
O515   O     0.75725   0.25000   0.70096   0.00000  Uiso   1.00
O516   O     0.90942   0.25000   0.79904   0.00000  Uiso   1.00
Zn517  Zn    0.83333   0.25000   0.80307   0.00000  Uiso   1.00
Zn518  Zn    0.83333   0.24999   0.69693   0.00000  Uiso   1.00
Br519  Br    0.77500   0.11538   0.65165   0.00000  Uiso   1.00
Br520  Br    0.77015   0.38418   0.82872   0.00000  Uiso   1.00
Br521  Br    0.92824   0.19445   0.53448   0.00000  Uiso   1.00
Br522  Br    0.73805   0.19491   0.96438   0.00000  Uiso   1.00
C523   C     0.16603   0.66374   0.74960   0.00000  Uiso   1.00
C524   C     0.16599   0.83623   0.75020   0.00000  Uiso   1.00
C525   C     0.12768   0.77181   0.54699   0.00000  Uiso   1.00
C526   C     0.20575   0.77171   0.95347   0.00000  Uiso   1.00
C527   C     0.12824   0.77179   0.59683   0.00000  Uiso   1.00
C528   C     0.20518   0.77171   0.90362   0.00000  Uiso   1.00
C529   C     0.20531   0.72789   0.60754   0.00000  Uiso   1.00
C530   C     0.12785   0.72811   0.89200   0.00000  Uiso   1.00
C531   C     0.20654   0.72719   0.55787   0.00000  Uiso   1.00
C532   C     0.12662   0.72741   0.94165   0.00000  Uiso   1.00
C533   C     0.16702   0.74934   0.52665   0.00000  Uiso   1.00
C534   C     0.16629   0.74936   0.97334   0.00000  Uiso   1.00
C535   C     0.06697   0.74998   0.73751   0.00000  Uiso   1.00
C536   C     0.26637   0.75000   0.76249   0.00000  Uiso   1.00
C537   C     0.01196   0.74993   0.73074   0.00000  Uiso   1.00
C538   C     0.32138   0.75001   0.76926   0.00000  Uiso   1.00
C539   C     0.19873   0.54868   0.79133   0.00000  Uiso   1.00
C540   C     0.20067   0.95120   0.71914   0.00000  Uiso   1.00
C541   C     0.19404   0.59458   0.79050   0.00000  Uiso   1.00
C542   C     0.19592   0.90530   0.71844   0.00000  Uiso   1.00
C543   C     0.16870   0.61565   0.74928   0.00000  Uiso   1.00
C544   C     0.16860   0.88425   0.75128   0.00000  Uiso   1.00
C545   C     0.14799   0.59038   0.70840   0.00000  Uiso   1.00
C546   C     0.14589   0.90946   0.78523   0.00000  Uiso   1.00
C547   C     0.15360   0.54446   0.70946   0.00000  Uiso   1.00
C548   C     0.15150   0.95538   0.78600   0.00000  Uiso   1.00
C549   C     0.17854   0.52387   0.75081   0.00000  Uiso   1.00
C550   C     0.17848   0.97600   0.75293   0.00000  Uiso   1.00
H551   H     0.32464   0.74984   0.69421   0.00000  Uiso   1.00
H552   H     0.00870   0.75009   0.80579   0.00000  Uiso   1.00
H553   H     0.21763   0.53245   0.82348   0.00000  Uiso   1.00
H554   H     0.22115   0.96745   0.69327   0.00000  Uiso   1.00
H555   H     0.21044   0.61360   0.82201   0.00000  Uiso   1.00
H556   H     0.21385   0.88623   0.69242   0.00000  Uiso   1.00
H557   H     0.13674   0.52459   0.67872   0.00000  Uiso   1.00
H558   H     0.13311   0.97523   0.81112   0.00000  Uiso   1.00
H559   H     0.09673   0.78938   0.52439   0.00000  Uiso   1.00
H560   H     0.23679   0.78917   0.97643   0.00000  Uiso   1.00
H561   H     0.09781   0.78927   0.61203   0.00000  Uiso   1.00
H562   H     0.23569   0.78910   0.88879   0.00000  Uiso   1.00
H563   H     0.23533   0.71050   0.63132   0.00000  Uiso   1.00
H564   H     0.09771   0.71087   0.86787   0.00000  Uiso   1.00
N565   N     0.16667   0.74999   0.62624   0.00000  Uiso   1.00
N566   N     0.16667   0.75001   0.87376   0.00000  Uiso   1.00
O567   O     0.16667   0.68453   0.78974   0.00000  Uiso   1.00
O568   O     0.16666   0.81546   0.71026   0.00000  Uiso   1.00
O569   O     0.16667   0.68453   0.71026   0.00000  Uiso   1.00
O570   O     0.16666   0.81547   0.78974   0.00000  Uiso   1.00
O571   O     0.09058   0.75000   0.78044   0.00000  Uiso   1.00
O572   O     0.24275   0.75000   0.71956   0.00000  Uiso   1.00
O573   O     0.09058   0.75000   0.70096   0.00000  Uiso   1.00
O574   O     0.24275   0.75000   0.79904   0.00000  Uiso   1.00
Zn575  Zn    0.16667   0.75000   0.80307   0.00000  Uiso   1.00
Zn576  Zn    0.16667   0.74999   0.69693   0.00000  Uiso   1.00
Br577  Br    0.10834   0.61538   0.65165   0.00000  Uiso   1.00
Br578  Br    0.10349   0.88418   0.82872   0.00000  Uiso   1.00
Br579  Br    0.26158   0.69445   0.53448   0.00000  Uiso   1.00
Br580  Br    0.07138   0.69491   0.96438   0.00000  Uiso   1.00
C581   C     0.49937   0.66374   0.74960   0.00000  Uiso   1.00
C582   C     0.49932   0.83623   0.75020   0.00000  Uiso   1.00
C583   C     0.46101   0.77181   0.54699   0.00000  Uiso   1.00
C584   C     0.53908   0.77171   0.95347   0.00000  Uiso   1.00
C585   C     0.46157   0.77179   0.59683   0.00000  Uiso   1.00
C586   C     0.53851   0.77171   0.90362   0.00000  Uiso   1.00
C587   C     0.53865   0.72789   0.60754   0.00000  Uiso   1.00
C588   C     0.46119   0.72811   0.89200   0.00000  Uiso   1.00
C589   C     0.53988   0.72719   0.55787   0.00000  Uiso   1.00
C590   C     0.45995   0.72741   0.94165   0.00000  Uiso   1.00
C591   C     0.50036   0.74934   0.52665   0.00000  Uiso   1.00
C592   C     0.49962   0.74936   0.97334   0.00000  Uiso   1.00
C593   C     0.40030   0.74998   0.73751   0.00000  Uiso   1.00
C594   C     0.59970   0.75000   0.76249   0.00000  Uiso   1.00
C595   C     0.34529   0.74993   0.73074   0.00000  Uiso   1.00
C596   C     0.65471   0.75001   0.76926   0.00000  Uiso   1.00
C597   C     0.53207   0.54868   0.79133   0.00000  Uiso   1.00
C598   C     0.53400   0.95120   0.71914   0.00000  Uiso   1.00
C599   C     0.52737   0.59458   0.79050   0.00000  Uiso   1.00
C600   C     0.52926   0.90530   0.71844   0.00000  Uiso   1.00
C601   C     0.50203   0.61565   0.74928   0.00000  Uiso   1.00
C602   C     0.50194   0.88425   0.75128   0.00000  Uiso   1.00
C603   C     0.48132   0.59038   0.70840   0.00000  Uiso   1.00
C604   C     0.47922   0.90946   0.78523   0.00000  Uiso   1.00
C605   C     0.48694   0.54446   0.70946   0.00000  Uiso   1.00
C606   C     0.48483   0.95538   0.78600   0.00000  Uiso   1.00
C607   C     0.51187   0.52387   0.75081   0.00000  Uiso   1.00
C608   C     0.51181   0.97600   0.75293   0.00000  Uiso   1.00
H609   H     0.65797   0.74984   0.69421   0.00000  Uiso   1.00
H610   H     0.34203   0.75009   0.80579   0.00000  Uiso   1.00
H611   H     0.55097   0.53245   0.82348   0.00000  Uiso   1.00
H612   H     0.55448   0.96745   0.69327   0.00000  Uiso   1.00
H613   H     0.54377   0.61360   0.82201   0.00000  Uiso   1.00
H614   H     0.54718   0.88623   0.69242   0.00000  Uiso   1.00
H615   H     0.47008   0.52459   0.67872   0.00000  Uiso   1.00
H616   H     0.46644   0.97523   0.81112   0.00000  Uiso   1.00
H617   H     0.43006   0.78938   0.52439   0.00000  Uiso   1.00
H618   H     0.57012   0.78917   0.97643   0.00000  Uiso   1.00
H619   H     0.43114   0.78927   0.61203   0.00000  Uiso   1.00
H620   H     0.56902   0.78910   0.88879   0.00000  Uiso   1.00
H621   H     0.56866   0.71050   0.63132   0.00000  Uiso   1.00
H622   H     0.43104   0.71087   0.86787   0.00000  Uiso   1.00
N623   N     0.50000   0.74999   0.62624   0.00000  Uiso   1.00
N624   N     0.50000   0.75001   0.87376   0.00000  Uiso   1.00
O625   O     0.50000   0.68453   0.78974   0.00000  Uiso   1.00
O626   O     0.50000   0.81546   0.71026   0.00000  Uiso   1.00
O627   O     0.50000   0.68453   0.71026   0.00000  Uiso   1.00
O628   O     0.50000   0.81547   0.78974   0.00000  Uiso   1.00
O629   O     0.42392   0.75000   0.78044   0.00000  Uiso   1.00
O630   O     0.57608   0.75000   0.71956   0.00000  Uiso   1.00
O631   O     0.42392   0.75000   0.70096   0.00000  Uiso   1.00
O632   O     0.57608   0.75000   0.79904   0.00000  Uiso   1.00
Zn633  Zn    0.50000   0.75000   0.80307   0.00000  Uiso   1.00
Zn634  Zn    0.50000   0.74999   0.69693   0.00000  Uiso   1.00
Br635  Br    0.44167   0.61538   0.65165   0.00000  Uiso   1.00
Br636  Br    0.43682   0.88418   0.82872   0.00000  Uiso   1.00
Br637  Br    0.59491   0.69445   0.53448   0.00000  Uiso   1.00
Br638  Br    0.40472   0.69491   0.96438   0.00000  Uiso   1.00
C639   C     0.83270   0.66374   0.74960   0.00000  Uiso   1.00
C640   C     0.83265   0.83623   0.75020   0.00000  Uiso   1.00
C641   C     0.79434   0.77181   0.54699   0.00000  Uiso   1.00
C642   C     0.87242   0.77171   0.95347   0.00000  Uiso   1.00
C643   C     0.79491   0.77179   0.59683   0.00000  Uiso   1.00
C644   C     0.87185   0.77171   0.90362   0.00000  Uiso   1.00
C645   C     0.87198   0.72789   0.60754   0.00000  Uiso   1.00
C646   C     0.79452   0.72811   0.89200   0.00000  Uiso   1.00
C647   C     0.87321   0.72719   0.55787   0.00000  Uiso   1.00
C648   C     0.79329   0.72741   0.94165   0.00000  Uiso   1.00
C649   C     0.83369   0.74934   0.52665   0.00000  Uiso   1.00
C650   C     0.83296   0.74936   0.97334   0.00000  Uiso   1.00
C651   C     0.73363   0.74998   0.73751   0.00000  Uiso   1.00
C652   C     0.93303   0.75000   0.76249   0.00000  Uiso   1.00
C653   C     0.67863   0.74993   0.73074   0.00000  Uiso   1.00
C654   C     0.98804   0.75001   0.76926   0.00000  Uiso   1.00
C655   C     0.86540   0.54868   0.79133   0.00000  Uiso   1.00
C656   C     0.86734   0.95120   0.71914   0.00000  Uiso   1.00
C657   C     0.86070   0.59458   0.79050   0.00000  Uiso   1.00
C658   C     0.86259   0.90530   0.71844   0.00000  Uiso   1.00
C659   C     0.83537   0.61565   0.74928   0.00000  Uiso   1.00
C660   C     0.83527   0.88425   0.75128   0.00000  Uiso   1.00
C661   C     0.81466   0.59038   0.70840   0.00000  Uiso   1.00
C662   C     0.81255   0.90946   0.78523   0.00000  Uiso   1.00
C663   C     0.82027   0.54446   0.70946   0.00000  Uiso   1.00
C664   C     0.81817   0.95538   0.78600   0.00000  Uiso   1.00
C665   C     0.84521   0.52387   0.75081   0.00000  Uiso   1.00
C666   C     0.84514   0.97600   0.75293   0.00000  Uiso   1.00
H667   H     0.99130   0.74984   0.69421   0.00000  Uiso   1.00
H668   H     0.67537   0.75009   0.80579   0.00000  Uiso   1.00
H669   H     0.88430   0.53245   0.82348   0.00000  Uiso   1.00
H670   H     0.88782   0.96745   0.69327   0.00000  Uiso   1.00
H671   H     0.87711   0.61360   0.82201   0.00000  Uiso   1.00
H672   H     0.88052   0.88623   0.69242   0.00000  Uiso   1.00
H673   H     0.80341   0.52459   0.67872   0.00000  Uiso   1.00
H674   H     0.79978   0.97523   0.81112   0.00000  Uiso   1.00
H675   H     0.76340   0.78938   0.52439   0.00000  Uiso   1.00
H676   H     0.90345   0.78917   0.97643   0.00000  Uiso   1.00
H677   H     0.76448   0.78927   0.61203   0.00000  Uiso   1.00
H678   H     0.90235   0.78910   0.88879   0.00000  Uiso   1.00
H679   H     0.90199   0.71050   0.63132   0.00000  Uiso   1.00
H680   H     0.76438   0.71087   0.86787   0.00000  Uiso   1.00
N681   N     0.83333   0.74999   0.62624   0.00000  Uiso   1.00
N682   N     0.83333   0.75001   0.87376   0.00000  Uiso   1.00
O683   O     0.83334   0.68453   0.78974   0.00000  Uiso   1.00
O684   O     0.83333   0.81546   0.71026   0.00000  Uiso   1.00
O685   O     0.83334   0.68453   0.71026   0.00000  Uiso   1.00
O686   O     0.83333   0.81547   0.78974   0.00000  Uiso   1.00
O687   O     0.75725   0.75000   0.78044   0.00000  Uiso   1.00
O688   O     0.90942   0.75000   0.71956   0.00000  Uiso   1.00
O689   O     0.75725   0.75000   0.70096   0.00000  Uiso   1.00
O690   O     0.90942   0.75000   0.79904   0.00000  Uiso   1.00
Zn691  Zn    0.83333   0.75000   0.80307   0.00000  Uiso   1.00
Zn692  Zn    0.83333   0.74999   0.69693   0.00000  Uiso   1.00
Br693  Br    0.77500   0.61538   0.65165   0.00000  Uiso   1.00
Br694  Br    0.77015   0.88418   0.82872   0.00000  Uiso   1.00
Br695  Br    0.92824   0.69445   0.53448   0.00000  Uiso   1.00
Br696  Br    0.73805   0.69491   0.96438   0.00000  Uiso   1.00
loop_
_geom_bond_atom_site_label_1
_geom_bond_atom_site_label_2
_geom_bond_distance
_geom_bond_site_symmetry_2
_ccdc_geom_bond_type
C1     C21     1.442   .     S
C1     O45     1.287   .     A
C1     O47     1.282   .     A
C2     C22     1.440   .     S
C2     O46     1.287   .     A
C2     O48     1.282   .     A
C3     C5      1.407   .     A
C3     H37     1.083   .     S
C3     C11     1.407   .     A
C4     C12     1.407   .     A
C4     C6      1.407   .     A
C4     H38     1.083   .     S
C5     N43     1.363   .     A
C5     H39     1.082   .     S
C6     N44     1.363   .     A
C6     H40     1.082   .     S
C7     N43     1.364   .     A
C7     C9      1.409   .     A
C7     H41     1.082   .     S
C8     C10     1.409   .     A
C8     H42     1.082   .     S
C8     N44     1.364   .     A
C9     C11     1.412   .     A
C9     Br57    1.918   .     S
C10    C12     1.412   .     A
C10    Br58    1.918   .     S
C11    C360    1.504   1_554 S
C12    C359    1.504   .     S
C13    C15     1.401   .     S
C13    O49     1.273   .     A
C13    O51     1.276   .     A
C14    C16     1.401   .     S
C14    O50     1.273   .     A
C14    O52     1.276   .     A
C15    C132    1.330   1_455 S
C15    H145    1.088   1_455 S
C16    C73     1.330   .     S
C16    H88     1.088   .     S
C17    H31     1.084   .     S
C17    C27     1.393   .     A
C17    C19     1.380   .     A
C18    C20     1.380   .     A
C18    H32     1.084   .     S
C18    C28     1.393   .     A
C19    C21     1.402   .     A
C19    H33     1.084   .     S
C20    H34     1.084   .     S
C20    C22     1.402   .     A
C21    C23     1.411   .     A
C22    C24     1.410   .     A
C23    Br55    1.925   .     S
C23    C25     1.383   .     A
C24    Br56    1.925   .     S
C24    C26     1.383   .     A
C25    H35     1.084   .     S
C25    C27     1.395   .     A
C26    H36     1.084   .     S
C26    C28     1.395   .     A
C27    C202    1.436   1_545 S
C28    C201    1.436   .     S
H29    C73     1.088   .     S
H30    C132    1.088   1_455 S
N43    Zn54    1.999   .     S
N44    Zn53    1.999   .     S
O45    Zn53    1.993   .     S
O46    Zn54    1.993   .     S
O47    Zn54    2.000   .     S
O48    Zn53    2.000   .     S
O49    Zn53    1.968   .     S
O50    Zn54    1.968   .     S
O51    Zn54    1.981   .     S
O52    Zn53    1.981   .     S
C59    C79     1.442   .     S
C59    O103    1.287   .     A
C59    O105    1.282   .     A
C60    C80     1.440   .     S
C60    O104    1.287   .     A
C60    O106    1.282   .     A
C61    C63     1.407   .     A
C61    H95     1.083   .     S
C61    C69     1.407   .     A
C62    C70     1.407   .     A
C62    C64     1.407   .     A
C62    H96     1.083   .     S
C63    N101    1.363   .     A
C63    H97     1.082   .     S
C64    N102    1.363   .     A
C64    H98     1.082   .     S
C65    N101    1.364   .     A
C65    C67     1.409   .     A
C65    H99     1.082   .     S
C66    C68     1.409   .     A
C66    H100    1.082   .     S
C66    N102    1.364   .     A
C67    C69     1.412   .     A
C67    Br115   1.918   .     S
C68    C70     1.412   .     A
C68    Br116   1.918   .     S
C69    C418    1.504   1_554 S
C70    C417    1.504   .     S
C71    C73     1.401   .     S
C71    O107    1.273   .     A
C71    O109    1.276   .     A
C72    C74     1.401   .     S
C72    O108    1.273   .     A
C72    O110    1.276   .     A
C74    C131    1.330   .     S
C74    H146    1.088   .     S
C75    H89     1.084   .     S
C75    C85     1.393   .     A
C75    C77     1.380   .     A
C76    C78     1.380   .     A
C76    H90     1.084   .     S
C76    C86     1.393   .     A
C77    C79     1.402   .     A
C77    H91     1.084   .     S
C78    H92     1.084   .     S
C78    C80     1.402   .     A
C79    C81     1.411   .     A
C80    C82     1.410   .     A
C81    Br113   1.925   .     S
C81    C83     1.383   .     A
C82    Br114   1.925   .     S
C82    C84     1.383   .     A
C83    H93     1.084   .     S
C83    C85     1.395   .     A
C84    H94     1.084   .     S
C84    C86     1.395   .     A
C85    C260    1.436   1_545 S
C86    C259    1.436   .     S
H87    C131    1.088   .     S
N101   Zn112   1.999   .     S
N102   Zn111   1.999   .     S
O103   Zn111   1.993   .     S
O104   Zn112   1.993   .     S
O105   Zn112   2.000   .     S
O106   Zn111   2.000   .     S
O107   Zn111   1.968   .     S
O108   Zn112   1.968   .     S
O109   Zn112   1.981   .     S
O110   Zn111   1.981   .     S
C117   C137    1.442   .     S
C117   O161    1.287   .     A
C117   O163    1.282   .     A
C118   C138    1.440   .     S
C118   O162    1.287   .     A
C118   O164    1.282   .     A
C119   C121    1.407   .     A
C119   H153    1.083   .     S
C119   C127    1.407   .     A
C120   C128    1.407   .     A
C120   C122    1.407   .     A
C120   H154    1.083   .     S
C121   N159    1.363   .     A
C121   H155    1.082   .     S
C122   N160    1.363   .     A
C122   H156    1.082   .     S
C123   N159    1.364   .     A
C123   C125    1.409   .     A
C123   H157    1.082   .     S
C124   C126    1.409   .     A
C124   H158    1.082   .     S
C124   N160    1.364   .     A
C125   C127    1.412   .     A
C125   Br173   1.918   .     S
C126   C128    1.412   .     A
C126   Br174   1.918   .     S
C127   C476    1.504   1_554 S
C128   C475    1.504   .     S
C129   C131    1.401   .     S
C129   O165    1.273   .     A
C129   O167    1.276   .     A
C130   C132    1.401   .     S
C130   O166    1.273   .     A
C130   O168    1.276   .     A
C132   C15     1.330   1_655 S
C132   H30     1.088   1_655 S
C133   H147    1.084   .     S
C133   C143    1.393   .     A
C133   C135    1.380   .     A
C134   C136    1.380   .     A
C134   H148    1.084   .     S
C134   C144    1.393   .     A
C135   C137    1.402   .     A
C135   H149    1.084   .     S
C136   H150    1.084   .     S
C136   C138    1.402   .     A
C137   C139    1.411   .     A
C138   C140    1.410   .     A
C139   Br171   1.925   .     S
C139   C141    1.383   .     A
C140   Br172   1.925   .     S
C140   C142    1.383   .     A
C141   H151    1.084   .     S
C141   C143    1.395   .     A
C142   H152    1.084   .     S
C142   C144    1.395   .     A
C143   C318    1.436   1_545 S
C144   C317    1.436   .     S
H145   C15     1.088   1_655 S
N159   Zn170   1.999   .     S
N160   Zn169   1.999   .     S
O161   Zn169   1.993   .     S
O162   Zn170   1.993   .     S
O163   Zn170   2.000   .     S
O164   Zn169   2.000   .     S
O165   Zn169   1.968   .     S
O166   Zn170   1.968   .     S
O167   Zn170   1.981   .     S
O168   Zn169   1.981   .     S
C175   C195    1.442   .     S
C175   O219    1.287   .     A
C175   O221    1.282   .     A
C176   C196    1.440   .     S
C176   O220    1.287   .     A
C176   O222    1.282   .     A
C177   C179    1.407   .     A
C177   H211    1.083   .     S
C177   C185    1.407   .     A
C178   C186    1.407   .     A
C178   C180    1.407   .     A
C178   H212    1.083   .     S
C179   N217    1.363   .     A
C179   H213    1.082   .     S
C180   N218    1.363   .     A
C180   H214    1.082   .     S
C181   N217    1.364   .     A
C181   C183    1.409   .     A
C181   H215    1.082   .     S
C182   C184    1.409   .     A
C182   H216    1.082   .     S
C182   N218    1.364   .     A
C183   C185    1.412   .     A
C183   Br231   1.918   .     S
C184   C186    1.412   .     A
C184   Br232   1.918   .     S
C185   C534    1.504   1_554 S
C186   C533    1.504   .     S
C187   C189    1.401   .     S
C187   O223    1.273   .     A
C187   O225    1.276   .     A
C188   C190    1.401   .     S
C188   O224    1.273   .     A
C188   O226    1.276   .     A
C189   C306    1.330   1_455 S
C189   H319    1.088   1_455 S
C190   C247    1.330   .     S
C190   H262    1.088   .     S
C191   H205    1.084   .     S
C191   C201    1.393   .     A
C191   C193    1.380   .     A
C192   C194    1.380   .     A
C192   H206    1.084   .     S
C192   C202    1.393   .     A
C193   C195    1.402   .     A
C193   H207    1.084   .     S
C194   H208    1.084   .     S
C194   C196    1.402   .     A
C195   C197    1.411   .     A
C196   C198    1.410   .     A
C197   Br229   1.925   .     S
C197   C199    1.383   .     A
C198   Br230   1.925   .     S
C198   C200    1.383   .     A
C199   H209    1.084   .     S
C199   C201    1.395   .     A
C200   H210    1.084   .     S
C200   C202    1.395   .     A
C202   C27     1.436   1_565 S
H203   C247    1.088   .     S
H204   C306    1.088   1_455 S
N217   Zn228   1.999   .     S
N218   Zn227   1.999   .     S
O219   Zn227   1.993   .     S
O220   Zn228   1.993   .     S
O221   Zn228   2.000   .     S
O222   Zn227   2.000   .     S
O223   Zn227   1.968   .     S
O224   Zn228   1.968   .     S
O225   Zn228   1.981   .     S
O226   Zn227   1.981   .     S
C233   C253    1.442   .     S
C233   O277    1.287   .     A
C233   O279    1.282   .     A
C234   C254    1.440   .     S
C234   O278    1.287   .     A
C234   O280    1.282   .     A
C235   C237    1.407   .     A
C235   H269    1.083   .     S
C235   C243    1.407   .     A
C236   C244    1.407   .     A
C236   C238    1.407   .     A
C236   H270    1.083   .     S
C237   N275    1.363   .     A
C237   H271    1.082   .     S
C238   N276    1.363   .     A
C238   H272    1.082   .     S
C239   N275    1.364   .     A
C239   C241    1.409   .     A
C239   H273    1.082   .     S
C240   C242    1.409   .     A
C240   H274    1.082   .     S
C240   N276    1.364   .     A
C241   C243    1.412   .     A
C241   Br289   1.918   .     S
C242   C244    1.412   .     A
C242   Br290   1.918   .     S
C243   C592    1.504   1_554 S
C244   C591    1.504   .     S
C245   C247    1.401   .     S
C245   O281    1.273   .     A
C245   O283    1.276   .     A
C246   C248    1.401   .     S
C246   O282    1.273   .     A
C246   O284    1.276   .     A
C248   C305    1.330   .     S
C248   H320    1.088   .     S
C249   H263    1.084   .     S
C249   C259    1.393   .     A
C249   C251    1.380   .     A
C250   C252    1.380   .     A
C250   H264    1.084   .     S
C250   C260    1.393   .     A
C251   C253    1.402   .     A
C251   H265    1.084   .     S
C252   H266    1.084   .     S
C252   C254    1.402   .     A
C253   C255    1.411   .     A
C254   C256    1.410   .     A
C255   Br287   1.925   .     S
C255   C257    1.383   .     A
C256   Br288   1.925   .     S
C256   C258    1.383   .     A
C257   H267    1.084   .     S
C257   C259    1.395   .     A
C258   H268    1.084   .     S
C258   C260    1.395   .     A
C260   C85     1.436   1_565 S
H261   C305    1.088   .     S
N275   Zn286   1.999   .     S
N276   Zn285   1.999   .     S
O277   Zn285   1.993   .     S
O278   Zn286   1.993   .     S
O279   Zn286   2.000   .     S
O280   Zn285   2.000   .     S
O281   Zn285   1.968   .     S
O282   Zn286   1.968   .     S
O283   Zn286   1.981   .     S
O284   Zn285   1.981   .     S
C291   C311    1.442   .     S
C291   O335    1.287   .     A
C291   O337    1.282   .     A
C292   C312    1.440   .     S
C292   O336    1.287   .     A
C292   O338    1.282   .     A
C293   C295    1.407   .     A
C293   H327    1.083   .     S
C293   C301    1.407   .     A
C294   C302    1.407   .     A
C294   C296    1.407   .     A
C294   H328    1.083   .     S
C295   N333    1.363   .     A
C295   H329    1.082   .     S
C296   N334    1.363   .     A
C296   H330    1.082   .     S
C297   N333    1.364   .     A
C297   C299    1.409   .     A
C297   H331    1.082   .     S
C298   C300    1.409   .     A
C298   H332    1.082   .     S
C298   N334    1.364   .     A
C299   C301    1.412   .     A
C299   Br347   1.918   .     S
C300   C302    1.412   .     A
C300   Br348   1.918   .     S
C301   C650    1.504   1_554 S
C302   C649    1.504   .     S
C303   C305    1.401   .     S
C303   O339    1.273   .     A
C303   O341    1.276   .     A
C304   C306    1.401   .     S
C304   O340    1.273   .     A
C304   O342    1.276   .     A
C306   C189    1.330   1_655 S
C306   H204    1.088   1_655 S
C307   H321    1.084   .     S
C307   C317    1.393   .     A
C307   C309    1.380   .     A
C308   C310    1.380   .     A
C308   H322    1.084   .     S
C308   C318    1.393   .     A
C309   C311    1.402   .     A
C309   H323    1.084   .     S
C310   H324    1.084   .     S
C310   C312    1.402   .     A
C311   C313    1.411   .     A
C312   C314    1.410   .     A
C313   Br345   1.925   .     S
C313   C315    1.383   .     A
C314   Br346   1.925   .     S
C314   C316    1.383   .     A
C315   H325    1.084   .     S
C315   C317    1.395   .     A
C316   H326    1.084   .     S
C316   C318    1.395   .     A
C318   C143    1.436   1_565 S
H319   C189    1.088   1_655 S
N333   Zn344   1.999   .     S
N334   Zn343   1.999   .     S
O335   Zn343   1.993   .     S
O336   Zn344   1.993   .     S
O337   Zn344   2.000   .     S
O338   Zn343   2.000   .     S
O339   Zn343   1.968   .     S
O340   Zn344   1.968   .     S
O341   Zn344   1.981   .     S
O342   Zn343   1.981   .     S
C349   C369    1.442   .     S
C349   O393    1.287   .     A
C349   O395    1.282   .     A
C350   C370    1.440   .     S
C350   O394    1.287   .     A
C350   O396    1.282   .     A
C351   C353    1.407   .     A
C351   H385    1.083   .     S
C351   C359    1.407   .     A
C352   C360    1.407   .     A
C352   C354    1.407   .     A
C352   H386    1.083   .     S
C353   N391    1.363   .     A
C353   H387    1.082   .     S
C354   N392    1.363   .     A
C354   H388    1.082   .     S
C355   N391    1.364   .     A
C355   C357    1.409   .     A
C355   H389    1.082   .     S
C356   C358    1.409   .     A
C356   H390    1.082   .     S
C356   N392    1.364   .     A
C357   C359    1.412   .     A
C357   Br405   1.918   .     S
C358   C360    1.412   .     A
C358   Br406   1.918   .     S
C360   C11     1.504   1_556 S
C361   C363    1.401   .     S
C361   O397    1.273   .     A
C361   O399    1.276   .     A
C362   C364    1.401   .     S
C362   O398    1.273   .     A
C362   O400    1.276   .     A
C363   C480    1.330   1_455 S
C363   H493    1.088   1_455 S
C364   C421    1.330   .     S
C364   H436    1.088   .     S
C365   H379    1.084   .     S
C365   C375    1.393   .     A
C365   C367    1.380   .     A
C366   C368    1.380   .     A
C366   H380    1.084   .     S
C366   C376    1.393   .     A
C367   C369    1.402   .     A
C367   H381    1.084   .     S
C368   H382    1.084   .     S
C368   C370    1.402   .     A
C369   C371    1.411   .     A
C370   C372    1.410   .     A
C371   Br403   1.925   .     S
C371   C373    1.383   .     A
C372   Br404   1.925   .     S
C372   C374    1.383   .     A
C373   H383    1.084   .     S
C373   C375    1.395   .     A
C374   H384    1.084   .     S
C374   C376    1.395   .     A
C375   C550    1.436   1_545 S
C376   C549    1.436   .     S
H377   C421    1.088   .     S
H378   C480    1.088   1_455 S
N391   Zn402   1.999   .     S
N392   Zn401   1.999   .     S
O393   Zn401   1.993   .     S
O394   Zn402   1.993   .     S
O395   Zn402   2.000   .     S
O396   Zn401   2.000   .     S
O397   Zn401   1.968   .     S
O398   Zn402   1.968   .     S
O399   Zn402   1.981   .     S
O400   Zn401   1.981   .     S
C407   C427    1.442   .     S
C407   O451    1.287   .     A
C407   O453    1.282   .     A
C408   C428    1.440   .     S
C408   O452    1.287   .     A
C408   O454    1.282   .     A
C409   C411    1.407   .     A
C409   H443    1.083   .     S
C409   C417    1.407   .     A
C410   C418    1.407   .     A
C410   C412    1.407   .     A
C410   H444    1.083   .     S
C411   N449    1.363   .     A
C411   H445    1.082   .     S
C412   N450    1.363   .     A
C412   H446    1.082   .     S
C413   N449    1.364   .     A
C413   C415    1.409   .     A
C413   H447    1.082   .     S
C414   C416    1.409   .     A
C414   H448    1.082   .     S
C414   N450    1.364   .     A
C415   C417    1.412   .     A
C415   Br463   1.918   .     S
C416   C418    1.412   .     A
C416   Br464   1.918   .     S
C418   C69     1.504   1_556 S
C419   C421    1.401   .     S
C419   O455    1.273   .     A
C419   O457    1.276   .     A
C420   C422    1.401   .     S
C420   O456    1.273   .     A
C420   O458    1.276   .     A
C422   C479    1.330   .     S
C422   H494    1.088   .     S
C423   H437    1.084   .     S
C423   C433    1.393   .     A
C423   C425    1.380   .     A
C424   C426    1.380   .     A
C424   H438    1.084   .     S
C424   C434    1.393   .     A
C425   C427    1.402   .     A
C425   H439    1.084   .     S
C426   H440    1.084   .     S
C426   C428    1.402   .     A
C427   C429    1.411   .     A
C428   C430    1.410   .     A
C429   Br461   1.925   .     S
C429   C431    1.383   .     A
C430   Br462   1.925   .     S
C430   C432    1.383   .     A
C431   H441    1.084   .     S
C431   C433    1.395   .     A
C432   H442    1.084   .     S
C432   C434    1.395   .     A
C433   C608    1.436   1_545 S
C434   C607    1.436   .     S
H435   C479    1.088   .     S
N449   Zn460   1.999   .     S
N450   Zn459   1.999   .     S
O451   Zn459   1.993   .     S
O452   Zn460   1.993   .     S
O453   Zn460   2.000   .     S
O454   Zn459   2.000   .     S
O455   Zn459   1.968   .     S
O456   Zn460   1.968   .     S
O457   Zn460   1.981   .     S
O458   Zn459   1.981   .     S
C465   C485    1.442   .     S
C465   O509    1.287   .     A
C465   O511    1.282   .     A
C466   C486    1.440   .     S
C466   O510    1.287   .     A
C466   O512    1.282   .     A
C467   C469    1.407   .     A
C467   H501    1.083   .     S
C467   C475    1.407   .     A
C468   C476    1.407   .     A
C468   C470    1.407   .     A
C468   H502    1.083   .     S
C469   N507    1.363   .     A
C469   H503    1.082   .     S
C470   N508    1.363   .     A
C470   H504    1.082   .     S
C471   N507    1.364   .     A
C471   C473    1.409   .     A
C471   H505    1.082   .     S
C472   C474    1.409   .     A
C472   H506    1.082   .     S
C472   N508    1.364   .     A
C473   C475    1.412   .     A
C473   Br521   1.918   .     S
C474   C476    1.412   .     A
C474   Br522   1.918   .     S
C476   C127    1.504   1_556 S
C477   C479    1.401   .     S
C477   O513    1.273   .     A
C477   O515    1.276   .     A
C478   C480    1.401   .     S
C478   O514    1.273   .     A
C478   O516    1.276   .     A
C480   C363    1.330   1_655 S
C480   H378    1.088   1_655 S
C481   H495    1.084   .     S
C481   C491    1.393   .     A
C481   C483    1.380   .     A
C482   C484    1.380   .     A
C482   H496    1.084   .     S
C482   C492    1.393   .     A
C483   C485    1.402   .     A
C483   H497    1.084   .     S
C484   H498    1.084   .     S
C484   C486    1.402   .     A
C485   C487    1.411   .     A
C486   C488    1.410   .     A
C487   Br519   1.925   .     S
C487   C489    1.383   .     A
C488   Br520   1.925   .     S
C488   C490    1.383   .     A
C489   H499    1.084   .     S
C489   C491    1.395   .     A
C490   H500    1.084   .     S
C490   C492    1.395   .     A
C491   C666    1.436   1_545 S
C492   C665    1.436   .     S
H493   C363    1.088   1_655 S
N507   Zn518   1.999   .     S
N508   Zn517   1.999   .     S
O509   Zn517   1.993   .     S
O510   Zn518   1.993   .     S
O511   Zn518   2.000   .     S
O512   Zn517   2.000   .     S
O513   Zn517   1.968   .     S
O514   Zn518   1.968   .     S
O515   Zn518   1.981   .     S
O516   Zn517   1.981   .     S
C523   C543    1.442   .     S
C523   O567    1.287   .     A
C523   O569    1.282   .     A
C524   C544    1.440   .     S
C524   O568    1.287   .     A
C524   O570    1.282   .     A
C525   C527    1.407   .     A
C525   H559    1.083   .     S
C525   C533    1.407   .     A
C526   C534    1.407   .     A
C526   C528    1.407   .     A
C526   H560    1.083   .     S
C527   N565    1.363   .     A
C527   H561    1.082   .     S
C528   N566    1.363   .     A
C528   H562    1.082   .     S
C529   N565    1.364   .     A
C529   C531    1.409   .     A
C529   H563    1.082   .     S
C530   C532    1.409   .     A
C530   H564    1.082   .     S
C530   N566    1.364   .     A
C531   C533    1.412   .     A
C531   Br579   1.918   .     S
C532   C534    1.412   .     A
C532   Br580   1.918   .     S
C534   C185    1.504   1_556 S
C535   C537    1.401   .     S
C535   O571    1.273   .     A
C535   O573    1.276   .     A
C536   C538    1.401   .     S
C536   O572    1.273   .     A
C536   O574    1.276   .     A
C537   C654    1.330   1_455 S
C537   H667    1.088   1_455 S
C538   C595    1.330   .     S
C538   H610    1.088   .     S
C539   H553    1.084   .     S
C539   C549    1.393   .     A
C539   C541    1.380   .     A
C540   C542    1.380   .     A
C540   H554    1.084   .     S
C540   C550    1.393   .     A
C541   C543    1.402   .     A
C541   H555    1.084   .     S
C542   H556    1.084   .     S
C542   C544    1.402   .     A
C543   C545    1.411   .     A
C544   C546    1.410   .     A
C545   Br577   1.925   .     S
C545   C547    1.383   .     A
C546   Br578   1.925   .     S
C546   C548    1.383   .     A
C547   H557    1.084   .     S
C547   C549    1.395   .     A
C548   H558    1.084   .     S
C548   C550    1.395   .     A
C550   C375    1.436   1_565 S
H551   C595    1.088   .     S
H552   C654    1.088   1_455 S
N565   Zn576   1.999   .     S
N566   Zn575   1.999   .     S
O567   Zn575   1.993   .     S
O568   Zn576   1.993   .     S
O569   Zn576   2.000   .     S
O570   Zn575   2.000   .     S
O571   Zn575   1.968   .     S
O572   Zn576   1.968   .     S
O573   Zn576   1.981   .     S
O574   Zn575   1.981   .     S
C581   C601    1.442   .     S
C581   O625    1.287   .     A
C581   O627    1.282   .     A
C582   C602    1.440   .     S
C582   O626    1.287   .     A
C582   O628    1.282   .     A
C583   C585    1.407   .     A
C583   H617    1.083   .     S
C583   C591    1.407   .     A
C584   C592    1.407   .     A
C584   C586    1.407   .     A
C584   H618    1.083   .     S
C585   N623    1.363   .     A
C585   H619    1.082   .     S
C586   N624    1.363   .     A
C586   H620    1.082   .     S
C587   N623    1.364   .     A
C587   C589    1.409   .     A
C587   H621    1.082   .     S
C588   C590    1.409   .     A
C588   H622    1.082   .     S
C588   N624    1.364   .     A
C589   C591    1.412   .     A
C589   Br637   1.918   .     S
C590   C592    1.412   .     A
C590   Br638   1.918   .     S
C592   C243    1.504   1_556 S
C593   C595    1.401   .     S
C593   O629    1.273   .     A
C593   O631    1.276   .     A
C594   C596    1.401   .     S
C594   O630    1.273   .     A
C594   O632    1.276   .     A
C596   C653    1.330   .     S
C596   H668    1.088   .     S
C597   H611    1.084   .     S
C597   C607    1.393   .     A
C597   C599    1.380   .     A
C598   C600    1.380   .     A
C598   H612    1.084   .     S
C598   C608    1.393   .     A
C599   C601    1.402   .     A
C599   H613    1.084   .     S
C600   H614    1.084   .     S
C600   C602    1.402   .     A
C601   C603    1.411   .     A
C602   C604    1.410   .     A
C603   Br635   1.925   .     S
C603   C605    1.383   .     A
C604   Br636   1.925   .     S
C604   C606    1.383   .     A
C605   H615    1.084   .     S
C605   C607    1.395   .     A
C606   H616    1.084   .     S
C606   C608    1.395   .     A
C608   C433    1.436   1_565 S
H609   C653    1.088   .     S
N623   Zn634   1.999   .     S
N624   Zn633   1.999   .     S
O625   Zn633   1.993   .     S
O626   Zn634   1.993   .     S
O627   Zn634   2.000   .     S
O628   Zn633   2.000   .     S
O629   Zn633   1.968   .     S
O630   Zn634   1.968   .     S
O631   Zn634   1.981   .     S
O632   Zn633   1.981   .     S
C639   C659    1.442   .     S
C639   O683    1.287   .     A
C639   O685    1.282   .     A
C640   C660    1.440   .     S
C640   O684    1.287   .     A
C640   O686    1.282   .     A
C641   C643    1.407   .     A
C641   H675    1.083   .     S
C641   C649    1.407   .     A
C642   C650    1.407   .     A
C642   C644    1.407   .     A
C642   H676    1.083   .     S
C643   N681    1.363   .     A
C643   H677    1.082   .     S
C644   N682    1.363   .     A
C644   H678    1.082   .     S
C645   N681    1.364   .     A
C645   C647    1.409   .     A
C645   H679    1.082   .     S
C646   C648    1.409   .     A
C646   H680    1.082   .     S
C646   N682    1.364   .     A
C647   C649    1.412   .     A
C647   Br695   1.918   .     S
C648   C650    1.412   .     A
C648   Br696   1.918   .     S
C650   C301    1.504   1_556 S
C651   C653    1.401   .     S
C651   O687    1.273   .     A
C651   O689    1.276   .     A
C652   C654    1.401   .     S
C652   O688    1.273   .     A
C652   O690    1.276   .     A
C654   C537    1.330   1_655 S
C654   H552    1.088   1_655 S
C655   H669    1.084   .     S
C655   C665    1.393   .     A
C655   C657    1.380   .     A
C656   C658    1.380   .     A
C656   H670    1.084   .     S
C656   C666    1.393   .     A
C657   C659    1.402   .     A
C657   H671    1.084   .     S
C658   H672    1.084   .     S
C658   C660    1.402   .     A
C659   C661    1.411   .     A
C660   C662    1.410   .     A
C661   Br693   1.925   .     S
C661   C663    1.383   .     A
C662   Br694   1.925   .     S
C662   C664    1.383   .     A
C663   H673    1.084   .     S
C663   C665    1.395   .     A
C664   H674    1.084   .     S
C664   C666    1.395   .     A
C666   C491    1.436   1_565 S
H667   C537    1.088   1_655 S
N681   Zn692   1.999   .     S
N682   Zn691   1.999   .     S
O683   Zn691   1.993   .     S
O684   Zn692   1.993   .     S
O685   Zn692   2.000   .     S
O686   Zn691   2.000   .     S
O687   Zn691   1.968   .     S
O688   Zn692   1.968   .     S
O689   Zn692   1.981   .     S
O690   Zn691   1.981   .     S
