data_str_m3_o1_o18_pcu_sym.148
_audit_creation_date              2020-01-03
_audit_creation_method            'Materials Studio'
_symmetry_space_group_name_H-M    'P1'
_symmetry_Int_Tables_number       1
_symmetry_cell_setting            triclinic
loop_
_symmetry_equiv_pos_as_xyz
  x,y,z
_cell_length_a                    29.6969
_cell_length_b                    31.7483
_cell_length_c                    30.9457
_cell_angle_alpha                 90.7186
_cell_angle_beta                  66.2408
_cell_angle_gamma                 90.7844
loop_
_atom_site_label
_atom_site_type_symbol
_atom_site_fract_x
_atom_site_fract_y
_atom_site_fract_z
_atom_site_U_iso_or_equiv
_atom_site_adp_type
_atom_site_occupancy
C1     C     0.16687   0.24653   0.25012   0.00000  Uiso   1.00
C2     C     0.16646   0.08680   0.24988   0.00000  Uiso   1.00
C3     C     0.11025   0.17656   0.05437   0.00000  Uiso   1.00
C4     C     0.22308   0.15677   0.44563   0.00000  Uiso   1.00
C5     C     0.07690   0.18837   0.03572   0.00000  Uiso   1.00
C6     C     0.25644   0.14496   0.46428   0.00000  Uiso   1.00
C7     C     0.15496   0.31225   0.29281   0.00000  Uiso   1.00
C8     C     0.17838   0.02109   0.20719   0.00000  Uiso   1.00
C9     C     0.15451   0.02222   0.29261   0.00000  Uiso   1.00
C10    C     0.17882   0.31111   0.20739   0.00000  Uiso   1.00
C11    C     0.16605   0.04270   0.24987   0.00000  Uiso   1.00
C12    C     0.16729   0.29063   0.25013   0.00000  Uiso   1.00
C13    C     0.31898   0.13671   0.22566   0.00000  Uiso   1.00
C14    C     0.01435   0.19662   0.27434   0.00000  Uiso   1.00
C15    C     0.03364   0.13689   0.22509   0.00000  Uiso   1.00
C16    C     0.29969   0.19644   0.27492   0.00000  Uiso   1.00
C17    C     0.13543   0.16748   0.33841   0.00000  Uiso   1.00
C18    C     0.19790   0.16585   0.16159   0.00000  Uiso   1.00
C19    C     0.11488   0.17137   0.39015   0.00000  Uiso   1.00
C20    C     0.21845   0.16196   0.10985   0.00000  Uiso   1.00
C21    C     0.05830   0.20037   0.46565   0.00000  Uiso   1.00
C22    C     0.27503   0.13296   0.03435   0.00000  Uiso   1.00
C23    C     0.07231   0.19475   0.41662   0.00000  Uiso   1.00
C24    C     0.26102   0.13858   0.08338   0.00000  Uiso   1.00
C25    C     0.14328   0.15539   0.41245   0.00000  Uiso   1.00
C26    C     0.19005   0.17795   0.08755   0.00000  Uiso   1.00
C27    C     0.13624   0.16911   0.45776   0.00000  Uiso   1.00
C28    C     0.19709   0.16422   0.04224   0.00000  Uiso   1.00
C29    C     0.09014   0.18679   0.48668   0.00000  Uiso   1.00
C30    C     0.24319   0.14654   0.01332   0.00000  Uiso   1.00
C31    C     0.17313   0.16423   0.47549   0.00000  Uiso   1.00
C32    C     0.16020   0.16910   0.02451   0.00000  Uiso   1.00
H33    H     0.14515   0.03976   0.32534   0.00000  Uiso   1.00
H34    H     0.18819   0.29358   0.17466   0.00000  Uiso   1.00
H35    H     0.30817   0.11244   0.20693   0.00000  Uiso   1.00
H36    H     0.02517   0.22089   0.29307   0.00000  Uiso   1.00
N37    N     0.04759   0.16668   0.25001   0.00000  Uiso   1.00
N38    N     0.28574   0.16666   0.24999   0.00000  Uiso   1.00
O39    O     0.12846   0.22775   0.25001   0.00000  Uiso   1.00
O40    O     0.20488   0.10558   0.25000   0.00000  Uiso   1.00
O41    O     0.20490   0.22774   0.25000   0.00000  Uiso   1.00
O42    O     0.12843   0.10559   0.25000   0.00000  Uiso   1.00
O43    O     0.10661   0.16667   0.31613   0.00000  Uiso   1.00
O44    O     0.22672   0.16666   0.18388   0.00000  Uiso   1.00
O45    O     0.18305   0.16666   0.31612   0.00000  Uiso   1.00
O46    O     0.15028   0.16667   0.18388   0.00000  Uiso   1.00
Zn47   Zn    0.11562   0.16667   0.25000   0.00000  Uiso   1.00
Zn48   Zn    0.21771   0.16666   0.25000   0.00000  Uiso   1.00
F49    F     0.03063   0.19826   0.06649   0.00000  Uiso   1.00
F50    F     0.30270   0.13507   0.43351   0.00000  Uiso   1.00
F51    F     0.15770   0.20925   0.10934   0.00000  Uiso   1.00
F52    F     0.17563   0.12408   0.39066   0.00000  Uiso   1.00
C53    C     0.29006   0.11959   0.10579   0.00000  Uiso   1.00
N54    N     0.31372   0.10406   0.12299   0.00000  Uiso   1.00
C55    C     0.04327   0.21374   0.39421   0.00000  Uiso   1.00
N56    N     0.01962   0.22927   0.37702   0.00000  Uiso   1.00
C57    C     0.01301   0.22242   0.49301   0.00000  Uiso   1.00
N58    N     0.31021   0.24001   0.01467   0.00000  Uiso   1.00
C59    C     0.32032   0.11091   0.00699   0.00000  Uiso   1.00
N60    N     0.02312   0.09332   0.48533   0.00000  Uiso   1.00
F61    F     0.09207   0.16965   0.10159   0.00000  Uiso   1.00
F62    F     0.24126   0.16368   0.39841   0.00000  Uiso   1.00
F63    F     0.14282   0.29143   0.33413   0.00000  Uiso   1.00
F64    F     0.19052   0.04190   0.16586   0.00000  Uiso   1.00
C65    C     0.06790   0.10580   0.19673   0.00000  Uiso   1.00
N66    N     0.09524   0.08075   0.17360   0.00000  Uiso   1.00
C67    C     0.26543   0.22753   0.30327   0.00000  Uiso   1.00
N68    N     0.23809   0.25257   0.32641   0.00000  Uiso   1.00
C69    C     0.50021   0.24653   0.25012   0.00000  Uiso   1.00
C70    C     0.49979   0.08680   0.24988   0.00000  Uiso   1.00
C71    C     0.44358   0.17656   0.05437   0.00000  Uiso   1.00
C72    C     0.55641   0.15677   0.44563   0.00000  Uiso   1.00
C73    C     0.41023   0.18837   0.03572   0.00000  Uiso   1.00
C74    C     0.58977   0.14496   0.46428   0.00000  Uiso   1.00
C75    C     0.48829   0.31225   0.29281   0.00000  Uiso   1.00
C76    C     0.51171   0.02109   0.20719   0.00000  Uiso   1.00
C77    C     0.48785   0.02222   0.29261   0.00000  Uiso   1.00
C78    C     0.51215   0.31111   0.20739   0.00000  Uiso   1.00
C79    C     0.49938   0.04270   0.24987   0.00000  Uiso   1.00
C80    C     0.50062   0.29063   0.25013   0.00000  Uiso   1.00
C81    C     0.65232   0.13671   0.22566   0.00000  Uiso   1.00
C82    C     0.34768   0.19662   0.27434   0.00000  Uiso   1.00
C83    C     0.36698   0.13689   0.22509   0.00000  Uiso   1.00
C84    C     0.63302   0.19644   0.27492   0.00000  Uiso   1.00
C85    C     0.46876   0.16748   0.33841   0.00000  Uiso   1.00
C86    C     0.53124   0.16585   0.16159   0.00000  Uiso   1.00
C87    C     0.44822   0.17137   0.39015   0.00000  Uiso   1.00
C88    C     0.55178   0.16196   0.10985   0.00000  Uiso   1.00
C89    C     0.39163   0.20037   0.46565   0.00000  Uiso   1.00
C90    C     0.60837   0.13296   0.03435   0.00000  Uiso   1.00
C91    C     0.40565   0.19475   0.41662   0.00000  Uiso   1.00
C92    C     0.59435   0.13858   0.08338   0.00000  Uiso   1.00
C93    C     0.47661   0.15539   0.41245   0.00000  Uiso   1.00
C94    C     0.52338   0.17795   0.08755   0.00000  Uiso   1.00
C95    C     0.46958   0.16911   0.45776   0.00000  Uiso   1.00
C96    C     0.53042   0.16422   0.04224   0.00000  Uiso   1.00
C97    C     0.42347   0.18679   0.48668   0.00000  Uiso   1.00
C98    C     0.57652   0.14654   0.01332   0.00000  Uiso   1.00
C99    C     0.50647   0.16423   0.47549   0.00000  Uiso   1.00
C100   C     0.49353   0.16910   0.02451   0.00000  Uiso   1.00
H101   H     0.47848   0.03976   0.32534   0.00000  Uiso   1.00
H102   H     0.52152   0.29358   0.17466   0.00000  Uiso   1.00
H103   H     0.64150   0.11244   0.20693   0.00000  Uiso   1.00
H104   H     0.35850   0.22089   0.29307   0.00000  Uiso   1.00
N105   N     0.38093   0.16668   0.25001   0.00000  Uiso   1.00
N106   N     0.61907   0.16666   0.24999   0.00000  Uiso   1.00
O107   O     0.46179   0.22775   0.25001   0.00000  Uiso   1.00
O108   O     0.53821   0.10558   0.25000   0.00000  Uiso   1.00
O109   O     0.53823   0.22774   0.25000   0.00000  Uiso   1.00
O110   O     0.46177   0.10559   0.25000   0.00000  Uiso   1.00
O111   O     0.43994   0.16667   0.31613   0.00000  Uiso   1.00
O112   O     0.56006   0.16666   0.18388   0.00000  Uiso   1.00
O113   O     0.51639   0.16666   0.31612   0.00000  Uiso   1.00
O114   O     0.48361   0.16667   0.18388   0.00000  Uiso   1.00
Zn115  Zn    0.44896   0.16667   0.25000   0.00000  Uiso   1.00
Zn116  Zn    0.55104   0.16666   0.25000   0.00000  Uiso   1.00
F117   F     0.36396   0.19826   0.06649   0.00000  Uiso   1.00
F118   F     0.63604   0.13507   0.43351   0.00000  Uiso   1.00
F119   F     0.49103   0.20925   0.10934   0.00000  Uiso   1.00
F120   F     0.50896   0.12408   0.39066   0.00000  Uiso   1.00
C121   C     0.62339   0.11959   0.10579   0.00000  Uiso   1.00
N122   N     0.64705   0.10406   0.12299   0.00000  Uiso   1.00
C123   C     0.37661   0.21374   0.39421   0.00000  Uiso   1.00
N124   N     0.35295   0.22927   0.37702   0.00000  Uiso   1.00
C125   C     0.34634   0.22242   0.49301   0.00000  Uiso   1.00
N126   N     0.64355   0.24001   0.01467   0.00000  Uiso   1.00
C127   C     0.65366   0.11091   0.00699   0.00000  Uiso   1.00
N128   N     0.35645   0.09332   0.48533   0.00000  Uiso   1.00
F129   F     0.42540   0.16965   0.10159   0.00000  Uiso   1.00
F130   F     0.57460   0.16368   0.39841   0.00000  Uiso   1.00
F131   F     0.47615   0.29143   0.33413   0.00000  Uiso   1.00
F132   F     0.52385   0.04190   0.16586   0.00000  Uiso   1.00
C133   C     0.40124   0.10580   0.19673   0.00000  Uiso   1.00
N134   N     0.42857   0.08075   0.17360   0.00000  Uiso   1.00
C135   C     0.59876   0.22753   0.30327   0.00000  Uiso   1.00
N136   N     0.57143   0.25257   0.32641   0.00000  Uiso   1.00
C137   C     0.83354   0.24653   0.25012   0.00000  Uiso   1.00
C138   C     0.83313   0.08680   0.24988   0.00000  Uiso   1.00
C139   C     0.77692   0.17656   0.05437   0.00000  Uiso   1.00
C140   C     0.88975   0.15677   0.44563   0.00000  Uiso   1.00
C141   C     0.74356   0.18837   0.03572   0.00000  Uiso   1.00
C142   C     0.92310   0.14496   0.46428   0.00000  Uiso   1.00
C143   C     0.82162   0.31225   0.29281   0.00000  Uiso   1.00
C144   C     0.84504   0.02109   0.20719   0.00000  Uiso   1.00
C145   C     0.82118   0.02222   0.29261   0.00000  Uiso   1.00
C146   C     0.84549   0.31111   0.20739   0.00000  Uiso   1.00
C147   C     0.83271   0.04270   0.24987   0.00000  Uiso   1.00
C148   C     0.83395   0.29063   0.25013   0.00000  Uiso   1.00
C149   C     0.98565   0.13671   0.22566   0.00000  Uiso   1.00
C150   C     0.68102   0.19662   0.27434   0.00000  Uiso   1.00
C151   C     0.70031   0.13689   0.22509   0.00000  Uiso   1.00
C152   C     0.96636   0.19644   0.27492   0.00000  Uiso   1.00
C153   C     0.80210   0.16748   0.33841   0.00000  Uiso   1.00
C154   C     0.86457   0.16585   0.16159   0.00000  Uiso   1.00
C155   C     0.78155   0.17137   0.39015   0.00000  Uiso   1.00
C156   C     0.88511   0.16196   0.10985   0.00000  Uiso   1.00
C157   C     0.72496   0.20037   0.46565   0.00000  Uiso   1.00
C158   C     0.94170   0.13296   0.03435   0.00000  Uiso   1.00
C159   C     0.73898   0.19475   0.41662   0.00000  Uiso   1.00
C160   C     0.92769   0.13858   0.08338   0.00000  Uiso   1.00
C161   C     0.80995   0.15539   0.41245   0.00000  Uiso   1.00
C162   C     0.85672   0.17795   0.08755   0.00000  Uiso   1.00
C163   C     0.80291   0.16911   0.45776   0.00000  Uiso   1.00
C164   C     0.86376   0.16422   0.04224   0.00000  Uiso   1.00
C165   C     0.75681   0.18679   0.48668   0.00000  Uiso   1.00
C166   C     0.90986   0.14654   0.01332   0.00000  Uiso   1.00
C167   C     0.83980   0.16423   0.47549   0.00000  Uiso   1.00
C168   C     0.82687   0.16910   0.02451   0.00000  Uiso   1.00
H169   H     0.81181   0.03976   0.32534   0.00000  Uiso   1.00
H170   H     0.85485   0.29358   0.17466   0.00000  Uiso   1.00
H171   H     0.97483   0.11244   0.20693   0.00000  Uiso   1.00
H172   H     0.69183   0.22089   0.29307   0.00000  Uiso   1.00
N173   N     0.71426   0.16668   0.25001   0.00000  Uiso   1.00
N174   N     0.95241   0.16666   0.24999   0.00000  Uiso   1.00
O175   O     0.79512   0.22775   0.25001   0.00000  Uiso   1.00
O176   O     0.87154   0.10558   0.25000   0.00000  Uiso   1.00
O177   O     0.87157   0.22774   0.25000   0.00000  Uiso   1.00
O178   O     0.79510   0.10559   0.25000   0.00000  Uiso   1.00
O179   O     0.77328   0.16667   0.31613   0.00000  Uiso   1.00
O180   O     0.89339   0.16666   0.18388   0.00000  Uiso   1.00
O181   O     0.84972   0.16666   0.31612   0.00000  Uiso   1.00
O182   O     0.81695   0.16667   0.18388   0.00000  Uiso   1.00
Zn183  Zn    0.78229   0.16667   0.25000   0.00000  Uiso   1.00
Zn184  Zn    0.88438   0.16666   0.25000   0.00000  Uiso   1.00
F185   F     0.69729   0.19826   0.06649   0.00000  Uiso   1.00
F186   F     0.96937   0.13507   0.43351   0.00000  Uiso   1.00
F187   F     0.82437   0.20925   0.10934   0.00000  Uiso   1.00
F188   F     0.84230   0.12408   0.39066   0.00000  Uiso   1.00
C189   C     0.95673   0.11959   0.10579   0.00000  Uiso   1.00
N190   N     0.98039   0.10406   0.12299   0.00000  Uiso   1.00
C191   C     0.70994   0.21374   0.39421   0.00000  Uiso   1.00
N192   N     0.68628   0.22927   0.37702   0.00000  Uiso   1.00
C193   C     0.67968   0.22242   0.49301   0.00000  Uiso   1.00
N194   N     0.97688   0.24001   0.01467   0.00000  Uiso   1.00
C195   C     0.98699   0.11091   0.00699   0.00000  Uiso   1.00
N196   N     0.68979   0.09332   0.48533   0.00000  Uiso   1.00
F197   F     0.75874   0.16965   0.10159   0.00000  Uiso   1.00
F198   F     0.90793   0.16368   0.39841   0.00000  Uiso   1.00
F199   F     0.80948   0.29143   0.33413   0.00000  Uiso   1.00
F200   F     0.85719   0.04190   0.16586   0.00000  Uiso   1.00
C201   C     0.73457   0.10580   0.19673   0.00000  Uiso   1.00
N202   N     0.76190   0.08075   0.17360   0.00000  Uiso   1.00
C203   C     0.93210   0.22753   0.30327   0.00000  Uiso   1.00
N204   N     0.90476   0.25257   0.32641   0.00000  Uiso   1.00
C205   C     0.16687   0.57987   0.25012   0.00000  Uiso   1.00
C206   C     0.16646   0.42013   0.24988   0.00000  Uiso   1.00
C207   C     0.11025   0.50989   0.05437   0.00000  Uiso   1.00
C208   C     0.22308   0.49010   0.44563   0.00000  Uiso   1.00
C209   C     0.07690   0.52170   0.03572   0.00000  Uiso   1.00
C210   C     0.25644   0.47829   0.46428   0.00000  Uiso   1.00
C211   C     0.15496   0.64558   0.29281   0.00000  Uiso   1.00
C212   C     0.17838   0.35442   0.20719   0.00000  Uiso   1.00
C213   C     0.15451   0.35556   0.29261   0.00000  Uiso   1.00
C214   C     0.17882   0.64444   0.20739   0.00000  Uiso   1.00
C215   C     0.16605   0.37604   0.24987   0.00000  Uiso   1.00
C216   C     0.16729   0.62396   0.25013   0.00000  Uiso   1.00
C217   C     0.31898   0.47005   0.22566   0.00000  Uiso   1.00
C218   C     0.01435   0.52995   0.27434   0.00000  Uiso   1.00
C219   C     0.03364   0.47022   0.22509   0.00000  Uiso   1.00
C220   C     0.29969   0.52978   0.27492   0.00000  Uiso   1.00
C221   C     0.13543   0.50082   0.33841   0.00000  Uiso   1.00
C222   C     0.19790   0.49918   0.16159   0.00000  Uiso   1.00
C223   C     0.11488   0.50470   0.39015   0.00000  Uiso   1.00
C224   C     0.21845   0.49530   0.10985   0.00000  Uiso   1.00
C225   C     0.05830   0.53370   0.46565   0.00000  Uiso   1.00
C226   C     0.27503   0.46630   0.03435   0.00000  Uiso   1.00
C227   C     0.07231   0.52808   0.41662   0.00000  Uiso   1.00
C228   C     0.26102   0.47192   0.08338   0.00000  Uiso   1.00
C229   C     0.14328   0.48872   0.41245   0.00000  Uiso   1.00
C230   C     0.19005   0.51128   0.08755   0.00000  Uiso   1.00
C231   C     0.13624   0.50244   0.45776   0.00000  Uiso   1.00
C232   C     0.19709   0.49755   0.04224   0.00000  Uiso   1.00
C233   C     0.09014   0.52013   0.48668   0.00000  Uiso   1.00
C234   C     0.24319   0.47987   0.01332   0.00000  Uiso   1.00
C235   C     0.17313   0.49756   0.47549   0.00000  Uiso   1.00
C236   C     0.16020   0.50243   0.02451   0.00000  Uiso   1.00
H237   H     0.14515   0.37309   0.32534   0.00000  Uiso   1.00
H238   H     0.18819   0.62691   0.17466   0.00000  Uiso   1.00
H239   H     0.30817   0.44577   0.20693   0.00000  Uiso   1.00
H240   H     0.02517   0.55423   0.29307   0.00000  Uiso   1.00
N241   N     0.04759   0.50001   0.25001   0.00000  Uiso   1.00
N242   N     0.28574   0.49999   0.24999   0.00000  Uiso   1.00
O243   O     0.12846   0.56108   0.25001   0.00000  Uiso   1.00
O244   O     0.20488   0.43892   0.25000   0.00000  Uiso   1.00
O245   O     0.20490   0.56107   0.25000   0.00000  Uiso   1.00
O246   O     0.12843   0.43893   0.25000   0.00000  Uiso   1.00
O247   O     0.10661   0.50001   0.31613   0.00000  Uiso   1.00
O248   O     0.22672   0.49999   0.18388   0.00000  Uiso   1.00
O249   O     0.18305   0.50000   0.31612   0.00000  Uiso   1.00
O250   O     0.15028   0.50000   0.18388   0.00000  Uiso   1.00
Zn251  Zn    0.11562   0.50001   0.25000   0.00000  Uiso   1.00
Zn252  Zn    0.21771   0.49999   0.25000   0.00000  Uiso   1.00
F253   F     0.03063   0.53159   0.06649   0.00000  Uiso   1.00
F254   F     0.30270   0.46840   0.43351   0.00000  Uiso   1.00
F255   F     0.15770   0.54258   0.10934   0.00000  Uiso   1.00
F256   F     0.17563   0.45741   0.39066   0.00000  Uiso   1.00
C257   C     0.29006   0.45292   0.10579   0.00000  Uiso   1.00
N258   N     0.31372   0.43739   0.12299   0.00000  Uiso   1.00
C259   C     0.04327   0.54708   0.39421   0.00000  Uiso   1.00
N260   N     0.01962   0.56260   0.37702   0.00000  Uiso   1.00
C261   C     0.01301   0.55575   0.49301   0.00000  Uiso   1.00
N262   N     0.31021   0.57334   0.01467   0.00000  Uiso   1.00
C263   C     0.32032   0.44424   0.00699   0.00000  Uiso   1.00
N264   N     0.02312   0.42665   0.48533   0.00000  Uiso   1.00
F265   F     0.09207   0.50298   0.10159   0.00000  Uiso   1.00
F266   F     0.24126   0.49701   0.39841   0.00000  Uiso   1.00
F267   F     0.14282   0.62477   0.33413   0.00000  Uiso   1.00
F268   F     0.19052   0.37523   0.16586   0.00000  Uiso   1.00
C269   C     0.06790   0.43914   0.19673   0.00000  Uiso   1.00
N270   N     0.09524   0.41409   0.17360   0.00000  Uiso   1.00
C271   C     0.26543   0.56086   0.30327   0.00000  Uiso   1.00
N272   N     0.23809   0.58590   0.32641   0.00000  Uiso   1.00
C273   C     0.50021   0.57987   0.25012   0.00000  Uiso   1.00
C274   C     0.49979   0.42013   0.24988   0.00000  Uiso   1.00
C275   C     0.44358   0.50989   0.05437   0.00000  Uiso   1.00
C276   C     0.55641   0.49010   0.44563   0.00000  Uiso   1.00
C277   C     0.41023   0.52170   0.03572   0.00000  Uiso   1.00
C278   C     0.58977   0.47829   0.46428   0.00000  Uiso   1.00
C279   C     0.48829   0.64558   0.29281   0.00000  Uiso   1.00
C280   C     0.51171   0.35442   0.20719   0.00000  Uiso   1.00
C281   C     0.48785   0.35556   0.29261   0.00000  Uiso   1.00
C282   C     0.51215   0.64444   0.20739   0.00000  Uiso   1.00
C283   C     0.49938   0.37604   0.24987   0.00000  Uiso   1.00
C284   C     0.50062   0.62396   0.25013   0.00000  Uiso   1.00
C285   C     0.65232   0.47005   0.22566   0.00000  Uiso   1.00
C286   C     0.34768   0.52995   0.27434   0.00000  Uiso   1.00
C287   C     0.36698   0.47022   0.22509   0.00000  Uiso   1.00
C288   C     0.63302   0.52978   0.27492   0.00000  Uiso   1.00
C289   C     0.46876   0.50082   0.33841   0.00000  Uiso   1.00
C290   C     0.53124   0.49918   0.16159   0.00000  Uiso   1.00
C291   C     0.44822   0.50470   0.39015   0.00000  Uiso   1.00
C292   C     0.55178   0.49530   0.10985   0.00000  Uiso   1.00
C293   C     0.39163   0.53370   0.46565   0.00000  Uiso   1.00
C294   C     0.60837   0.46630   0.03435   0.00000  Uiso   1.00
C295   C     0.40565   0.52808   0.41662   0.00000  Uiso   1.00
C296   C     0.59435   0.47192   0.08338   0.00000  Uiso   1.00
C297   C     0.47661   0.48872   0.41245   0.00000  Uiso   1.00
C298   C     0.52338   0.51128   0.08755   0.00000  Uiso   1.00
C299   C     0.46958   0.50244   0.45776   0.00000  Uiso   1.00
C300   C     0.53042   0.49755   0.04224   0.00000  Uiso   1.00
C301   C     0.42347   0.52013   0.48668   0.00000  Uiso   1.00
C302   C     0.57652   0.47987   0.01332   0.00000  Uiso   1.00
C303   C     0.50647   0.49756   0.47549   0.00000  Uiso   1.00
C304   C     0.49353   0.50243   0.02451   0.00000  Uiso   1.00
H305   H     0.47848   0.37309   0.32534   0.00000  Uiso   1.00
H306   H     0.52152   0.62691   0.17466   0.00000  Uiso   1.00
H307   H     0.64150   0.44577   0.20693   0.00000  Uiso   1.00
H308   H     0.35850   0.55423   0.29307   0.00000  Uiso   1.00
N309   N     0.38093   0.50001   0.25001   0.00000  Uiso   1.00
N310   N     0.61907   0.49999   0.24999   0.00000  Uiso   1.00
O311   O     0.46179   0.56108   0.25001   0.00000  Uiso   1.00
O312   O     0.53821   0.43892   0.25000   0.00000  Uiso   1.00
O313   O     0.53823   0.56107   0.25000   0.00000  Uiso   1.00
O314   O     0.46177   0.43893   0.25000   0.00000  Uiso   1.00
O315   O     0.43994   0.50001   0.31613   0.00000  Uiso   1.00
O316   O     0.56006   0.49999   0.18388   0.00000  Uiso   1.00
O317   O     0.51639   0.50000   0.31612   0.00000  Uiso   1.00
O318   O     0.48361   0.50000   0.18388   0.00000  Uiso   1.00
Zn319  Zn    0.44896   0.50001   0.25000   0.00000  Uiso   1.00
Zn320  Zn    0.55104   0.49999   0.25000   0.00000  Uiso   1.00
F321   F     0.36396   0.53159   0.06649   0.00000  Uiso   1.00
F322   F     0.63604   0.46840   0.43351   0.00000  Uiso   1.00
F323   F     0.49103   0.54258   0.10934   0.00000  Uiso   1.00
F324   F     0.50896   0.45741   0.39066   0.00000  Uiso   1.00
C325   C     0.62339   0.45292   0.10579   0.00000  Uiso   1.00
N326   N     0.64705   0.43739   0.12299   0.00000  Uiso   1.00
C327   C     0.37661   0.54708   0.39421   0.00000  Uiso   1.00
N328   N     0.35295   0.56260   0.37702   0.00000  Uiso   1.00
C329   C     0.34634   0.55575   0.49301   0.00000  Uiso   1.00
N330   N     0.64355   0.57334   0.01467   0.00000  Uiso   1.00
C331   C     0.65366   0.44424   0.00699   0.00000  Uiso   1.00
N332   N     0.35645   0.42665   0.48533   0.00000  Uiso   1.00
F333   F     0.42540   0.50298   0.10159   0.00000  Uiso   1.00
F334   F     0.57460   0.49701   0.39841   0.00000  Uiso   1.00
F335   F     0.47615   0.62477   0.33413   0.00000  Uiso   1.00
F336   F     0.52385   0.37523   0.16586   0.00000  Uiso   1.00
C337   C     0.40124   0.43914   0.19673   0.00000  Uiso   1.00
N338   N     0.42857   0.41409   0.17360   0.00000  Uiso   1.00
C339   C     0.59876   0.56086   0.30327   0.00000  Uiso   1.00
N340   N     0.57143   0.58590   0.32641   0.00000  Uiso   1.00
C341   C     0.83354   0.57987   0.25012   0.00000  Uiso   1.00
C342   C     0.83313   0.42013   0.24988   0.00000  Uiso   1.00
C343   C     0.77692   0.50989   0.05437   0.00000  Uiso   1.00
C344   C     0.88975   0.49010   0.44563   0.00000  Uiso   1.00
C345   C     0.74356   0.52170   0.03572   0.00000  Uiso   1.00
C346   C     0.92310   0.47829   0.46428   0.00000  Uiso   1.00
C347   C     0.82162   0.64558   0.29281   0.00000  Uiso   1.00
C348   C     0.84504   0.35442   0.20719   0.00000  Uiso   1.00
C349   C     0.82118   0.35556   0.29261   0.00000  Uiso   1.00
C350   C     0.84549   0.64444   0.20739   0.00000  Uiso   1.00
C351   C     0.83271   0.37604   0.24987   0.00000  Uiso   1.00
C352   C     0.83395   0.62396   0.25013   0.00000  Uiso   1.00
C353   C     0.98565   0.47005   0.22566   0.00000  Uiso   1.00
C354   C     0.68102   0.52995   0.27434   0.00000  Uiso   1.00
C355   C     0.70031   0.47022   0.22509   0.00000  Uiso   1.00
C356   C     0.96636   0.52978   0.27492   0.00000  Uiso   1.00
C357   C     0.80210   0.50082   0.33841   0.00000  Uiso   1.00
C358   C     0.86457   0.49918   0.16159   0.00000  Uiso   1.00
C359   C     0.78155   0.50470   0.39015   0.00000  Uiso   1.00
C360   C     0.88511   0.49530   0.10985   0.00000  Uiso   1.00
C361   C     0.72496   0.53370   0.46565   0.00000  Uiso   1.00
C362   C     0.94170   0.46630   0.03435   0.00000  Uiso   1.00
C363   C     0.73898   0.52808   0.41662   0.00000  Uiso   1.00
C364   C     0.92769   0.47192   0.08338   0.00000  Uiso   1.00
C365   C     0.80995   0.48872   0.41245   0.00000  Uiso   1.00
C366   C     0.85672   0.51128   0.08755   0.00000  Uiso   1.00
C367   C     0.80291   0.50244   0.45776   0.00000  Uiso   1.00
C368   C     0.86376   0.49755   0.04224   0.00000  Uiso   1.00
C369   C     0.75681   0.52013   0.48668   0.00000  Uiso   1.00
C370   C     0.90986   0.47987   0.01332   0.00000  Uiso   1.00
C371   C     0.83980   0.49756   0.47549   0.00000  Uiso   1.00
C372   C     0.82687   0.50243   0.02451   0.00000  Uiso   1.00
H373   H     0.81181   0.37309   0.32534   0.00000  Uiso   1.00
H374   H     0.85485   0.62691   0.17466   0.00000  Uiso   1.00
H375   H     0.97483   0.44577   0.20693   0.00000  Uiso   1.00
H376   H     0.69183   0.55423   0.29307   0.00000  Uiso   1.00
N377   N     0.71426   0.50001   0.25001   0.00000  Uiso   1.00
N378   N     0.95241   0.49999   0.24999   0.00000  Uiso   1.00
O379   O     0.79512   0.56108   0.25001   0.00000  Uiso   1.00
O380   O     0.87154   0.43892   0.25000   0.00000  Uiso   1.00
O381   O     0.87157   0.56107   0.25000   0.00000  Uiso   1.00
O382   O     0.79510   0.43893   0.25000   0.00000  Uiso   1.00
O383   O     0.77328   0.50001   0.31613   0.00000  Uiso   1.00
O384   O     0.89339   0.49999   0.18388   0.00000  Uiso   1.00
O385   O     0.84972   0.50000   0.31612   0.00000  Uiso   1.00
O386   O     0.81695   0.50000   0.18388   0.00000  Uiso   1.00
Zn387  Zn    0.78229   0.50001   0.25000   0.00000  Uiso   1.00
Zn388  Zn    0.88438   0.49999   0.25000   0.00000  Uiso   1.00
F389   F     0.69729   0.53159   0.06649   0.00000  Uiso   1.00
F390   F     0.96937   0.46840   0.43351   0.00000  Uiso   1.00
F391   F     0.82437   0.54258   0.10934   0.00000  Uiso   1.00
F392   F     0.84230   0.45741   0.39066   0.00000  Uiso   1.00
C393   C     0.95673   0.45292   0.10579   0.00000  Uiso   1.00
N394   N     0.98039   0.43739   0.12299   0.00000  Uiso   1.00
C395   C     0.70994   0.54708   0.39421   0.00000  Uiso   1.00
N396   N     0.68628   0.56260   0.37702   0.00000  Uiso   1.00
C397   C     0.67968   0.55575   0.49301   0.00000  Uiso   1.00
N398   N     0.97688   0.57334   0.01467   0.00000  Uiso   1.00
C399   C     0.98699   0.44424   0.00699   0.00000  Uiso   1.00
N400   N     0.68979   0.42665   0.48533   0.00000  Uiso   1.00
F401   F     0.75874   0.50298   0.10159   0.00000  Uiso   1.00
F402   F     0.90793   0.49701   0.39841   0.00000  Uiso   1.00
F403   F     0.80948   0.62477   0.33413   0.00000  Uiso   1.00
F404   F     0.85719   0.37523   0.16586   0.00000  Uiso   1.00
C405   C     0.73457   0.43914   0.19673   0.00000  Uiso   1.00
N406   N     0.76190   0.41409   0.17360   0.00000  Uiso   1.00
C407   C     0.93210   0.56086   0.30327   0.00000  Uiso   1.00
N408   N     0.90476   0.58590   0.32641   0.00000  Uiso   1.00
C409   C     0.16687   0.91320   0.25012   0.00000  Uiso   1.00
C410   C     0.16646   0.75347   0.24988   0.00000  Uiso   1.00
C411   C     0.11025   0.84323   0.05437   0.00000  Uiso   1.00
C412   C     0.22308   0.82343   0.44563   0.00000  Uiso   1.00
C413   C     0.07690   0.85504   0.03572   0.00000  Uiso   1.00
C414   C     0.25644   0.81163   0.46428   0.00000  Uiso   1.00
C415   C     0.15496   0.97891   0.29281   0.00000  Uiso   1.00
C416   C     0.17838   0.68775   0.20719   0.00000  Uiso   1.00
C417   C     0.15451   0.68889   0.29261   0.00000  Uiso   1.00
C418   C     0.17882   0.97778   0.20739   0.00000  Uiso   1.00
C419   C     0.16605   0.70937   0.24987   0.00000  Uiso   1.00
C420   C     0.16729   0.95730   0.25013   0.00000  Uiso   1.00
C421   C     0.31898   0.80338   0.22566   0.00000  Uiso   1.00
C422   C     0.01435   0.86329   0.27434   0.00000  Uiso   1.00
C423   C     0.03364   0.80356   0.22509   0.00000  Uiso   1.00
C424   C     0.29969   0.86311   0.27492   0.00000  Uiso   1.00
C425   C     0.13543   0.83415   0.33841   0.00000  Uiso   1.00
C426   C     0.19790   0.83252   0.16159   0.00000  Uiso   1.00
C427   C     0.11488   0.83803   0.39015   0.00000  Uiso   1.00
C428   C     0.21845   0.82863   0.10985   0.00000  Uiso   1.00
C429   C     0.05830   0.86703   0.46565   0.00000  Uiso   1.00
C430   C     0.27503   0.79963   0.03435   0.00000  Uiso   1.00
C431   C     0.07231   0.86141   0.41662   0.00000  Uiso   1.00
C432   C     0.26102   0.80525   0.08338   0.00000  Uiso   1.00
C433   C     0.14328   0.82205   0.41245   0.00000  Uiso   1.00
C434   C     0.19005   0.84461   0.08755   0.00000  Uiso   1.00
C435   C     0.13624   0.83578   0.45776   0.00000  Uiso   1.00
C436   C     0.19709   0.83089   0.04224   0.00000  Uiso   1.00
C437   C     0.09014   0.85346   0.48668   0.00000  Uiso   1.00
C438   C     0.24319   0.81320   0.01332   0.00000  Uiso   1.00
C439   C     0.17313   0.83090   0.47549   0.00000  Uiso   1.00
C440   C     0.16020   0.83576   0.02451   0.00000  Uiso   1.00
H441   H     0.14515   0.70642   0.32534   0.00000  Uiso   1.00
H442   H     0.18819   0.96024   0.17466   0.00000  Uiso   1.00
H443   H     0.30817   0.77911   0.20693   0.00000  Uiso   1.00
H444   H     0.02517   0.88756   0.29307   0.00000  Uiso   1.00
N445   N     0.04759   0.83334   0.25001   0.00000  Uiso   1.00
N446   N     0.28574   0.83332   0.24999   0.00000  Uiso   1.00
O447   O     0.12846   0.89442   0.25001   0.00000  Uiso   1.00
O448   O     0.20488   0.77225   0.25000   0.00000  Uiso   1.00
O449   O     0.20490   0.89441   0.25000   0.00000  Uiso   1.00
O450   O     0.12843   0.77226   0.25000   0.00000  Uiso   1.00
O451   O     0.10661   0.83334   0.31613   0.00000  Uiso   1.00
O452   O     0.22672   0.83333   0.18388   0.00000  Uiso   1.00
O453   O     0.18305   0.83333   0.31612   0.00000  Uiso   1.00
O454   O     0.15028   0.83334   0.18388   0.00000  Uiso   1.00
Zn455  Zn    0.11562   0.83334   0.25000   0.00000  Uiso   1.00
Zn456  Zn    0.21771   0.83333   0.25000   0.00000  Uiso   1.00
F457   F     0.03063   0.86492   0.06649   0.00000  Uiso   1.00
F458   F     0.30270   0.80173   0.43351   0.00000  Uiso   1.00
F459   F     0.15770   0.87592   0.10934   0.00000  Uiso   1.00
F460   F     0.17563   0.79075   0.39066   0.00000  Uiso   1.00
C461   C     0.29006   0.78625   0.10579   0.00000  Uiso   1.00
N462   N     0.31372   0.77073   0.12299   0.00000  Uiso   1.00
C463   C     0.04327   0.88041   0.39421   0.00000  Uiso   1.00
N464   N     0.01962   0.89594   0.37702   0.00000  Uiso   1.00
C465   C     0.01301   0.88909   0.49301   0.00000  Uiso   1.00
N466   N     0.31021   0.90668   0.01467   0.00000  Uiso   1.00
C467   C     0.32032   0.77758   0.00699   0.00000  Uiso   1.00
N468   N     0.02312   0.75999   0.48533   0.00000  Uiso   1.00
F469   F     0.09207   0.83631   0.10159   0.00000  Uiso   1.00
F470   F     0.24126   0.83035   0.39841   0.00000  Uiso   1.00
F471   F     0.14282   0.95810   0.33413   0.00000  Uiso   1.00
F472   F     0.19052   0.70857   0.16586   0.00000  Uiso   1.00
C473   C     0.06790   0.77247   0.19673   0.00000  Uiso   1.00
N474   N     0.09524   0.74742   0.17360   0.00000  Uiso   1.00
C475   C     0.26543   0.89419   0.30327   0.00000  Uiso   1.00
N476   N     0.23809   0.91924   0.32641   0.00000  Uiso   1.00
C477   C     0.50021   0.91320   0.25012   0.00000  Uiso   1.00
C478   C     0.49979   0.75347   0.24988   0.00000  Uiso   1.00
C479   C     0.44358   0.84323   0.05437   0.00000  Uiso   1.00
C480   C     0.55641   0.82343   0.44563   0.00000  Uiso   1.00
C481   C     0.41023   0.85504   0.03572   0.00000  Uiso   1.00
C482   C     0.58977   0.81163   0.46428   0.00000  Uiso   1.00
C483   C     0.48829   0.97891   0.29281   0.00000  Uiso   1.00
C484   C     0.51171   0.68775   0.20719   0.00000  Uiso   1.00
C485   C     0.48785   0.68889   0.29261   0.00000  Uiso   1.00
C486   C     0.51215   0.97778   0.20739   0.00000  Uiso   1.00
C487   C     0.49938   0.70937   0.24987   0.00000  Uiso   1.00
C488   C     0.50062   0.95730   0.25013   0.00000  Uiso   1.00
C489   C     0.65232   0.80338   0.22566   0.00000  Uiso   1.00
C490   C     0.34768   0.86329   0.27434   0.00000  Uiso   1.00
C491   C     0.36698   0.80356   0.22509   0.00000  Uiso   1.00
C492   C     0.63302   0.86311   0.27492   0.00000  Uiso   1.00
C493   C     0.46876   0.83415   0.33841   0.00000  Uiso   1.00
C494   C     0.53124   0.83252   0.16159   0.00000  Uiso   1.00
C495   C     0.44822   0.83803   0.39015   0.00000  Uiso   1.00
C496   C     0.55178   0.82863   0.10985   0.00000  Uiso   1.00
C497   C     0.39163   0.86703   0.46565   0.00000  Uiso   1.00
C498   C     0.60837   0.79963   0.03435   0.00000  Uiso   1.00
C499   C     0.40565   0.86141   0.41662   0.00000  Uiso   1.00
C500   C     0.59435   0.80525   0.08338   0.00000  Uiso   1.00
C501   C     0.47661   0.82205   0.41245   0.00000  Uiso   1.00
C502   C     0.52338   0.84461   0.08755   0.00000  Uiso   1.00
C503   C     0.46958   0.83578   0.45776   0.00000  Uiso   1.00
C504   C     0.53042   0.83089   0.04224   0.00000  Uiso   1.00
C505   C     0.42347   0.85346   0.48668   0.00000  Uiso   1.00
C506   C     0.57652   0.81320   0.01332   0.00000  Uiso   1.00
C507   C     0.50647   0.83090   0.47549   0.00000  Uiso   1.00
C508   C     0.49353   0.83576   0.02451   0.00000  Uiso   1.00
H509   H     0.47848   0.70642   0.32534   0.00000  Uiso   1.00
H510   H     0.52152   0.96024   0.17466   0.00000  Uiso   1.00
H511   H     0.64150   0.77911   0.20693   0.00000  Uiso   1.00
H512   H     0.35850   0.88756   0.29307   0.00000  Uiso   1.00
N513   N     0.38093   0.83334   0.25001   0.00000  Uiso   1.00
N514   N     0.61907   0.83332   0.24999   0.00000  Uiso   1.00
O515   O     0.46179   0.89442   0.25001   0.00000  Uiso   1.00
O516   O     0.53821   0.77225   0.25000   0.00000  Uiso   1.00
O517   O     0.53823   0.89441   0.25000   0.00000  Uiso   1.00
O518   O     0.46177   0.77226   0.25000   0.00000  Uiso   1.00
O519   O     0.43994   0.83334   0.31613   0.00000  Uiso   1.00
O520   O     0.56006   0.83333   0.18388   0.00000  Uiso   1.00
O521   O     0.51639   0.83333   0.31612   0.00000  Uiso   1.00
O522   O     0.48361   0.83334   0.18388   0.00000  Uiso   1.00
Zn523  Zn    0.44896   0.83334   0.25000   0.00000  Uiso   1.00
Zn524  Zn    0.55104   0.83333   0.25000   0.00000  Uiso   1.00
F525   F     0.36396   0.86492   0.06649   0.00000  Uiso   1.00
F526   F     0.63604   0.80173   0.43351   0.00000  Uiso   1.00
F527   F     0.49103   0.87592   0.10934   0.00000  Uiso   1.00
F528   F     0.50896   0.79075   0.39066   0.00000  Uiso   1.00
C529   C     0.62339   0.78625   0.10579   0.00000  Uiso   1.00
N530   N     0.64705   0.77073   0.12299   0.00000  Uiso   1.00
C531   C     0.37661   0.88041   0.39421   0.00000  Uiso   1.00
N532   N     0.35295   0.89594   0.37702   0.00000  Uiso   1.00
C533   C     0.34634   0.88909   0.49301   0.00000  Uiso   1.00
N534   N     0.64355   0.90668   0.01467   0.00000  Uiso   1.00
C535   C     0.65366   0.77758   0.00699   0.00000  Uiso   1.00
N536   N     0.35645   0.75999   0.48533   0.00000  Uiso   1.00
F537   F     0.42540   0.83631   0.10159   0.00000  Uiso   1.00
F538   F     0.57460   0.83035   0.39841   0.00000  Uiso   1.00
F539   F     0.47615   0.95810   0.33413   0.00000  Uiso   1.00
F540   F     0.52385   0.70857   0.16586   0.00000  Uiso   1.00
C541   C     0.40124   0.77247   0.19673   0.00000  Uiso   1.00
N542   N     0.42857   0.74742   0.17360   0.00000  Uiso   1.00
C543   C     0.59876   0.89419   0.30327   0.00000  Uiso   1.00
N544   N     0.57143   0.91924   0.32641   0.00000  Uiso   1.00
C545   C     0.83354   0.91320   0.25012   0.00000  Uiso   1.00
C546   C     0.83313   0.75347   0.24988   0.00000  Uiso   1.00
C547   C     0.77692   0.84323   0.05437   0.00000  Uiso   1.00
C548   C     0.88975   0.82343   0.44563   0.00000  Uiso   1.00
C549   C     0.74356   0.85504   0.03572   0.00000  Uiso   1.00
C550   C     0.92310   0.81163   0.46428   0.00000  Uiso   1.00
C551   C     0.82162   0.97891   0.29281   0.00000  Uiso   1.00
C552   C     0.84504   0.68775   0.20719   0.00000  Uiso   1.00
C553   C     0.82118   0.68889   0.29261   0.00000  Uiso   1.00
C554   C     0.84549   0.97778   0.20739   0.00000  Uiso   1.00
C555   C     0.83271   0.70937   0.24987   0.00000  Uiso   1.00
C556   C     0.83395   0.95730   0.25013   0.00000  Uiso   1.00
C557   C     0.98565   0.80338   0.22566   0.00000  Uiso   1.00
C558   C     0.68102   0.86329   0.27434   0.00000  Uiso   1.00
C559   C     0.70031   0.80356   0.22509   0.00000  Uiso   1.00
C560   C     0.96636   0.86311   0.27492   0.00000  Uiso   1.00
C561   C     0.80210   0.83415   0.33841   0.00000  Uiso   1.00
C562   C     0.86457   0.83252   0.16159   0.00000  Uiso   1.00
C563   C     0.78155   0.83803   0.39015   0.00000  Uiso   1.00
C564   C     0.88511   0.82863   0.10985   0.00000  Uiso   1.00
C565   C     0.72496   0.86703   0.46565   0.00000  Uiso   1.00
C566   C     0.94170   0.79963   0.03435   0.00000  Uiso   1.00
C567   C     0.73898   0.86141   0.41662   0.00000  Uiso   1.00
C568   C     0.92769   0.80525   0.08338   0.00000  Uiso   1.00
C569   C     0.80995   0.82205   0.41245   0.00000  Uiso   1.00
C570   C     0.85672   0.84461   0.08755   0.00000  Uiso   1.00
C571   C     0.80291   0.83578   0.45776   0.00000  Uiso   1.00
C572   C     0.86376   0.83089   0.04224   0.00000  Uiso   1.00
C573   C     0.75681   0.85346   0.48668   0.00000  Uiso   1.00
C574   C     0.90986   0.81320   0.01332   0.00000  Uiso   1.00
C575   C     0.83980   0.83090   0.47549   0.00000  Uiso   1.00
C576   C     0.82687   0.83576   0.02451   0.00000  Uiso   1.00
H577   H     0.81181   0.70642   0.32534   0.00000  Uiso   1.00
H578   H     0.85485   0.96024   0.17466   0.00000  Uiso   1.00
H579   H     0.97483   0.77911   0.20693   0.00000  Uiso   1.00
H580   H     0.69183   0.88756   0.29307   0.00000  Uiso   1.00
N581   N     0.71426   0.83334   0.25001   0.00000  Uiso   1.00
N582   N     0.95241   0.83332   0.24999   0.00000  Uiso   1.00
O583   O     0.79512   0.89442   0.25001   0.00000  Uiso   1.00
O584   O     0.87154   0.77225   0.25000   0.00000  Uiso   1.00
O585   O     0.87157   0.89441   0.25000   0.00000  Uiso   1.00
O586   O     0.79510   0.77226   0.25000   0.00000  Uiso   1.00
O587   O     0.77328   0.83334   0.31613   0.00000  Uiso   1.00
O588   O     0.89339   0.83333   0.18388   0.00000  Uiso   1.00
O589   O     0.84972   0.83333   0.31612   0.00000  Uiso   1.00
O590   O     0.81695   0.83334   0.18388   0.00000  Uiso   1.00
Zn591  Zn    0.78229   0.83334   0.25000   0.00000  Uiso   1.00
Zn592  Zn    0.88438   0.83333   0.25000   0.00000  Uiso   1.00
F593   F     0.69729   0.86492   0.06649   0.00000  Uiso   1.00
F594   F     0.96937   0.80173   0.43351   0.00000  Uiso   1.00
F595   F     0.82437   0.87592   0.10934   0.00000  Uiso   1.00
F596   F     0.84230   0.79075   0.39066   0.00000  Uiso   1.00
C597   C     0.95673   0.78625   0.10579   0.00000  Uiso   1.00
N598   N     0.98039   0.77073   0.12299   0.00000  Uiso   1.00
C599   C     0.70994   0.88041   0.39421   0.00000  Uiso   1.00
N600   N     0.68628   0.89594   0.37702   0.00000  Uiso   1.00
C601   C     0.67968   0.88909   0.49301   0.00000  Uiso   1.00
N602   N     0.97688   0.90668   0.01467   0.00000  Uiso   1.00
C603   C     0.98699   0.77758   0.00699   0.00000  Uiso   1.00
N604   N     0.68979   0.75999   0.48533   0.00000  Uiso   1.00
F605   F     0.75874   0.83631   0.10159   0.00000  Uiso   1.00
F606   F     0.90793   0.83035   0.39841   0.00000  Uiso   1.00
F607   F     0.80948   0.95810   0.33413   0.00000  Uiso   1.00
F608   F     0.85719   0.70857   0.16586   0.00000  Uiso   1.00
C609   C     0.73457   0.77247   0.19673   0.00000  Uiso   1.00
N610   N     0.76190   0.74742   0.17360   0.00000  Uiso   1.00
C611   C     0.93210   0.89419   0.30327   0.00000  Uiso   1.00
N612   N     0.90476   0.91924   0.32641   0.00000  Uiso   1.00
C613   C     0.16687   0.24653   0.75012   0.00000  Uiso   1.00
C614   C     0.16646   0.08680   0.74988   0.00000  Uiso   1.00
C615   C     0.11025   0.17656   0.55437   0.00000  Uiso   1.00
C616   C     0.22308   0.15677   0.94563   0.00000  Uiso   1.00
C617   C     0.07690   0.18837   0.53572   0.00000  Uiso   1.00
C618   C     0.25644   0.14496   0.96428   0.00000  Uiso   1.00
C619   C     0.15496   0.31225   0.79281   0.00000  Uiso   1.00
C620   C     0.17838   0.02109   0.70719   0.00000  Uiso   1.00
C621   C     0.15451   0.02222   0.79261   0.00000  Uiso   1.00
C622   C     0.17882   0.31111   0.70739   0.00000  Uiso   1.00
C623   C     0.16605   0.04270   0.74987   0.00000  Uiso   1.00
C624   C     0.16729   0.29063   0.75013   0.00000  Uiso   1.00
C625   C     0.31898   0.13671   0.72566   0.00000  Uiso   1.00
C626   C     0.01435   0.19662   0.77434   0.00000  Uiso   1.00
C627   C     0.03364   0.13689   0.72509   0.00000  Uiso   1.00
C628   C     0.29969   0.19644   0.77492   0.00000  Uiso   1.00
C629   C     0.13543   0.16748   0.83841   0.00000  Uiso   1.00
C630   C     0.19790   0.16585   0.66159   0.00000  Uiso   1.00
C631   C     0.11488   0.17137   0.89015   0.00000  Uiso   1.00
C632   C     0.21845   0.16196   0.60985   0.00000  Uiso   1.00
C633   C     0.05830   0.20037   0.96565   0.00000  Uiso   1.00
C634   C     0.27503   0.13296   0.53435   0.00000  Uiso   1.00
C635   C     0.07231   0.19475   0.91662   0.00000  Uiso   1.00
C636   C     0.26102   0.13858   0.58338   0.00000  Uiso   1.00
C637   C     0.14328   0.15539   0.91245   0.00000  Uiso   1.00
C638   C     0.19005   0.17795   0.58755   0.00000  Uiso   1.00
C639   C     0.13624   0.16911   0.95776   0.00000  Uiso   1.00
C640   C     0.19709   0.16422   0.54224   0.00000  Uiso   1.00
C641   C     0.09014   0.18679   0.98668   0.00000  Uiso   1.00
C642   C     0.24319   0.14654   0.51332   0.00000  Uiso   1.00
C643   C     0.17313   0.16423   0.97549   0.00000  Uiso   1.00
C644   C     0.16020   0.16910   0.52451   0.00000  Uiso   1.00
H645   H     0.14515   0.03976   0.82534   0.00000  Uiso   1.00
H646   H     0.18819   0.29358   0.67466   0.00000  Uiso   1.00
H647   H     0.30817   0.11244   0.70693   0.00000  Uiso   1.00
H648   H     0.02517   0.22089   0.79307   0.00000  Uiso   1.00
N649   N     0.04759   0.16668   0.75001   0.00000  Uiso   1.00
N650   N     0.28574   0.16666   0.74999   0.00000  Uiso   1.00
O651   O     0.12846   0.22775   0.75001   0.00000  Uiso   1.00
O652   O     0.20488   0.10558   0.75000   0.00000  Uiso   1.00
O653   O     0.20490   0.22774   0.75000   0.00000  Uiso   1.00
O654   O     0.12843   0.10559   0.75000   0.00000  Uiso   1.00
O655   O     0.10661   0.16667   0.81613   0.00000  Uiso   1.00
O656   O     0.22672   0.16666   0.68388   0.00000  Uiso   1.00
O657   O     0.18305   0.16666   0.81612   0.00000  Uiso   1.00
O658   O     0.15028   0.16667   0.68388   0.00000  Uiso   1.00
Zn659  Zn    0.11562   0.16667   0.75000   0.00000  Uiso   1.00
Zn660  Zn    0.21771   0.16666   0.75000   0.00000  Uiso   1.00
F661   F     0.03063   0.19826   0.56649   0.00000  Uiso   1.00
F662   F     0.30270   0.13507   0.93351   0.00000  Uiso   1.00
F663   F     0.15770   0.20925   0.60934   0.00000  Uiso   1.00
F664   F     0.17563   0.12408   0.89066   0.00000  Uiso   1.00
C665   C     0.29006   0.11959   0.60579   0.00000  Uiso   1.00
N666   N     0.31372   0.10406   0.62299   0.00000  Uiso   1.00
C667   C     0.04327   0.21374   0.89421   0.00000  Uiso   1.00
N668   N     0.01962   0.22927   0.87702   0.00000  Uiso   1.00
C669   C     0.01301   0.22242   0.99301   0.00000  Uiso   1.00
N670   N     0.31021   0.24001   0.51467   0.00000  Uiso   1.00
C671   C     0.32032   0.11091   0.50699   0.00000  Uiso   1.00
N672   N     0.02312   0.09332   0.98533   0.00000  Uiso   1.00
F673   F     0.09207   0.16965   0.60159   0.00000  Uiso   1.00
F674   F     0.24126   0.16368   0.89841   0.00000  Uiso   1.00
F675   F     0.14282   0.29143   0.83413   0.00000  Uiso   1.00
F676   F     0.19052   0.04190   0.66586   0.00000  Uiso   1.00
C677   C     0.06790   0.10580   0.69673   0.00000  Uiso   1.00
N678   N     0.09524   0.08075   0.67360   0.00000  Uiso   1.00
C679   C     0.26543   0.22753   0.80327   0.00000  Uiso   1.00
N680   N     0.23809   0.25257   0.82641   0.00000  Uiso   1.00
C681   C     0.50021   0.24653   0.75012   0.00000  Uiso   1.00
C682   C     0.49979   0.08680   0.74988   0.00000  Uiso   1.00
C683   C     0.44358   0.17656   0.55437   0.00000  Uiso   1.00
C684   C     0.55641   0.15677   0.94563   0.00000  Uiso   1.00
C685   C     0.41023   0.18837   0.53572   0.00000  Uiso   1.00
C686   C     0.58977   0.14496   0.96428   0.00000  Uiso   1.00
C687   C     0.48829   0.31225   0.79281   0.00000  Uiso   1.00
C688   C     0.51171   0.02109   0.70719   0.00000  Uiso   1.00
C689   C     0.48785   0.02222   0.79261   0.00000  Uiso   1.00
C690   C     0.51215   0.31111   0.70739   0.00000  Uiso   1.00
C691   C     0.49938   0.04270   0.74987   0.00000  Uiso   1.00
C692   C     0.50062   0.29063   0.75013   0.00000  Uiso   1.00
C693   C     0.65232   0.13671   0.72566   0.00000  Uiso   1.00
C694   C     0.34768   0.19662   0.77434   0.00000  Uiso   1.00
C695   C     0.36698   0.13689   0.72509   0.00000  Uiso   1.00
C696   C     0.63302   0.19644   0.77492   0.00000  Uiso   1.00
C697   C     0.46876   0.16748   0.83841   0.00000  Uiso   1.00
C698   C     0.53124   0.16585   0.66159   0.00000  Uiso   1.00
C699   C     0.44822   0.17137   0.89015   0.00000  Uiso   1.00
C700   C     0.55178   0.16196   0.60985   0.00000  Uiso   1.00
C701   C     0.39163   0.20037   0.96565   0.00000  Uiso   1.00
C702   C     0.60837   0.13296   0.53435   0.00000  Uiso   1.00
C703   C     0.40565   0.19475   0.91662   0.00000  Uiso   1.00
C704   C     0.59435   0.13858   0.58338   0.00000  Uiso   1.00
C705   C     0.47661   0.15539   0.91245   0.00000  Uiso   1.00
C706   C     0.52338   0.17795   0.58755   0.00000  Uiso   1.00
C707   C     0.46958   0.16911   0.95776   0.00000  Uiso   1.00
C708   C     0.53042   0.16422   0.54224   0.00000  Uiso   1.00
C709   C     0.42347   0.18679   0.98668   0.00000  Uiso   1.00
C710   C     0.57652   0.14654   0.51332   0.00000  Uiso   1.00
C711   C     0.50647   0.16423   0.97549   0.00000  Uiso   1.00
C712   C     0.49353   0.16910   0.52451   0.00000  Uiso   1.00
H713   H     0.47848   0.03976   0.82534   0.00000  Uiso   1.00
H714   H     0.52152   0.29358   0.67466   0.00000  Uiso   1.00
H715   H     0.64150   0.11244   0.70693   0.00000  Uiso   1.00
H716   H     0.35850   0.22089   0.79307   0.00000  Uiso   1.00
N717   N     0.38093   0.16668   0.75001   0.00000  Uiso   1.00
N718   N     0.61907   0.16666   0.74999   0.00000  Uiso   1.00
O719   O     0.46179   0.22775   0.75001   0.00000  Uiso   1.00
O720   O     0.53821   0.10558   0.75000   0.00000  Uiso   1.00
O721   O     0.53823   0.22774   0.75000   0.00000  Uiso   1.00
O722   O     0.46177   0.10559   0.75000   0.00000  Uiso   1.00
O723   O     0.43994   0.16667   0.81613   0.00000  Uiso   1.00
O724   O     0.56006   0.16666   0.68388   0.00000  Uiso   1.00
O725   O     0.51639   0.16666   0.81612   0.00000  Uiso   1.00
O726   O     0.48361   0.16667   0.68388   0.00000  Uiso   1.00
Zn727  Zn    0.44896   0.16667   0.75000   0.00000  Uiso   1.00
Zn728  Zn    0.55104   0.16666   0.75000   0.00000  Uiso   1.00
F729   F     0.36396   0.19826   0.56649   0.00000  Uiso   1.00
F730   F     0.63604   0.13507   0.93351   0.00000  Uiso   1.00
F731   F     0.49103   0.20925   0.60934   0.00000  Uiso   1.00
F732   F     0.50896   0.12408   0.89066   0.00000  Uiso   1.00
C733   C     0.62339   0.11959   0.60579   0.00000  Uiso   1.00
N734   N     0.64705   0.10406   0.62299   0.00000  Uiso   1.00
C735   C     0.37661   0.21374   0.89421   0.00000  Uiso   1.00
N736   N     0.35295   0.22927   0.87702   0.00000  Uiso   1.00
C737   C     0.34634   0.22242   0.99301   0.00000  Uiso   1.00
N738   N     0.64355   0.24001   0.51467   0.00000  Uiso   1.00
C739   C     0.65366   0.11091   0.50699   0.00000  Uiso   1.00
N740   N     0.35645   0.09332   0.98533   0.00000  Uiso   1.00
F741   F     0.42540   0.16965   0.60159   0.00000  Uiso   1.00
F742   F     0.57460   0.16368   0.89841   0.00000  Uiso   1.00
F743   F     0.47615   0.29143   0.83413   0.00000  Uiso   1.00
F744   F     0.52385   0.04190   0.66586   0.00000  Uiso   1.00
C745   C     0.40124   0.10580   0.69673   0.00000  Uiso   1.00
N746   N     0.42857   0.08075   0.67360   0.00000  Uiso   1.00
C747   C     0.59876   0.22753   0.80327   0.00000  Uiso   1.00
N748   N     0.57143   0.25257   0.82641   0.00000  Uiso   1.00
C749   C     0.83354   0.24653   0.75012   0.00000  Uiso   1.00
C750   C     0.83313   0.08680   0.74988   0.00000  Uiso   1.00
C751   C     0.77692   0.17656   0.55437   0.00000  Uiso   1.00
C752   C     0.88975   0.15677   0.94563   0.00000  Uiso   1.00
C753   C     0.74356   0.18837   0.53572   0.00000  Uiso   1.00
C754   C     0.92310   0.14496   0.96428   0.00000  Uiso   1.00
C755   C     0.82162   0.31225   0.79281   0.00000  Uiso   1.00
C756   C     0.84504   0.02109   0.70719   0.00000  Uiso   1.00
C757   C     0.82118   0.02222   0.79261   0.00000  Uiso   1.00
C758   C     0.84549   0.31111   0.70739   0.00000  Uiso   1.00
C759   C     0.83271   0.04270   0.74987   0.00000  Uiso   1.00
C760   C     0.83395   0.29063   0.75013   0.00000  Uiso   1.00
C761   C     0.98565   0.13671   0.72566   0.00000  Uiso   1.00
C762   C     0.68102   0.19662   0.77434   0.00000  Uiso   1.00
C763   C     0.70031   0.13689   0.72509   0.00000  Uiso   1.00
C764   C     0.96636   0.19644   0.77492   0.00000  Uiso   1.00
C765   C     0.80210   0.16748   0.83841   0.00000  Uiso   1.00
C766   C     0.86457   0.16585   0.66159   0.00000  Uiso   1.00
C767   C     0.78155   0.17137   0.89015   0.00000  Uiso   1.00
C768   C     0.88511   0.16196   0.60985   0.00000  Uiso   1.00
C769   C     0.72496   0.20037   0.96565   0.00000  Uiso   1.00
C770   C     0.94170   0.13296   0.53435   0.00000  Uiso   1.00
C771   C     0.73898   0.19475   0.91662   0.00000  Uiso   1.00
C772   C     0.92769   0.13858   0.58338   0.00000  Uiso   1.00
C773   C     0.80995   0.15539   0.91245   0.00000  Uiso   1.00
C774   C     0.85672   0.17795   0.58755   0.00000  Uiso   1.00
C775   C     0.80291   0.16911   0.95776   0.00000  Uiso   1.00
C776   C     0.86376   0.16422   0.54224   0.00000  Uiso   1.00
C777   C     0.75681   0.18679   0.98668   0.00000  Uiso   1.00
C778   C     0.90986   0.14654   0.51332   0.00000  Uiso   1.00
C779   C     0.83980   0.16423   0.97549   0.00000  Uiso   1.00
C780   C     0.82687   0.16910   0.52451   0.00000  Uiso   1.00
H781   H     0.81181   0.03976   0.82534   0.00000  Uiso   1.00
H782   H     0.85485   0.29358   0.67466   0.00000  Uiso   1.00
H783   H     0.97483   0.11244   0.70693   0.00000  Uiso   1.00
H784   H     0.69183   0.22089   0.79307   0.00000  Uiso   1.00
N785   N     0.71426   0.16668   0.75001   0.00000  Uiso   1.00
N786   N     0.95241   0.16666   0.74999   0.00000  Uiso   1.00
O787   O     0.79512   0.22775   0.75001   0.00000  Uiso   1.00
O788   O     0.87154   0.10558   0.75000   0.00000  Uiso   1.00
O789   O     0.87157   0.22774   0.75000   0.00000  Uiso   1.00
O790   O     0.79510   0.10559   0.75000   0.00000  Uiso   1.00
O791   O     0.77328   0.16667   0.81613   0.00000  Uiso   1.00
O792   O     0.89339   0.16666   0.68388   0.00000  Uiso   1.00
O793   O     0.84972   0.16666   0.81612   0.00000  Uiso   1.00
O794   O     0.81695   0.16667   0.68388   0.00000  Uiso   1.00
Zn795  Zn    0.78229   0.16667   0.75000   0.00000  Uiso   1.00
Zn796  Zn    0.88438   0.16666   0.75000   0.00000  Uiso   1.00
F797   F     0.69729   0.19826   0.56649   0.00000  Uiso   1.00
F798   F     0.96937   0.13507   0.93351   0.00000  Uiso   1.00
F799   F     0.82437   0.20925   0.60934   0.00000  Uiso   1.00
F800   F     0.84230   0.12408   0.89066   0.00000  Uiso   1.00
C801   C     0.95673   0.11959   0.60579   0.00000  Uiso   1.00
N802   N     0.98039   0.10406   0.62299   0.00000  Uiso   1.00
C803   C     0.70994   0.21374   0.89421   0.00000  Uiso   1.00
N804   N     0.68628   0.22927   0.87702   0.00000  Uiso   1.00
C805   C     0.67968   0.22242   0.99301   0.00000  Uiso   1.00
N806   N     0.97688   0.24001   0.51467   0.00000  Uiso   1.00
C807   C     0.98699   0.11091   0.50699   0.00000  Uiso   1.00
N808   N     0.68979   0.09332   0.98533   0.00000  Uiso   1.00
F809   F     0.75874   0.16965   0.60159   0.00000  Uiso   1.00
F810   F     0.90793   0.16368   0.89841   0.00000  Uiso   1.00
F811   F     0.80948   0.29143   0.83413   0.00000  Uiso   1.00
F812   F     0.85719   0.04190   0.66586   0.00000  Uiso   1.00
C813   C     0.73457   0.10580   0.69673   0.00000  Uiso   1.00
N814   N     0.76190   0.08075   0.67360   0.00000  Uiso   1.00
C815   C     0.93210   0.22753   0.80327   0.00000  Uiso   1.00
N816   N     0.90476   0.25257   0.82641   0.00000  Uiso   1.00
C817   C     0.16687   0.57987   0.75012   0.00000  Uiso   1.00
C818   C     0.16646   0.42013   0.74988   0.00000  Uiso   1.00
C819   C     0.11025   0.50989   0.55437   0.00000  Uiso   1.00
C820   C     0.22308   0.49010   0.94563   0.00000  Uiso   1.00
C821   C     0.07690   0.52170   0.53572   0.00000  Uiso   1.00
C822   C     0.25644   0.47829   0.96428   0.00000  Uiso   1.00
C823   C     0.15496   0.64558   0.79281   0.00000  Uiso   1.00
C824   C     0.17838   0.35442   0.70719   0.00000  Uiso   1.00
C825   C     0.15451   0.35556   0.79261   0.00000  Uiso   1.00
C826   C     0.17882   0.64444   0.70739   0.00000  Uiso   1.00
C827   C     0.16605   0.37604   0.74987   0.00000  Uiso   1.00
C828   C     0.16729   0.62396   0.75013   0.00000  Uiso   1.00
C829   C     0.31898   0.47005   0.72566   0.00000  Uiso   1.00
C830   C     0.01435   0.52995   0.77434   0.00000  Uiso   1.00
C831   C     0.03364   0.47022   0.72509   0.00000  Uiso   1.00
C832   C     0.29969   0.52978   0.77492   0.00000  Uiso   1.00
C833   C     0.13543   0.50082   0.83841   0.00000  Uiso   1.00
C834   C     0.19790   0.49918   0.66159   0.00000  Uiso   1.00
C835   C     0.11488   0.50470   0.89015   0.00000  Uiso   1.00
C836   C     0.21845   0.49530   0.60985   0.00000  Uiso   1.00
C837   C     0.05830   0.53370   0.96565   0.00000  Uiso   1.00
C838   C     0.27503   0.46630   0.53435   0.00000  Uiso   1.00
C839   C     0.07231   0.52808   0.91662   0.00000  Uiso   1.00
C840   C     0.26102   0.47192   0.58338   0.00000  Uiso   1.00
C841   C     0.14328   0.48872   0.91245   0.00000  Uiso   1.00
C842   C     0.19005   0.51128   0.58755   0.00000  Uiso   1.00
C843   C     0.13624   0.50244   0.95776   0.00000  Uiso   1.00
C844   C     0.19709   0.49755   0.54224   0.00000  Uiso   1.00
C845   C     0.09014   0.52013   0.98668   0.00000  Uiso   1.00
C846   C     0.24319   0.47987   0.51332   0.00000  Uiso   1.00
C847   C     0.17313   0.49756   0.97549   0.00000  Uiso   1.00
C848   C     0.16020   0.50243   0.52451   0.00000  Uiso   1.00
H849   H     0.14515   0.37309   0.82534   0.00000  Uiso   1.00
H850   H     0.18819   0.62691   0.67466   0.00000  Uiso   1.00
H851   H     0.30817   0.44577   0.70693   0.00000  Uiso   1.00
H852   H     0.02517   0.55423   0.79307   0.00000  Uiso   1.00
N853   N     0.04759   0.50001   0.75001   0.00000  Uiso   1.00
N854   N     0.28574   0.49999   0.74999   0.00000  Uiso   1.00
O855   O     0.12846   0.56108   0.75001   0.00000  Uiso   1.00
O856   O     0.20488   0.43892   0.75000   0.00000  Uiso   1.00
O857   O     0.20490   0.56107   0.75000   0.00000  Uiso   1.00
O858   O     0.12843   0.43893   0.75000   0.00000  Uiso   1.00
O859   O     0.10661   0.50001   0.81613   0.00000  Uiso   1.00
O860   O     0.22672   0.49999   0.68388   0.00000  Uiso   1.00
O861   O     0.18305   0.50000   0.81612   0.00000  Uiso   1.00
O862   O     0.15028   0.50000   0.68388   0.00000  Uiso   1.00
Zn863  Zn    0.11562   0.50001   0.75000   0.00000  Uiso   1.00
Zn864  Zn    0.21771   0.49999   0.75000   0.00000  Uiso   1.00
F865   F     0.03063   0.53159   0.56649   0.00000  Uiso   1.00
F866   F     0.30270   0.46840   0.93351   0.00000  Uiso   1.00
F867   F     0.15770   0.54258   0.60934   0.00000  Uiso   1.00
F868   F     0.17563   0.45741   0.89066   0.00000  Uiso   1.00
C869   C     0.29006   0.45292   0.60579   0.00000  Uiso   1.00
N870   N     0.31372   0.43739   0.62299   0.00000  Uiso   1.00
C871   C     0.04327   0.54708   0.89421   0.00000  Uiso   1.00
N872   N     0.01962   0.56260   0.87702   0.00000  Uiso   1.00
C873   C     0.01301   0.55575   0.99301   0.00000  Uiso   1.00
N874   N     0.31021   0.57334   0.51467   0.00000  Uiso   1.00
C875   C     0.32032   0.44424   0.50699   0.00000  Uiso   1.00
N876   N     0.02312   0.42665   0.98533   0.00000  Uiso   1.00
F877   F     0.09207   0.50298   0.60159   0.00000  Uiso   1.00
F878   F     0.24126   0.49701   0.89841   0.00000  Uiso   1.00
F879   F     0.14282   0.62477   0.83413   0.00000  Uiso   1.00
F880   F     0.19052   0.37523   0.66586   0.00000  Uiso   1.00
C881   C     0.06790   0.43914   0.69673   0.00000  Uiso   1.00
N882   N     0.09524   0.41409   0.67360   0.00000  Uiso   1.00
C883   C     0.26543   0.56086   0.80327   0.00000  Uiso   1.00
N884   N     0.23809   0.58590   0.82641   0.00000  Uiso   1.00
C885   C     0.50021   0.57987   0.75012   0.00000  Uiso   1.00
C886   C     0.49979   0.42013   0.74988   0.00000  Uiso   1.00
C887   C     0.44358   0.50989   0.55437   0.00000  Uiso   1.00
C888   C     0.55641   0.49010   0.94563   0.00000  Uiso   1.00
C889   C     0.41023   0.52170   0.53572   0.00000  Uiso   1.00
C890   C     0.58977   0.47829   0.96428   0.00000  Uiso   1.00
C891   C     0.48829   0.64558   0.79281   0.00000  Uiso   1.00
C892   C     0.51171   0.35442   0.70719   0.00000  Uiso   1.00
C893   C     0.48785   0.35556   0.79261   0.00000  Uiso   1.00
C894   C     0.51215   0.64444   0.70739   0.00000  Uiso   1.00
C895   C     0.49938   0.37604   0.74987   0.00000  Uiso   1.00
C896   C     0.50062   0.62396   0.75013   0.00000  Uiso   1.00
C897   C     0.65232   0.47005   0.72566   0.00000  Uiso   1.00
C898   C     0.34768   0.52995   0.77434   0.00000  Uiso   1.00
C899   C     0.36698   0.47022   0.72509   0.00000  Uiso   1.00
C900   C     0.63302   0.52978   0.77492   0.00000  Uiso   1.00
C901   C     0.46876   0.50082   0.83841   0.00000  Uiso   1.00
C902   C     0.53124   0.49918   0.66159   0.00000  Uiso   1.00
C903   C     0.44822   0.50470   0.89015   0.00000  Uiso   1.00
C904   C     0.55178   0.49530   0.60985   0.00000  Uiso   1.00
C905   C     0.39163   0.53370   0.96565   0.00000  Uiso   1.00
C906   C     0.60837   0.46630   0.53435   0.00000  Uiso   1.00
C907   C     0.40565   0.52808   0.91662   0.00000  Uiso   1.00
C908   C     0.59435   0.47192   0.58338   0.00000  Uiso   1.00
C909   C     0.47661   0.48872   0.91245   0.00000  Uiso   1.00
C910   C     0.52338   0.51128   0.58755   0.00000  Uiso   1.00
C911   C     0.46958   0.50244   0.95776   0.00000  Uiso   1.00
C912   C     0.53042   0.49755   0.54224   0.00000  Uiso   1.00
C913   C     0.42347   0.52013   0.98668   0.00000  Uiso   1.00
C914   C     0.57652   0.47987   0.51332   0.00000  Uiso   1.00
C915   C     0.50647   0.49756   0.97549   0.00000  Uiso   1.00
C916   C     0.49353   0.50243   0.52451   0.00000  Uiso   1.00
H917   H     0.47848   0.37309   0.82534   0.00000  Uiso   1.00
H918   H     0.52152   0.62691   0.67466   0.00000  Uiso   1.00
H919   H     0.64150   0.44577   0.70693   0.00000  Uiso   1.00
H920   H     0.35850   0.55423   0.79307   0.00000  Uiso   1.00
N921   N     0.38093   0.50001   0.75001   0.00000  Uiso   1.00
N922   N     0.61907   0.49999   0.74999   0.00000  Uiso   1.00
O923   O     0.46179   0.56108   0.75001   0.00000  Uiso   1.00
O924   O     0.53821   0.43892   0.75000   0.00000  Uiso   1.00
O925   O     0.53823   0.56107   0.75000   0.00000  Uiso   1.00
O926   O     0.46177   0.43893   0.75000   0.00000  Uiso   1.00
O927   O     0.43994   0.50001   0.81613   0.00000  Uiso   1.00
O928   O     0.56006   0.49999   0.68388   0.00000  Uiso   1.00
O929   O     0.51639   0.50000   0.81612   0.00000  Uiso   1.00
O930   O     0.48361   0.50000   0.68388   0.00000  Uiso   1.00
Zn931  Zn    0.44896   0.50001   0.75000   0.00000  Uiso   1.00
Zn932  Zn    0.55104   0.49999   0.75000   0.00000  Uiso   1.00
F933   F     0.36396   0.53159   0.56649   0.00000  Uiso   1.00
F934   F     0.63604   0.46840   0.93351   0.00000  Uiso   1.00
F935   F     0.49103   0.54258   0.60934   0.00000  Uiso   1.00
F936   F     0.50896   0.45741   0.89066   0.00000  Uiso   1.00
C937   C     0.62339   0.45292   0.60579   0.00000  Uiso   1.00
N938   N     0.64705   0.43739   0.62299   0.00000  Uiso   1.00
C939   C     0.37661   0.54708   0.89421   0.00000  Uiso   1.00
N940   N     0.35295   0.56260   0.87702   0.00000  Uiso   1.00
C941   C     0.34634   0.55575   0.99301   0.00000  Uiso   1.00
N942   N     0.64355   0.57334   0.51467   0.00000  Uiso   1.00
C943   C     0.65366   0.44424   0.50699   0.00000  Uiso   1.00
N944   N     0.35645   0.42665   0.98533   0.00000  Uiso   1.00
F945   F     0.42540   0.50298   0.60159   0.00000  Uiso   1.00
F946   F     0.57460   0.49701   0.89841   0.00000  Uiso   1.00
F947   F     0.47615   0.62477   0.83413   0.00000  Uiso   1.00
F948   F     0.52385   0.37523   0.66586   0.00000  Uiso   1.00
C949   C     0.40124   0.43914   0.69673   0.00000  Uiso   1.00
N950   N     0.42857   0.41409   0.67360   0.00000  Uiso   1.00
C951   C     0.59876   0.56086   0.80327   0.00000  Uiso   1.00
N952   N     0.57143   0.58590   0.82641   0.00000  Uiso   1.00
C953   C     0.83354   0.57987   0.75012   0.00000  Uiso   1.00
C954   C     0.83313   0.42013   0.74988   0.00000  Uiso   1.00
C955   C     0.77692   0.50989   0.55437   0.00000  Uiso   1.00
C956   C     0.88975   0.49010   0.94563   0.00000  Uiso   1.00
C957   C     0.74356   0.52170   0.53572   0.00000  Uiso   1.00
C958   C     0.92310   0.47829   0.96428   0.00000  Uiso   1.00
C959   C     0.82162   0.64558   0.79281   0.00000  Uiso   1.00
C960   C     0.84504   0.35442   0.70719   0.00000  Uiso   1.00
C961   C     0.82118   0.35556   0.79261   0.00000  Uiso   1.00
C962   C     0.84549   0.64444   0.70739   0.00000  Uiso   1.00
C963   C     0.83271   0.37604   0.74987   0.00000  Uiso   1.00
C964   C     0.83395   0.62396   0.75013   0.00000  Uiso   1.00
C965   C     0.98565   0.47005   0.72566   0.00000  Uiso   1.00
C966   C     0.68102   0.52995   0.77434   0.00000  Uiso   1.00
C967   C     0.70031   0.47022   0.72509   0.00000  Uiso   1.00
C968   C     0.96636   0.52978   0.77492   0.00000  Uiso   1.00
C969   C     0.80210   0.50082   0.83841   0.00000  Uiso   1.00
C970   C     0.86457   0.49918   0.66159   0.00000  Uiso   1.00
C971   C     0.78155   0.50470   0.89015   0.00000  Uiso   1.00
C972   C     0.88511   0.49530   0.60985   0.00000  Uiso   1.00
C973   C     0.72496   0.53370   0.96565   0.00000  Uiso   1.00
C974   C     0.94170   0.46630   0.53435   0.00000  Uiso   1.00
C975   C     0.73898   0.52808   0.91662   0.00000  Uiso   1.00
C976   C     0.92769   0.47192   0.58338   0.00000  Uiso   1.00
C977   C     0.80995   0.48872   0.91245   0.00000  Uiso   1.00
C978   C     0.85672   0.51128   0.58755   0.00000  Uiso   1.00
C979   C     0.80291   0.50244   0.95776   0.00000  Uiso   1.00
C980   C     0.86376   0.49755   0.54224   0.00000  Uiso   1.00
C981   C     0.75681   0.52013   0.98668   0.00000  Uiso   1.00
C982   C     0.90986   0.47987   0.51332   0.00000  Uiso   1.00
C983   C     0.83980   0.49756   0.97549   0.00000  Uiso   1.00
C984   C     0.82687   0.50243   0.52451   0.00000  Uiso   1.00
H985   H     0.81181   0.37309   0.82534   0.00000  Uiso   1.00
H986   H     0.85485   0.62691   0.67466   0.00000  Uiso   1.00
H987   H     0.97483   0.44577   0.70693   0.00000  Uiso   1.00
H988   H     0.69183   0.55423   0.79307   0.00000  Uiso   1.00
N989   N     0.71426   0.50001   0.75001   0.00000  Uiso   1.00
N990   N     0.95241   0.49999   0.74999   0.00000  Uiso   1.00
O991   O     0.79512   0.56108   0.75001   0.00000  Uiso   1.00
O992   O     0.87154   0.43892   0.75000   0.00000  Uiso   1.00
O993   O     0.87157   0.56107   0.75000   0.00000  Uiso   1.00
O994   O     0.79510   0.43893   0.75000   0.00000  Uiso   1.00
O995   O     0.77328   0.50001   0.81613   0.00000  Uiso   1.00
O996   O     0.89339   0.49999   0.68388   0.00000  Uiso   1.00
O997   O     0.84972   0.50000   0.81612   0.00000  Uiso   1.00
O998   O     0.81695   0.50000   0.68388   0.00000  Uiso   1.00
Zn999  Zn    0.78229   0.50001   0.75000   0.00000  Uiso   1.00
Zn1000 Zn    0.88438   0.49999   0.75000   0.00000  Uiso   1.00
F1001  F     0.69729   0.53159   0.56649   0.00000  Uiso   1.00
F1002  F     0.96937   0.46840   0.93351   0.00000  Uiso   1.00
F1003  F     0.82437   0.54258   0.60934   0.00000  Uiso   1.00
F1004  F     0.84230   0.45741   0.89066   0.00000  Uiso   1.00
C1005  C     0.95673   0.45292   0.60579   0.00000  Uiso   1.00
N1006  N     0.98039   0.43739   0.62299   0.00000  Uiso   1.00
C1007  C     0.70994   0.54708   0.89421   0.00000  Uiso   1.00
N1008  N     0.68628   0.56260   0.87702   0.00000  Uiso   1.00
C1009  C     0.67968   0.55575   0.99301   0.00000  Uiso   1.00
N1010  N     0.97688   0.57334   0.51467   0.00000  Uiso   1.00
C1011  C     0.98699   0.44424   0.50699   0.00000  Uiso   1.00
N1012  N     0.68979   0.42665   0.98533   0.00000  Uiso   1.00
F1013  F     0.75874   0.50298   0.60159   0.00000  Uiso   1.00
F1014  F     0.90793   0.49701   0.89841   0.00000  Uiso   1.00
F1015  F     0.80948   0.62477   0.83413   0.00000  Uiso   1.00
F1016  F     0.85719   0.37523   0.66586   0.00000  Uiso   1.00
C1017  C     0.73457   0.43914   0.69673   0.00000  Uiso   1.00
N1018  N     0.76190   0.41409   0.67360   0.00000  Uiso   1.00
C1019  C     0.93210   0.56086   0.80327   0.00000  Uiso   1.00
N1020  N     0.90476   0.58590   0.82641   0.00000  Uiso   1.00
C1021  C     0.16687   0.91320   0.75012   0.00000  Uiso   1.00
C1022  C     0.16646   0.75347   0.74988   0.00000  Uiso   1.00
C1023  C     0.11025   0.84323   0.55437   0.00000  Uiso   1.00
C1024  C     0.22308   0.82343   0.94563   0.00000  Uiso   1.00
C1025  C     0.07690   0.85504   0.53572   0.00000  Uiso   1.00
C1026  C     0.25644   0.81163   0.96428   0.00000  Uiso   1.00
C1027  C     0.15496   0.97891   0.79281   0.00000  Uiso   1.00
C1028  C     0.17838   0.68775   0.70719   0.00000  Uiso   1.00
C1029  C     0.15451   0.68889   0.79261   0.00000  Uiso   1.00
C1030  C     0.17882   0.97778   0.70739   0.00000  Uiso   1.00
C1031  C     0.16605   0.70937   0.74987   0.00000  Uiso   1.00
C1032  C     0.16729   0.95730   0.75013   0.00000  Uiso   1.00
C1033  C     0.31898   0.80338   0.72566   0.00000  Uiso   1.00
C1034  C     0.01435   0.86329   0.77434   0.00000  Uiso   1.00
C1035  C     0.03364   0.80356   0.72509   0.00000  Uiso   1.00
C1036  C     0.29969   0.86311   0.77492   0.00000  Uiso   1.00
C1037  C     0.13543   0.83415   0.83841   0.00000  Uiso   1.00
C1038  C     0.19790   0.83252   0.66159   0.00000  Uiso   1.00
C1039  C     0.11488   0.83803   0.89015   0.00000  Uiso   1.00
C1040  C     0.21845   0.82863   0.60985   0.00000  Uiso   1.00
C1041  C     0.05830   0.86703   0.96565   0.00000  Uiso   1.00
C1042  C     0.27503   0.79963   0.53435   0.00000  Uiso   1.00
C1043  C     0.07231   0.86141   0.91662   0.00000  Uiso   1.00
C1044  C     0.26102   0.80525   0.58338   0.00000  Uiso   1.00
C1045  C     0.14328   0.82205   0.91245   0.00000  Uiso   1.00
C1046  C     0.19005   0.84461   0.58755   0.00000  Uiso   1.00
C1047  C     0.13624   0.83578   0.95776   0.00000  Uiso   1.00
C1048  C     0.19709   0.83089   0.54224   0.00000  Uiso   1.00
C1049  C     0.09014   0.85346   0.98668   0.00000  Uiso   1.00
C1050  C     0.24319   0.81320   0.51332   0.00000  Uiso   1.00
C1051  C     0.17313   0.83090   0.97549   0.00000  Uiso   1.00
C1052  C     0.16020   0.83576   0.52451   0.00000  Uiso   1.00
H1053  H     0.14515   0.70642   0.82534   0.00000  Uiso   1.00
H1054  H     0.18819   0.96024   0.67466   0.00000  Uiso   1.00
H1055  H     0.30817   0.77911   0.70693   0.00000  Uiso   1.00
H1056  H     0.02517   0.88756   0.79307   0.00000  Uiso   1.00
N1057  N     0.04759   0.83334   0.75001   0.00000  Uiso   1.00
N1058  N     0.28574   0.83332   0.74999   0.00000  Uiso   1.00
O1059  O     0.12846   0.89442   0.75001   0.00000  Uiso   1.00
O1060  O     0.20488   0.77225   0.75000   0.00000  Uiso   1.00
O1061  O     0.20490   0.89441   0.75000   0.00000  Uiso   1.00
O1062  O     0.12843   0.77226   0.75000   0.00000  Uiso   1.00
O1063  O     0.10661   0.83334   0.81613   0.00000  Uiso   1.00
O1064  O     0.22672   0.83333   0.68388   0.00000  Uiso   1.00
O1065  O     0.18305   0.83333   0.81612   0.00000  Uiso   1.00
O1066  O     0.15028   0.83334   0.68388   0.00000  Uiso   1.00
Zn1067 Zn    0.11562   0.83334   0.75000   0.00000  Uiso   1.00
Zn1068 Zn    0.21771   0.83333   0.75000   0.00000  Uiso   1.00
F1069  F     0.03063   0.86492   0.56649   0.00000  Uiso   1.00
F1070  F     0.30270   0.80173   0.93351   0.00000  Uiso   1.00
F1071  F     0.15770   0.87592   0.60934   0.00000  Uiso   1.00
F1072  F     0.17563   0.79075   0.89066   0.00000  Uiso   1.00
C1073  C     0.29006   0.78625   0.60579   0.00000  Uiso   1.00
N1074  N     0.31372   0.77073   0.62299   0.00000  Uiso   1.00
C1075  C     0.04327   0.88041   0.89421   0.00000  Uiso   1.00
N1076  N     0.01962   0.89594   0.87702   0.00000  Uiso   1.00
C1077  C     0.01301   0.88909   0.99301   0.00000  Uiso   1.00
N1078  N     0.31021   0.90668   0.51467   0.00000  Uiso   1.00
C1079  C     0.32032   0.77758   0.50699   0.00000  Uiso   1.00
N1080  N     0.02312   0.75999   0.98533   0.00000  Uiso   1.00
F1081  F     0.09207   0.83631   0.60159   0.00000  Uiso   1.00
F1082  F     0.24126   0.83035   0.89841   0.00000  Uiso   1.00
F1083  F     0.14282   0.95810   0.83413   0.00000  Uiso   1.00
F1084  F     0.19052   0.70857   0.66586   0.00000  Uiso   1.00
C1085  C     0.06790   0.77247   0.69673   0.00000  Uiso   1.00
N1086  N     0.09524   0.74742   0.67360   0.00000  Uiso   1.00
C1087  C     0.26543   0.89419   0.80327   0.00000  Uiso   1.00
N1088  N     0.23809   0.91924   0.82641   0.00000  Uiso   1.00
C1089  C     0.50021   0.91320   0.75012   0.00000  Uiso   1.00
C1090  C     0.49979   0.75347   0.74988   0.00000  Uiso   1.00
C1091  C     0.44358   0.84323   0.55437   0.00000  Uiso   1.00
C1092  C     0.55641   0.82343   0.94563   0.00000  Uiso   1.00
C1093  C     0.41023   0.85504   0.53572   0.00000  Uiso   1.00
C1094  C     0.58977   0.81163   0.96428   0.00000  Uiso   1.00
C1095  C     0.48829   0.97891   0.79281   0.00000  Uiso   1.00
C1096  C     0.51171   0.68775   0.70719   0.00000  Uiso   1.00
C1097  C     0.48785   0.68889   0.79261   0.00000  Uiso   1.00
C1098  C     0.51215   0.97778   0.70739   0.00000  Uiso   1.00
C1099  C     0.49938   0.70937   0.74987   0.00000  Uiso   1.00
C1100  C     0.50062   0.95730   0.75013   0.00000  Uiso   1.00
C1101  C     0.65232   0.80338   0.72566   0.00000  Uiso   1.00
C1102  C     0.34768   0.86329   0.77434   0.00000  Uiso   1.00
C1103  C     0.36698   0.80356   0.72509   0.00000  Uiso   1.00
C1104  C     0.63302   0.86311   0.77492   0.00000  Uiso   1.00
C1105  C     0.46876   0.83415   0.83841   0.00000  Uiso   1.00
C1106  C     0.53124   0.83252   0.66159   0.00000  Uiso   1.00
C1107  C     0.44822   0.83803   0.89015   0.00000  Uiso   1.00
C1108  C     0.55178   0.82863   0.60985   0.00000  Uiso   1.00
C1109  C     0.39163   0.86703   0.96565   0.00000  Uiso   1.00
C1110  C     0.60837   0.79963   0.53435   0.00000  Uiso   1.00
C1111  C     0.40565   0.86141   0.91662   0.00000  Uiso   1.00
C1112  C     0.59435   0.80525   0.58338   0.00000  Uiso   1.00
C1113  C     0.47661   0.82205   0.91245   0.00000  Uiso   1.00
C1114  C     0.52338   0.84461   0.58755   0.00000  Uiso   1.00
C1115  C     0.46958   0.83578   0.95776   0.00000  Uiso   1.00
C1116  C     0.53042   0.83089   0.54224   0.00000  Uiso   1.00
C1117  C     0.42347   0.85346   0.98668   0.00000  Uiso   1.00
C1118  C     0.57652   0.81320   0.51332   0.00000  Uiso   1.00
C1119  C     0.50647   0.83090   0.97549   0.00000  Uiso   1.00
C1120  C     0.49353   0.83576   0.52451   0.00000  Uiso   1.00
H1121  H     0.47848   0.70642   0.82534   0.00000  Uiso   1.00
H1122  H     0.52152   0.96024   0.67466   0.00000  Uiso   1.00
H1123  H     0.64150   0.77911   0.70693   0.00000  Uiso   1.00
H1124  H     0.35850   0.88756   0.79307   0.00000  Uiso   1.00
N1125  N     0.38093   0.83334   0.75001   0.00000  Uiso   1.00
N1126  N     0.61907   0.83332   0.74999   0.00000  Uiso   1.00
O1127  O     0.46179   0.89442   0.75001   0.00000  Uiso   1.00
O1128  O     0.53821   0.77225   0.75000   0.00000  Uiso   1.00
O1129  O     0.53823   0.89441   0.75000   0.00000  Uiso   1.00
O1130  O     0.46177   0.77226   0.75000   0.00000  Uiso   1.00
O1131  O     0.43994   0.83334   0.81613   0.00000  Uiso   1.00
O1132  O     0.56006   0.83333   0.68388   0.00000  Uiso   1.00
O1133  O     0.51639   0.83333   0.81612   0.00000  Uiso   1.00
O1134  O     0.48361   0.83334   0.68388   0.00000  Uiso   1.00
Zn1135 Zn    0.44896   0.83334   0.75000   0.00000  Uiso   1.00
Zn1136 Zn    0.55104   0.83333   0.75000   0.00000  Uiso   1.00
F1137  F     0.36396   0.86492   0.56649   0.00000  Uiso   1.00
F1138  F     0.63604   0.80173   0.93351   0.00000  Uiso   1.00
F1139  F     0.49103   0.87592   0.60934   0.00000  Uiso   1.00
F1140  F     0.50896   0.79075   0.89066   0.00000  Uiso   1.00
C1141  C     0.62339   0.78625   0.60579   0.00000  Uiso   1.00
N1142  N     0.64705   0.77073   0.62299   0.00000  Uiso   1.00
C1143  C     0.37661   0.88041   0.89421   0.00000  Uiso   1.00
N1144  N     0.35295   0.89594   0.87702   0.00000  Uiso   1.00
C1145  C     0.34634   0.88909   0.99301   0.00000  Uiso   1.00
N1146  N     0.64355   0.90668   0.51467   0.00000  Uiso   1.00
C1147  C     0.65366   0.77758   0.50699   0.00000  Uiso   1.00
N1148  N     0.35645   0.75999   0.98533   0.00000  Uiso   1.00
F1149  F     0.42540   0.83631   0.60159   0.00000  Uiso   1.00
F1150  F     0.57460   0.83035   0.89841   0.00000  Uiso   1.00
F1151  F     0.47615   0.95810   0.83413   0.00000  Uiso   1.00
F1152  F     0.52385   0.70857   0.66586   0.00000  Uiso   1.00
C1153  C     0.40124   0.77247   0.69673   0.00000  Uiso   1.00
N1154  N     0.42857   0.74742   0.67360   0.00000  Uiso   1.00
C1155  C     0.59876   0.89419   0.80327   0.00000  Uiso   1.00
N1156  N     0.57143   0.91924   0.82641   0.00000  Uiso   1.00
C1157  C     0.83354   0.91320   0.75012   0.00000  Uiso   1.00
C1158  C     0.83313   0.75347   0.74988   0.00000  Uiso   1.00
C1159  C     0.77692   0.84323   0.55437   0.00000  Uiso   1.00
C1160  C     0.88975   0.82343   0.94563   0.00000  Uiso   1.00
C1161  C     0.74356   0.85504   0.53572   0.00000  Uiso   1.00
C1162  C     0.92310   0.81163   0.96428   0.00000  Uiso   1.00
C1163  C     0.82162   0.97891   0.79281   0.00000  Uiso   1.00
C1164  C     0.84504   0.68775   0.70719   0.00000  Uiso   1.00
C1165  C     0.82118   0.68889   0.79261   0.00000  Uiso   1.00
C1166  C     0.84549   0.97778   0.70739   0.00000  Uiso   1.00
C1167  C     0.83271   0.70937   0.74987   0.00000  Uiso   1.00
C1168  C     0.83395   0.95730   0.75013   0.00000  Uiso   1.00
C1169  C     0.98565   0.80338   0.72566   0.00000  Uiso   1.00
C1170  C     0.68102   0.86329   0.77434   0.00000  Uiso   1.00
C1171  C     0.70031   0.80356   0.72509   0.00000  Uiso   1.00
C1172  C     0.96636   0.86311   0.77492   0.00000  Uiso   1.00
C1173  C     0.80210   0.83415   0.83841   0.00000  Uiso   1.00
C1174  C     0.86457   0.83252   0.66159   0.00000  Uiso   1.00
C1175  C     0.78155   0.83803   0.89015   0.00000  Uiso   1.00
C1176  C     0.88511   0.82863   0.60985   0.00000  Uiso   1.00
C1177  C     0.72496   0.86703   0.96565   0.00000  Uiso   1.00
C1178  C     0.94170   0.79963   0.53435   0.00000  Uiso   1.00
C1179  C     0.73898   0.86141   0.91662   0.00000  Uiso   1.00
C1180  C     0.92769   0.80525   0.58338   0.00000  Uiso   1.00
C1181  C     0.80995   0.82205   0.91245   0.00000  Uiso   1.00
C1182  C     0.85672   0.84461   0.58755   0.00000  Uiso   1.00
C1183  C     0.80291   0.83578   0.95776   0.00000  Uiso   1.00
C1184  C     0.86376   0.83089   0.54224   0.00000  Uiso   1.00
C1185  C     0.75681   0.85346   0.98668   0.00000  Uiso   1.00
C1186  C     0.90986   0.81320   0.51332   0.00000  Uiso   1.00
C1187  C     0.83980   0.83090   0.97549   0.00000  Uiso   1.00
C1188  C     0.82687   0.83576   0.52451   0.00000  Uiso   1.00
H1189  H     0.81181   0.70642   0.82534   0.00000  Uiso   1.00
H1190  H     0.85485   0.96024   0.67466   0.00000  Uiso   1.00
H1191  H     0.97483   0.77911   0.70693   0.00000  Uiso   1.00
H1192  H     0.69183   0.88756   0.79307   0.00000  Uiso   1.00
N1193  N     0.71426   0.83334   0.75001   0.00000  Uiso   1.00
N1194  N     0.95241   0.83332   0.74999   0.00000  Uiso   1.00
O1195  O     0.79512   0.89442   0.75001   0.00000  Uiso   1.00
O1196  O     0.87154   0.77225   0.75000   0.00000  Uiso   1.00
O1197  O     0.87157   0.89441   0.75000   0.00000  Uiso   1.00
O1198  O     0.79510   0.77226   0.75000   0.00000  Uiso   1.00
O1199  O     0.77328   0.83334   0.81613   0.00000  Uiso   1.00
O1200  O     0.89339   0.83333   0.68388   0.00000  Uiso   1.00
O1201  O     0.84972   0.83333   0.81612   0.00000  Uiso   1.00
O1202  O     0.81695   0.83334   0.68388   0.00000  Uiso   1.00
Zn1203 Zn    0.78229   0.83334   0.75000   0.00000  Uiso   1.00
Zn1204 Zn    0.88438   0.83333   0.75000   0.00000  Uiso   1.00
F1205  F     0.69729   0.86492   0.56649   0.00000  Uiso   1.00
F1206  F     0.96937   0.80173   0.93351   0.00000  Uiso   1.00
F1207  F     0.82437   0.87592   0.60934   0.00000  Uiso   1.00
F1208  F     0.84230   0.79075   0.89066   0.00000  Uiso   1.00
C1209  C     0.95673   0.78625   0.60579   0.00000  Uiso   1.00
N1210  N     0.98039   0.77073   0.62299   0.00000  Uiso   1.00
C1211  C     0.70994   0.88041   0.89421   0.00000  Uiso   1.00
N1212  N     0.68628   0.89594   0.87702   0.00000  Uiso   1.00
C1213  C     0.67968   0.88909   0.99301   0.00000  Uiso   1.00
N1214  N     0.97688   0.90668   0.51467   0.00000  Uiso   1.00
C1215  C     0.98699   0.77758   0.50699   0.00000  Uiso   1.00
N1216  N     0.68979   0.75999   0.98533   0.00000  Uiso   1.00
F1217  F     0.75874   0.83631   0.60159   0.00000  Uiso   1.00
F1218  F     0.90793   0.83035   0.89841   0.00000  Uiso   1.00
F1219  F     0.80948   0.95810   0.83413   0.00000  Uiso   1.00
F1220  F     0.85719   0.70857   0.66586   0.00000  Uiso   1.00
C1221  C     0.73457   0.77247   0.69673   0.00000  Uiso   1.00
N1222  N     0.76190   0.74742   0.67360   0.00000  Uiso   1.00
C1223  C     0.93210   0.89419   0.80327   0.00000  Uiso   1.00
N1224  N     0.90476   0.91924   0.82641   0.00000  Uiso   1.00
loop_
_geom_bond_atom_site_label_1
_geom_bond_atom_site_label_2
_geom_bond_distance
_geom_bond_site_symmetry_2
_ccdc_geom_bond_type
C1     C12     1.400   .     S
C1     O39     1.281   .     A
C1     O41     1.283   .     A
C2     O42     1.283   .     A
C2     C11     1.400   .     S
C2     O40     1.281   .     A
C3     F61     1.358   .     S
C3     C32     1.418   .     A
C3     C5      1.390   .     A
C4     F62     1.358   .     S
C4     C31     1.418   .     A
C4     C6      1.390   .     A
C5     F49     1.358   .     S
C5     C641    1.406   1_554 S
C6     F50     1.358   .     S
C6     C642    1.406   .     S
C7     F63     1.358   .     S
C7     C12     1.394   .     A
C7     C213    1.375   .     S
C8     C11     1.394   .     A
C8     F64     1.358   .     S
C8     C418    1.375   1_545 S
C9     H33     1.084   .     S
C9     C11     1.393   .     A
C9     C415    1.375   1_545 S
C10    H34     1.084   .     S
C10    C12     1.393   .     A
C10    C212    1.375   .     S
C13    N38     1.362   .     A
C13    H35     1.079   .     S
C13    C83     1.418   .     S
C14    N37     1.362   .     A
C14    H36     1.079   .     S
C14    C152    1.418   1_455 S
C15    C65     1.437   .     S
C15    N37     1.374   .     A
C15    C149    1.418   1_455 S
C16    C67     1.437   .     S
C16    N38     1.374   .     A
C16    C82     1.418   .     S
C17    O43     1.297   .     A
C17    C19     1.470   .     S
C17    O45     1.300   .     A
C18    O46     1.300   .     A
C18    O44     1.297   .     A
C18    C20     1.470   .     S
C19    C23     1.413   .     A
C19    C25     1.391   .     A
C20    C26     1.391   .     A
C20    C24     1.413   .     A
C21    C57     1.452   .     S
C21    C23     1.412   .     A
C21    C29     1.420   .     A
C22    C24     1.412   .     A
C22    C59     1.452   .     S
C22    C30     1.420   .     A
C23    C55     1.448   .     S
C24    C53     1.448   .     S
C25    F52     1.361   .     S
C25    C27     1.397   .     A
C26    C28     1.397   .     A
C26    F51     1.361   .     S
C27    C29     1.418   .     A
C27    C31     1.420   .     A
C28    C32     1.420   .     A
C28    C30     1.418   .     A
C29    C617    1.406   .     S
C30    C618    1.406   1_554 S
C31    C644    1.414   .     S
C32    C643    1.414   1_554 S
N37    Zn47    2.020   .     S
N38    Zn48    2.020   .     S
O39    Zn47    1.971   .     S
O40    Zn48    1.971   .     S
O41    Zn48    1.981   .     S
O42    Zn47    1.981   .     S
O43    Zn47    1.954   .     S
O44    Zn48    1.954   .     S
O45    Zn48    1.884   .     S
O46    Zn47    1.884   .     S
C53    N54     1.156   .     T
C55    N56     1.156   .     T
C57    N806    1.158   1_455 S
N58    C737    1.158   1_554 S
C59    N740    1.158   1_554 S
N60    C807    1.158   1_455 S
C65    N66     1.157   .     T
C67    N68     1.157   .     T
C69    C80     1.400   .     S
C69    O107    1.281   .     A
C69    O109    1.283   .     A
C70    O110    1.283   .     A
C70    C79     1.400   .     S
C70    O108    1.281   .     A
C71    F129    1.358   .     S
C71    C100    1.418   .     A
C71    C73     1.390   .     A
C72    F130    1.358   .     S
C72    C99     1.418   .     A
C72    C74     1.390   .     A
C73    F117    1.358   .     S
C73    C709    1.406   1_554 S
C74    F118    1.358   .     S
C74    C710    1.406   .     S
C75    F131    1.358   .     S
C75    C80     1.394   .     A
C75    C281    1.375   .     S
C76    C79     1.394   .     A
C76    F132    1.358   .     S
C76    C486    1.375   1_545 S
C77    H101    1.084   .     S
C77    C79     1.393   .     A
C77    C483    1.375   1_545 S
C78    H102    1.084   .     S
C78    C80     1.393   .     A
C78    C280    1.375   .     S
C81    N106    1.362   .     A
C81    H103    1.079   .     S
C81    C151    1.418   .     S
C82    N105    1.362   .     A
C82    H104    1.079   .     S
C83    C133    1.437   .     S
C83    N105    1.374   .     A
C84    C135    1.437   .     S
C84    N106    1.374   .     A
C84    C150    1.418   .     S
C85    O111    1.297   .     A
C85    C87     1.470   .     S
C85    O113    1.300   .     A
C86    O114    1.300   .     A
C86    O112    1.297   .     A
C86    C88     1.470   .     S
C87    C91     1.413   .     A
C87    C93     1.391   .     A
C88    C94     1.391   .     A
C88    C92     1.413   .     A
C89    C125    1.452   .     S
C89    C91     1.412   .     A
C89    C97     1.420   .     A
C90    C92     1.412   .     A
C90    C127    1.452   .     S
C90    C98     1.420   .     A
C91    C123    1.448   .     S
C92    C121    1.448   .     S
C93    F120    1.361   .     S
C93    C95     1.397   .     A
C94    C96     1.397   .     A
C94    F119    1.361   .     S
C95    C97     1.418   .     A
C95    C99     1.420   .     A
C96    C100    1.420   .     A
C96    C98     1.418   .     A
C97    C685    1.406   .     S
C98    C686    1.406   1_554 S
C99    C712    1.414   .     S
C100   C711    1.414   1_554 S
N105   Zn115   2.020   .     S
N106   Zn116   2.020   .     S
O107   Zn115   1.971   .     S
O108   Zn116   1.971   .     S
O109   Zn116   1.981   .     S
O110   Zn115   1.981   .     S
O111   Zn115   1.954   .     S
O112   Zn116   1.954   .     S
O113   Zn116   1.884   .     S
O114   Zn115   1.884   .     S
C121   N122    1.156   .     T
C123   N124    1.156   .     T
C125   N670    1.158   .     S
N126   C805    1.158   1_554 S
C127   N808    1.158   1_554 S
N128   C671    1.158   .     S
C133   N134    1.157   .     T
C135   N136    1.157   .     T
C137   C148    1.400   .     S
C137   O175    1.281   .     A
C137   O177    1.283   .     A
C138   O178    1.283   .     A
C138   C147    1.400   .     S
C138   O176    1.281   .     A
C139   F197    1.358   .     S
C139   C168    1.418   .     A
C139   C141    1.390   .     A
C140   F198    1.358   .     S
C140   C167    1.418   .     A
C140   C142    1.390   .     A
C141   F185    1.358   .     S
C141   C777    1.406   1_554 S
C142   F186    1.358   .     S
C142   C778    1.406   .     S
C143   F199    1.358   .     S
C143   C148    1.394   .     A
C143   C349    1.375   .     S
C144   C147    1.394   .     A
C144   F200    1.358   .     S
C144   C554    1.375   1_545 S
C145   H169    1.084   .     S
C145   C147    1.393   .     A
C145   C551    1.375   1_545 S
C146   H170    1.084   .     S
C146   C148    1.393   .     A
C146   C348    1.375   .     S
C149   N174    1.362   .     A
C149   H171    1.079   .     S
C149   C15     1.418   1_655 S
C150   N173    1.362   .     A
C150   H172    1.079   .     S
C151   C201    1.437   .     S
C151   N173    1.374   .     A
C152   C203    1.437   .     S
C152   N174    1.374   .     A
C152   C14     1.418   1_655 S
C153   O179    1.297   .     A
C153   C155    1.470   .     S
C153   O181    1.300   .     A
C154   O182    1.300   .     A
C154   O180    1.297   .     A
C154   C156    1.470   .     S
C155   C159    1.413   .     A
C155   C161    1.391   .     A
C156   C162    1.391   .     A
C156   C160    1.413   .     A
C157   C193    1.452   .     S
C157   C159    1.412   .     A
C157   C165    1.420   .     A
C158   C160    1.412   .     A
C158   C195    1.452   .     S
C158   C166    1.420   .     A
C159   C191    1.448   .     S
C160   C189    1.448   .     S
C161   F188    1.361   .     S
C161   C163    1.397   .     A
C162   C164    1.397   .     A
C162   F187    1.361   .     S
C163   C165    1.418   .     A
C163   C167    1.420   .     A
C164   C168    1.420   .     A
C164   C166    1.418   .     A
C165   C753    1.406   .     S
C166   C754    1.406   1_554 S
C167   C780    1.414   .     S
C168   C779    1.414   1_554 S
N173   Zn183   2.020   .     S
N174   Zn184   2.020   .     S
O175   Zn183   1.971   .     S
O176   Zn184   1.971   .     S
O177   Zn184   1.981   .     S
O178   Zn183   1.981   .     S
O179   Zn183   1.954   .     S
O180   Zn184   1.954   .     S
O181   Zn184   1.884   .     S
O182   Zn183   1.884   .     S
C189   N190    1.156   .     T
C191   N192    1.156   .     T
C193   N738    1.158   .     S
N194   C669    1.158   1_654 S
C195   N672    1.158   1_654 S
N196   C739    1.158   .     S
C201   N202    1.157   .     T
C203   N204    1.157   .     T
C205   C216    1.400   .     S
C205   O243    1.281   .     A
C205   O245    1.283   .     A
C206   O246    1.283   .     A
C206   C215    1.400   .     S
C206   O244    1.281   .     A
C207   F265    1.358   .     S
C207   C236    1.418   .     A
C207   C209    1.390   .     A
C208   F266    1.358   .     S
C208   C235    1.418   .     A
C208   C210    1.390   .     A
C209   F253    1.358   .     S
C209   C845    1.406   1_554 S
C210   F254    1.358   .     S
C210   C846    1.406   .     S
C211   F267    1.358   .     S
C211   C216    1.394   .     A
C211   C417    1.375   .     S
C212   C215    1.394   .     A
C212   F268    1.358   .     S
C213   H237    1.084   .     S
C213   C215    1.393   .     A
C214   H238    1.084   .     S
C214   C216    1.393   .     A
C214   C416    1.375   .     S
C217   N242    1.362   .     A
C217   H239    1.079   .     S
C217   C287    1.418   .     S
C218   N241    1.362   .     A
C218   H240    1.079   .     S
C218   C356    1.418   1_455 S
C219   C269    1.437   .     S
C219   N241    1.374   .     A
C219   C353    1.418   1_455 S
C220   C271    1.437   .     S
C220   N242    1.374   .     A
C220   C286    1.418   .     S
C221   O247    1.297   .     A
C221   C223    1.470   .     S
C221   O249    1.300   .     A
C222   O250    1.300   .     A
C222   O248    1.297   .     A
C222   C224    1.470   .     S
C223   C227    1.413   .     A
C223   C229    1.391   .     A
C224   C230    1.391   .     A
C224   C228    1.413   .     A
C225   C261    1.452   .     S
C225   C227    1.412   .     A
C225   C233    1.420   .     A
C226   C228    1.412   .     A
C226   C263    1.452   .     S
C226   C234    1.420   .     A
C227   C259    1.448   .     S
C228   C257    1.448   .     S
C229   F256    1.361   .     S
C229   C231    1.397   .     A
C230   C232    1.397   .     A
C230   F255    1.361   .     S
C231   C233    1.418   .     A
C231   C235    1.420   .     A
C232   C236    1.420   .     A
C232   C234    1.418   .     A
C233   C821    1.406   .     S
C234   C822    1.406   1_554 S
C235   C848    1.414   .     S
C236   C847    1.414   1_554 S
N241   Zn251   2.020   .     S
N242   Zn252   2.020   .     S
O243   Zn251   1.971   .     S
O244   Zn252   1.971   .     S
O245   Zn252   1.981   .     S
O246   Zn251   1.981   .     S
O247   Zn251   1.954   .     S
O248   Zn252   1.954   .     S
O249   Zn252   1.884   .     S
O250   Zn251   1.884   .     S
C257   N258    1.156   .     T
C259   N260    1.156   .     T
C261   N1010   1.158   1_455 S
N262   C941    1.158   1_554 S
C263   N944    1.158   1_554 S
N264   C1011   1.158   1_455 S
C269   N270    1.157   .     T
C271   N272    1.157   .     T
C273   C284    1.400   .     S
C273   O311    1.281   .     A
C273   O313    1.283   .     A
C274   O314    1.283   .     A
C274   C283    1.400   .     S
C274   O312    1.281   .     A
C275   F333    1.358   .     S
C275   C304    1.418   .     A
C275   C277    1.390   .     A
C276   F334    1.358   .     S
C276   C303    1.418   .     A
C276   C278    1.390   .     A
C277   F321    1.358   .     S
C277   C913    1.406   1_554 S
C278   F322    1.358   .     S
C278   C914    1.406   .     S
C279   F335    1.358   .     S
C279   C284    1.394   .     A
C279   C485    1.375   .     S
C280   C283    1.394   .     A
C280   F336    1.358   .     S
C281   H305    1.084   .     S
C281   C283    1.393   .     A
C282   H306    1.084   .     S
C282   C284    1.393   .     A
C282   C484    1.375   .     S
C285   N310    1.362   .     A
C285   H307    1.079   .     S
C285   C355    1.418   .     S
C286   N309    1.362   .     A
C286   H308    1.079   .     S
C287   C337    1.437   .     S
C287   N309    1.374   .     A
C288   C339    1.437   .     S
C288   N310    1.374   .     A
C288   C354    1.418   .     S
C289   O315    1.297   .     A
C289   C291    1.470   .     S
C289   O317    1.300   .     A
C290   O318    1.300   .     A
C290   O316    1.297   .     A
C290   C292    1.470   .     S
C291   C295    1.413   .     A
C291   C297    1.391   .     A
C292   C298    1.391   .     A
C292   C296    1.413   .     A
C293   C329    1.452   .     S
C293   C295    1.412   .     A
C293   C301    1.420   .     A
C294   C296    1.412   .     A
C294   C331    1.452   .     S
C294   C302    1.420   .     A
C295   C327    1.448   .     S
C296   C325    1.448   .     S
C297   F324    1.361   .     S
C297   C299    1.397   .     A
C298   C300    1.397   .     A
C298   F323    1.361   .     S
C299   C301    1.418   .     A
C299   C303    1.420   .     A
C300   C304    1.420   .     A
C300   C302    1.418   .     A
C301   C889    1.406   .     S
C302   C890    1.406   1_554 S
C303   C916    1.414   .     S
C304   C915    1.414   1_554 S
N309   Zn319   2.020   .     S
N310   Zn320   2.020   .     S
O311   Zn319   1.971   .     S
O312   Zn320   1.971   .     S
O313   Zn320   1.981   .     S
O314   Zn319   1.981   .     S
O315   Zn319   1.954   .     S
O316   Zn320   1.954   .     S
O317   Zn320   1.884   .     S
O318   Zn319   1.884   .     S
C325   N326    1.156   .     T
C327   N328    1.156   .     T
C329   N874    1.158   .     S
N330   C1009   1.158   1_554 S
C331   N1012   1.158   1_554 S
N332   C875    1.158   .     S
C337   N338    1.157   .     T
C339   N340    1.157   .     T
C341   C352    1.400   .     S
C341   O379    1.281   .     A
C341   O381    1.283   .     A
C342   O382    1.283   .     A
C342   C351    1.400   .     S
C342   O380    1.281   .     A
C343   F401    1.358   .     S
C343   C372    1.418   .     A
C343   C345    1.390   .     A
C344   F402    1.358   .     S
C344   C371    1.418   .     A
C344   C346    1.390   .     A
C345   F389    1.358   .     S
C345   C981    1.406   1_554 S
C346   F390    1.358   .     S
C346   C982    1.406   .     S
C347   F403    1.358   .     S
C347   C352    1.394   .     A
C347   C553    1.375   .     S
C348   C351    1.394   .     A
C348   F404    1.358   .     S
C349   H373    1.084   .     S
C349   C351    1.393   .     A
C350   H374    1.084   .     S
C350   C352    1.393   .     A
C350   C552    1.375   .     S
C353   N378    1.362   .     A
C353   H375    1.079   .     S
C353   C219    1.418   1_655 S
C354   N377    1.362   .     A
C354   H376    1.079   .     S
C355   C405    1.437   .     S
C355   N377    1.374   .     A
C356   C407    1.437   .     S
C356   N378    1.374   .     A
C356   C218    1.418   1_655 S
C357   O383    1.297   .     A
C357   C359    1.470   .     S
C357   O385    1.300   .     A
C358   O386    1.300   .     A
C358   O384    1.297   .     A
C358   C360    1.470   .     S
C359   C363    1.413   .     A
C359   C365    1.391   .     A
C360   C366    1.391   .     A
C360   C364    1.413   .     A
C361   C397    1.452   .     S
C361   C363    1.412   .     A
C361   C369    1.420   .     A
C362   C364    1.412   .     A
C362   C399    1.452   .     S
C362   C370    1.420   .     A
C363   C395    1.448   .     S
C364   C393    1.448   .     S
C365   F392    1.361   .     S
C365   C367    1.397   .     A
C366   C368    1.397   .     A
C366   F391    1.361   .     S
C367   C369    1.418   .     A
C367   C371    1.420   .     A
C368   C372    1.420   .     A
C368   C370    1.418   .     A
C369   C957    1.406   .     S
C370   C958    1.406   1_554 S
C371   C984    1.414   .     S
C372   C983    1.414   1_554 S
N377   Zn387   2.020   .     S
N378   Zn388   2.020   .     S
O379   Zn387   1.971   .     S
O380   Zn388   1.971   .     S
O381   Zn388   1.981   .     S
O382   Zn387   1.981   .     S
O383   Zn387   1.954   .     S
O384   Zn388   1.954   .     S
O385   Zn388   1.884   .     S
O386   Zn387   1.884   .     S
C393   N394    1.156   .     T
C395   N396    1.156   .     T
C397   N942    1.158   .     S
N398   C873    1.158   1_654 S
C399   N876    1.158   1_654 S
N400   C943    1.158   .     S
C405   N406    1.157   .     T
C407   N408    1.157   .     T
C409   C420    1.400   .     S
C409   O447    1.281   .     A
C409   O449    1.283   .     A
C410   O450    1.283   .     A
C410   C419    1.400   .     S
C410   O448    1.281   .     A
C411   F469    1.358   .     S
C411   C440    1.418   .     A
C411   C413    1.390   .     A
C412   F470    1.358   .     S
C412   C439    1.418   .     A
C412   C414    1.390   .     A
C413   F457    1.358   .     S
C413   C1049   1.406   1_554 S
C414   F458    1.358   .     S
C414   C1050   1.406   .     S
C415   F471    1.358   .     S
C415   C420    1.394   .     A
C415   C9      1.375   1_565 S
C416   C419    1.394   .     A
C416   F472    1.358   .     S
C417   H441    1.084   .     S
C417   C419    1.393   .     A
C418   H442    1.084   .     S
C418   C420    1.393   .     A
C418   C8      1.375   1_565 S
C421   N446    1.362   .     A
C421   H443    1.079   .     S
C421   C491    1.418   .     S
C422   N445    1.362   .     A
C422   H444    1.079   .     S
C422   C560    1.418   1_455 S
C423   C473    1.437   .     S
C423   N445    1.374   .     A
C423   C557    1.418   1_455 S
C424   C475    1.437   .     S
C424   N446    1.374   .     A
C424   C490    1.418   .     S
C425   O451    1.297   .     A
C425   C427    1.470   .     S
C425   O453    1.300   .     A
C426   O454    1.300   .     A
C426   O452    1.297   .     A
C426   C428    1.470   .     S
C427   C431    1.413   .     A
C427   C433    1.391   .     A
C428   C434    1.391   .     A
C428   C432    1.413   .     A
C429   C465    1.452   .     S
C429   C431    1.412   .     A
C429   C437    1.420   .     A
C430   C432    1.412   .     A
C430   C467    1.452   .     S
C430   C438    1.420   .     A
C431   C463    1.448   .     S
C432   C461    1.448   .     S
C433   F460    1.361   .     S
C433   C435    1.397   .     A
C434   C436    1.397   .     A
C434   F459    1.361   .     S
C435   C437    1.418   .     A
C435   C439    1.420   .     A
C436   C440    1.420   .     A
C436   C438    1.418   .     A
C437   C1025   1.406   .     S
C438   C1026   1.406   1_554 S
C439   C1052   1.414   .     S
C440   C1051   1.414   1_554 S
N445   Zn455   2.020   .     S
N446   Zn456   2.020   .     S
O447   Zn455   1.971   .     S
O448   Zn456   1.971   .     S
O449   Zn456   1.981   .     S
O450   Zn455   1.981   .     S
O451   Zn455   1.954   .     S
O452   Zn456   1.954   .     S
O453   Zn456   1.884   .     S
O454   Zn455   1.884   .     S
C461   N462    1.156   .     T
C463   N464    1.156   .     T
C465   N1214   1.158   1_455 S
N466   C1145   1.158   1_554 S
C467   N1148   1.158   1_554 S
N468   C1215   1.158   1_455 S
C473   N474    1.157   .     T
C475   N476    1.157   .     T
C477   C488    1.400   .     S
C477   O515    1.281   .     A
C477   O517    1.283   .     A
C478   O518    1.283   .     A
C478   C487    1.400   .     S
C478   O516    1.281   .     A
C479   F537    1.358   .     S
C479   C508    1.418   .     A
C479   C481    1.390   .     A
C480   F538    1.358   .     S
C480   C507    1.418   .     A
C480   C482    1.390   .     A
C481   F525    1.358   .     S
C481   C1117   1.406   1_554 S
C482   F526    1.358   .     S
C482   C1118   1.406   .     S
C483   F539    1.358   .     S
C483   C488    1.394   .     A
C483   C77     1.375   1_565 S
C484   C487    1.394   .     A
C484   F540    1.358   .     S
C485   H509    1.084   .     S
C485   C487    1.393   .     A
C486   H510    1.084   .     S
C486   C488    1.393   .     A
C486   C76     1.375   1_565 S
C489   N514    1.362   .     A
C489   H511    1.079   .     S
C489   C559    1.418   .     S
C490   N513    1.362   .     A
C490   H512    1.079   .     S
C491   C541    1.437   .     S
C491   N513    1.374   .     A
C492   C543    1.437   .     S
C492   N514    1.374   .     A
C492   C558    1.418   .     S
C493   O519    1.297   .     A
C493   C495    1.470   .     S
C493   O521    1.300   .     A
C494   O522    1.300   .     A
C494   O520    1.297   .     A
C494   C496    1.470   .     S
C495   C499    1.413   .     A
C495   C501    1.391   .     A
C496   C502    1.391   .     A
C496   C500    1.413   .     A
C497   C533    1.452   .     S
C497   C499    1.412   .     A
C497   C505    1.420   .     A
C498   C500    1.412   .     A
C498   C535    1.452   .     S
C498   C506    1.420   .     A
C499   C531    1.448   .     S
C500   C529    1.448   .     S
C501   F528    1.361   .     S
C501   C503    1.397   .     A
C502   C504    1.397   .     A
C502   F527    1.361   .     S
C503   C505    1.418   .     A
C503   C507    1.420   .     A
C504   C508    1.420   .     A
C504   C506    1.418   .     A
C505   C1093   1.406   .     S
C506   C1094   1.406   1_554 S
C507   C1120   1.414   .     S
C508   C1119   1.414   1_554 S
N513   Zn523   2.020   .     S
N514   Zn524   2.020   .     S
O515   Zn523   1.971   .     S
O516   Zn524   1.971   .     S
O517   Zn524   1.981   .     S
O518   Zn523   1.981   .     S
O519   Zn523   1.954   .     S
O520   Zn524   1.954   .     S
O521   Zn524   1.884   .     S
O522   Zn523   1.884   .     S
C529   N530    1.156   .     T
C531   N532    1.156   .     T
C533   N1078   1.158   .     S
N534   C1213   1.158   1_554 S
C535   N1216   1.158   1_554 S
N536   C1079   1.158   .     S
C541   N542    1.157   .     T
C543   N544    1.157   .     T
C545   C556    1.400   .     S
C545   O583    1.281   .     A
C545   O585    1.283   .     A
C546   O586    1.283   .     A
C546   C555    1.400   .     S
C546   O584    1.281   .     A
C547   F605    1.358   .     S
C547   C576    1.418   .     A
C547   C549    1.390   .     A
C548   F606    1.358   .     S
C548   C575    1.418   .     A
C548   C550    1.390   .     A
C549   F593    1.358   .     S
C549   C1185   1.406   1_554 S
C550   F594    1.358   .     S
C550   C1186   1.406   .     S
C551   F607    1.358   .     S
C551   C556    1.394   .     A
C551   C145    1.375   1_565 S
C552   C555    1.394   .     A
C552   F608    1.358   .     S
C553   H577    1.084   .     S
C553   C555    1.393   .     A
C554   H578    1.084   .     S
C554   C556    1.393   .     A
C554   C144    1.375   1_565 S
C557   N582    1.362   .     A
C557   H579    1.079   .     S
C557   C423    1.418   1_655 S
C558   N581    1.362   .     A
C558   H580    1.079   .     S
C559   C609    1.437   .     S
C559   N581    1.374   .     A
C560   C611    1.437   .     S
C560   N582    1.374   .     A
C560   C422    1.418   1_655 S
C561   O587    1.297   .     A
C561   C563    1.470   .     S
C561   O589    1.300   .     A
C562   O590    1.300   .     A
C562   O588    1.297   .     A
C562   C564    1.470   .     S
C563   C567    1.413   .     A
C563   C569    1.391   .     A
C564   C570    1.391   .     A
C564   C568    1.413   .     A
C565   C601    1.452   .     S
C565   C567    1.412   .     A
C565   C573    1.420   .     A
C566   C568    1.412   .     A
C566   C603    1.452   .     S
C566   C574    1.420   .     A
C567   C599    1.448   .     S
C568   C597    1.448   .     S
C569   F596    1.361   .     S
C569   C571    1.397   .     A
C570   C572    1.397   .     A
C570   F595    1.361   .     S
C571   C573    1.418   .     A
C571   C575    1.420   .     A
C572   C576    1.420   .     A
C572   C574    1.418   .     A
C573   C1161   1.406   .     S
C574   C1162   1.406   1_554 S
C575   C1188   1.414   .     S
C576   C1187   1.414   1_554 S
N581   Zn591   2.020   .     S
N582   Zn592   2.020   .     S
O583   Zn591   1.971   .     S
O584   Zn592   1.971   .     S
O585   Zn592   1.981   .     S
O586   Zn591   1.981   .     S
O587   Zn591   1.954   .     S
O588   Zn592   1.954   .     S
O589   Zn592   1.884   .     S
O590   Zn591   1.884   .     S
C597   N598    1.156   .     T
C599   N600    1.156   .     T
C601   N1146   1.158   .     S
N602   C1077   1.158   1_654 S
C603   N1080   1.158   1_654 S
N604   C1147   1.158   .     S
C609   N610    1.157   .     T
C611   N612    1.157   .     T
C613   C624    1.400   .     S
C613   O651    1.281   .     A
C613   O653    1.283   .     A
C614   O654    1.283   .     A
C614   C623    1.400   .     S
C614   O652    1.281   .     A
C615   F673    1.358   .     S
C615   C644    1.418   .     A
C615   C617    1.390   .     A
C616   F674    1.358   .     S
C616   C643    1.418   .     A
C616   C618    1.390   .     A
C617   F661    1.358   .     S
C618   F662    1.358   .     S
C618   C30     1.406   1_556 S
C619   F675    1.358   .     S
C619   C624    1.394   .     A
C619   C825    1.375   .     S
C620   C623    1.394   .     A
C620   F676    1.358   .     S
C620   C1030   1.375   1_545 S
C621   H645    1.084   .     S
C621   C623    1.393   .     A
C621   C1027   1.375   1_545 S
C622   H646    1.084   .     S
C622   C624    1.393   .     A
C622   C824    1.375   .     S
C625   N650    1.362   .     A
C625   H647    1.079   .     S
C625   C695    1.418   .     S
C626   N649    1.362   .     A
C626   H648    1.079   .     S
C626   C764    1.418   1_455 S
C627   C677    1.437   .     S
C627   N649    1.374   .     A
C627   C761    1.418   1_455 S
C628   C679    1.437   .     S
C628   N650    1.374   .     A
C628   C694    1.418   .     S
C629   O655    1.297   .     A
C629   C631    1.470   .     S
C629   O657    1.300   .     A
C630   O658    1.300   .     A
C630   O656    1.297   .     A
C630   C632    1.470   .     S
C631   C635    1.413   .     A
C631   C637    1.391   .     A
C632   C638    1.391   .     A
C632   C636    1.413   .     A
C633   C669    1.452   .     S
C633   C635    1.412   .     A
C633   C641    1.420   .     A
C634   C636    1.412   .     A
C634   C671    1.452   .     S
C634   C642    1.420   .     A
C635   C667    1.448   .     S
C636   C665    1.448   .     S
C637   F664    1.361   .     S
C637   C639    1.397   .     A
C638   C640    1.397   .     A
C638   F663    1.361   .     S
C639   C641    1.418   .     A
C639   C643    1.420   .     A
C640   C644    1.420   .     A
C640   C642    1.418   .     A
C641   C5      1.406   1_556 S
C643   C32     1.414   1_556 S
N649   Zn659   2.020   .     S
N650   Zn660   2.020   .     S
O651   Zn659   1.971   .     S
O652   Zn660   1.971   .     S
O653   Zn660   1.981   .     S
O654   Zn659   1.981   .     S
O655   Zn659   1.954   .     S
O656   Zn660   1.954   .     S
O657   Zn660   1.884   .     S
O658   Zn659   1.884   .     S
C665   N666    1.156   .     T
C667   N668    1.156   .     T
C669   N194    1.158   1_456 S
N672   C195    1.158   1_456 S
C677   N678    1.157   .     T
C679   N680    1.157   .     T
C681   C692    1.400   .     S
C681   O719    1.281   .     A
C681   O721    1.283   .     A
C682   O722    1.283   .     A
C682   C691    1.400   .     S
C682   O720    1.281   .     A
C683   F741    1.358   .     S
C683   C712    1.418   .     A
C683   C685    1.390   .     A
C684   F742    1.358   .     S
C684   C711    1.418   .     A
C684   C686    1.390   .     A
C685   F729    1.358   .     S
C686   F730    1.358   .     S
C686   C98     1.406   1_556 S
C687   F743    1.358   .     S
C687   C692    1.394   .     A
C687   C893    1.375   .     S
C688   C691    1.394   .     A
C688   F744    1.358   .     S
C688   C1098   1.375   1_545 S
C689   H713    1.084   .     S
C689   C691    1.393   .     A
C689   C1095   1.375   1_545 S
C690   H714    1.084   .     S
C690   C692    1.393   .     A
C690   C892    1.375   .     S
C693   N718    1.362   .     A
C693   H715    1.079   .     S
C693   C763    1.418   .     S
C694   N717    1.362   .     A
C694   H716    1.079   .     S
C695   C745    1.437   .     S
C695   N717    1.374   .     A
C696   C747    1.437   .     S
C696   N718    1.374   .     A
C696   C762    1.418   .     S
C697   O723    1.297   .     A
C697   C699    1.470   .     S
C697   O725    1.300   .     A
C698   O726    1.300   .     A
C698   O724    1.297   .     A
C698   C700    1.470   .     S
C699   C703    1.413   .     A
C699   C705    1.391   .     A
C700   C706    1.391   .     A
C700   C704    1.413   .     A
C701   C737    1.452   .     S
C701   C703    1.412   .     A
C701   C709    1.420   .     A
C702   C704    1.412   .     A
C702   C739    1.452   .     S
C702   C710    1.420   .     A
C703   C735    1.448   .     S
C704   C733    1.448   .     S
C705   F732    1.361   .     S
C705   C707    1.397   .     A
C706   C708    1.397   .     A
C706   F731    1.361   .     S
C707   C709    1.418   .     A
C707   C711    1.420   .     A
C708   C712    1.420   .     A
C708   C710    1.418   .     A
C709   C73     1.406   1_556 S
C711   C100    1.414   1_556 S
N717   Zn727   2.020   .     S
N718   Zn728   2.020   .     S
O719   Zn727   1.971   .     S
O720   Zn728   1.971   .     S
O721   Zn728   1.981   .     S
O722   Zn727   1.981   .     S
O723   Zn727   1.954   .     S
O724   Zn728   1.954   .     S
O725   Zn728   1.884   .     S
O726   Zn727   1.884   .     S
C733   N734    1.156   .     T
C735   N736    1.156   .     T
C737   N58     1.158   1_556 S
N740   C59     1.158   1_556 S
C745   N746    1.157   .     T
C747   N748    1.157   .     T
C749   C760    1.400   .     S
C749   O787    1.281   .     A
C749   O789    1.283   .     A
C750   O790    1.283   .     A
C750   C759    1.400   .     S
C750   O788    1.281   .     A
C751   F809    1.358   .     S
C751   C780    1.418   .     A
C751   C753    1.390   .     A
C752   F810    1.358   .     S
C752   C779    1.418   .     A
C752   C754    1.390   .     A
C753   F797    1.358   .     S
C754   F798    1.358   .     S
C754   C166    1.406   1_556 S
C755   F811    1.358   .     S
C755   C760    1.394   .     A
C755   C961    1.375   .     S
C756   C759    1.394   .     A
C756   F812    1.358   .     S
C756   C1166   1.375   1_545 S
C757   H781    1.084   .     S
C757   C759    1.393   .     A
C757   C1163   1.375   1_545 S
C758   H782    1.084   .     S
C758   C760    1.393   .     A
C758   C960    1.375   .     S
C761   N786    1.362   .     A
C761   H783    1.079   .     S
C761   C627    1.418   1_655 S
C762   N785    1.362   .     A
C762   H784    1.079   .     S
C763   C813    1.437   .     S
C763   N785    1.374   .     A
C764   C815    1.437   .     S
C764   N786    1.374   .     A
C764   C626    1.418   1_655 S
C765   O791    1.297   .     A
C765   C767    1.470   .     S
C765   O793    1.300   .     A
C766   O794    1.300   .     A
C766   O792    1.297   .     A
C766   C768    1.470   .     S
C767   C771    1.413   .     A
C767   C773    1.391   .     A
C768   C774    1.391   .     A
C768   C772    1.413   .     A
C769   C805    1.452   .     S
C769   C771    1.412   .     A
C769   C777    1.420   .     A
C770   C772    1.412   .     A
C770   C807    1.452   .     S
C770   C778    1.420   .     A
C771   C803    1.448   .     S
C772   C801    1.448   .     S
C773   F800    1.361   .     S
C773   C775    1.397   .     A
C774   C776    1.397   .     A
C774   F799    1.361   .     S
C775   C777    1.418   .     A
C775   C779    1.420   .     A
C776   C780    1.420   .     A
C776   C778    1.418   .     A
C777   C141    1.406   1_556 S
C779   C168    1.414   1_556 S
N785   Zn795   2.020   .     S
N786   Zn796   2.020   .     S
O787   Zn795   1.971   .     S
O788   Zn796   1.971   .     S
O789   Zn796   1.981   .     S
O790   Zn795   1.981   .     S
O791   Zn795   1.954   .     S
O792   Zn796   1.954   .     S
O793   Zn796   1.884   .     S
O794   Zn795   1.884   .     S
C801   N802    1.156   .     T
C803   N804    1.156   .     T
C805   N126    1.158   1_556 S
N806   C57     1.158   1_655 S
C807   N60     1.158   1_655 S
N808   C127    1.158   1_556 S
C813   N814    1.157   .     T
C815   N816    1.157   .     T
C817   C828    1.400   .     S
C817   O855    1.281   .     A
C817   O857    1.283   .     A
C818   O858    1.283   .     A
C818   C827    1.400   .     S
C818   O856    1.281   .     A
C819   F877    1.358   .     S
C819   C848    1.418   .     A
C819   C821    1.390   .     A
C820   F878    1.358   .     S
C820   C847    1.418   .     A
C820   C822    1.390   .     A
C821   F865    1.358   .     S
C822   F866    1.358   .     S
C822   C234    1.406   1_556 S
C823   F879    1.358   .     S
C823   C828    1.394   .     A
C823   C1029   1.375   .     S
C824   C827    1.394   .     A
C824   F880    1.358   .     S
C825   H849    1.084   .     S
C825   C827    1.393   .     A
C826   H850    1.084   .     S
C826   C828    1.393   .     A
C826   C1028   1.375   .     S
C829   N854    1.362   .     A
C829   H851    1.079   .     S
C829   C899    1.418   .     S
C830   N853    1.362   .     A
C830   H852    1.079   .     S
C830   C968    1.418   1_455 S
C831   C881    1.437   .     S
C831   N853    1.374   .     A
C831   C965    1.418   1_455 S
C832   C883    1.437   .     S
C832   N854    1.374   .     A
C832   C898    1.418   .     S
C833   O859    1.297   .     A
C833   C835    1.470   .     S
C833   O861    1.300   .     A
C834   O862    1.300   .     A
C834   O860    1.297   .     A
C834   C836    1.470   .     S
C835   C839    1.413   .     A
C835   C841    1.391   .     A
C836   C842    1.391   .     A
C836   C840    1.413   .     A
C837   C873    1.452   .     S
C837   C839    1.412   .     A
C837   C845    1.420   .     A
C838   C840    1.412   .     A
C838   C875    1.452   .     S
C838   C846    1.420   .     A
C839   C871    1.448   .     S
C840   C869    1.448   .     S
C841   F868    1.361   .     S
C841   C843    1.397   .     A
C842   C844    1.397   .     A
C842   F867    1.361   .     S
C843   C845    1.418   .     A
C843   C847    1.420   .     A
C844   C848    1.420   .     A
C844   C846    1.418   .     A
C845   C209    1.406   1_556 S
C847   C236    1.414   1_556 S
N853   Zn863   2.020   .     S
N854   Zn864   2.020   .     S
O855   Zn863   1.971   .     S
O856   Zn864   1.971   .     S
O857   Zn864   1.981   .     S
O858   Zn863   1.981   .     S
O859   Zn863   1.954   .     S
O860   Zn864   1.954   .     S
O861   Zn864   1.884   .     S
O862   Zn863   1.884   .     S
C869   N870    1.156   .     T
C871   N872    1.156   .     T
C873   N398    1.158   1_456 S
N876   C399    1.158   1_456 S
C881   N882    1.157   .     T
C883   N884    1.157   .     T
C885   C896    1.400   .     S
C885   O923    1.281   .     A
C885   O925    1.283   .     A
C886   O926    1.283   .     A
C886   C895    1.400   .     S
C886   O924    1.281   .     A
C887   F945    1.358   .     S
C887   C916    1.418   .     A
C887   C889    1.390   .     A
C888   F946    1.358   .     S
C888   C915    1.418   .     A
C888   C890    1.390   .     A
C889   F933    1.358   .     S
C890   F934    1.358   .     S
C890   C302    1.406   1_556 S
C891   F947    1.358   .     S
C891   C896    1.394   .     A
C891   C1097   1.375   .     S
C892   C895    1.394   .     A
C892   F948    1.358   .     S
C893   H917    1.084   .     S
C893   C895    1.393   .     A
C894   H918    1.084   .     S
C894   C896    1.393   .     A
C894   C1096   1.375   .     S
C897   N922    1.362   .     A
C897   H919    1.079   .     S
C897   C967    1.418   .     S
C898   N921    1.362   .     A
C898   H920    1.079   .     S
C899   C949    1.437   .     S
C899   N921    1.374   .     A
C900   C951    1.437   .     S
C900   N922    1.374   .     A
C900   C966    1.418   .     S
C901   O927    1.297   .     A
C901   C903    1.470   .     S
C901   O929    1.300   .     A
C902   O930    1.300   .     A
C902   O928    1.297   .     A
C902   C904    1.470   .     S
C903   C907    1.413   .     A
C903   C909    1.391   .     A
C904   C910    1.391   .     A
C904   C908    1.413   .     A
C905   C941    1.452   .     S
C905   C907    1.412   .     A
C905   C913    1.420   .     A
C906   C908    1.412   .     A
C906   C943    1.452   .     S
C906   C914    1.420   .     A
C907   C939    1.448   .     S
C908   C937    1.448   .     S
C909   F936    1.361   .     S
C909   C911    1.397   .     A
C910   C912    1.397   .     A
C910   F935    1.361   .     S
C911   C913    1.418   .     A
C911   C915    1.420   .     A
C912   C916    1.420   .     A
C912   C914    1.418   .     A
C913   C277    1.406   1_556 S
C915   C304    1.414   1_556 S
N921   Zn931   2.020   .     S
N922   Zn932   2.020   .     S
O923   Zn931   1.971   .     S
O924   Zn932   1.971   .     S
O925   Zn932   1.981   .     S
O926   Zn931   1.981   .     S
O927   Zn931   1.954   .     S
O928   Zn932   1.954   .     S
O929   Zn932   1.884   .     S
O930   Zn931   1.884   .     S
C937   N938    1.156   .     T
C939   N940    1.156   .     T
C941   N262    1.158   1_556 S
N944   C263    1.158   1_556 S
C949   N950    1.157   .     T
C951   N952    1.157   .     T
C953   C964    1.400   .     S
C953   O991    1.281   .     A
C953   O993    1.283   .     A
C954   O994    1.283   .     A
C954   C963    1.400   .     S
C954   O992    1.281   .     A
C955   F1013   1.358   .     S
C955   C984    1.418   .     A
C955   C957    1.390   .     A
C956   F1014   1.358   .     S
C956   C983    1.418   .     A
C956   C958    1.390   .     A
C957   F1001   1.358   .     S
C958   F1002   1.358   .     S
C958   C370    1.406   1_556 S
C959   F1015   1.358   .     S
C959   C964    1.394   .     A
C959   C1165   1.375   .     S
C960   C963    1.394   .     A
C960   F1016   1.358   .     S
C961   H985    1.084   .     S
C961   C963    1.393   .     A
C962   H986    1.084   .     S
C962   C964    1.393   .     A
C962   C1164   1.375   .     S
C965   N990    1.362   .     A
C965   H987    1.079   .     S
C965   C831    1.418   1_655 S
C966   N989    1.362   .     A
C966   H988    1.079   .     S
C967   C1017   1.437   .     S
C967   N989    1.374   .     A
C968   C1019   1.437   .     S
C968   N990    1.374   .     A
C968   C830    1.418   1_655 S
C969   O995    1.297   .     A
C969   C971    1.470   .     S
C969   O997    1.300   .     A
C970   O998    1.300   .     A
C970   O996    1.297   .     A
C970   C972    1.470   .     S
C971   C975    1.413   .     A
C971   C977    1.391   .     A
C972   C978    1.391   .     A
C972   C976    1.413   .     A
C973   C1009   1.452   .     S
C973   C975    1.412   .     A
C973   C981    1.420   .     A
C974   C976    1.412   .     A
C974   C1011   1.452   .     S
C974   C982    1.420   .     A
C975   C1007   1.448   .     S
C976   C1005   1.448   .     S
C977   F1004   1.361   .     S
C977   C979    1.397   .     A
C978   C980    1.397   .     A
C978   F1003   1.361   .     S
C979   C981    1.418   .     A
C979   C983    1.420   .     A
C980   C984    1.420   .     A
C980   C982    1.418   .     A
C981   C345    1.406   1_556 S
C983   C372    1.414   1_556 S
N989   Zn999   2.020   .     S
N990   Zn1000  2.020   .     S
O991   Zn999   1.971   .     S
O992   Zn1000  1.971   .     S
O993   Zn1000  1.981   .     S
O994   Zn999   1.981   .     S
O995   Zn999   1.954   .     S
O996   Zn1000  1.954   .     S
O997   Zn1000  1.884   .     S
O998   Zn999   1.884   .     S
C1005  N1006   1.156   .     T
C1007  N1008   1.156   .     T
C1009  N330    1.158   1_556 S
N1010  C261    1.158   1_655 S
C1011  N264    1.158   1_655 S
N1012  C331    1.158   1_556 S
C1017  N1018   1.157   .     T
C1019  N1020   1.157   .     T
C1021  C1032   1.400   .     S
C1021  O1059   1.281   .     A
C1021  O1061   1.283   .     A
C1022  O1062   1.283   .     A
C1022  C1031   1.400   .     S
C1022  O1060   1.281   .     A
C1023  F1081   1.358   .     S
C1023  C1052   1.418   .     A
C1023  C1025   1.390   .     A
C1024  F1082   1.358   .     S
C1024  C1051   1.418   .     A
C1024  C1026   1.390   .     A
C1025  F1069   1.358   .     S
C1026  F1070   1.358   .     S
C1026  C438    1.406   1_556 S
C1027  F1083   1.358   .     S
C1027  C1032   1.394   .     A
C1027  C621    1.375   1_565 S
C1028  C1031   1.394   .     A
C1028  F1084   1.358   .     S
C1029  H1053   1.084   .     S
C1029  C1031   1.393   .     A
C1030  H1054   1.084   .     S
C1030  C1032   1.393   .     A
C1030  C620    1.375   1_565 S
C1033  N1058   1.362   .     A
C1033  H1055   1.079   .     S
C1033  C1103   1.418   .     S
C1034  N1057   1.362   .     A
C1034  H1056   1.079   .     S
C1034  C1172   1.418   1_455 S
C1035  C1085   1.437   .     S
C1035  N1057   1.374   .     A
C1035  C1169   1.418   1_455 S
C1036  C1087   1.437   .     S
C1036  N1058   1.374   .     A
C1036  C1102   1.418   .     S
C1037  O1063   1.297   .     A
C1037  C1039   1.470   .     S
C1037  O1065   1.300   .     A
C1038  O1066   1.300   .     A
C1038  O1064   1.297   .     A
C1038  C1040   1.470   .     S
C1039  C1043   1.413   .     A
C1039  C1045   1.391   .     A
C1040  C1046   1.391   .     A
C1040  C1044   1.413   .     A
C1041  C1077   1.452   .     S
C1041  C1043   1.412   .     A
C1041  C1049   1.420   .     A
C1042  C1044   1.412   .     A
C1042  C1079   1.452   .     S
C1042  C1050   1.420   .     A
C1043  C1075   1.448   .     S
C1044  C1073   1.448   .     S
C1045  F1072   1.361   .     S
C1045  C1047   1.397   .     A
C1046  C1048   1.397   .     A
C1046  F1071   1.361   .     S
C1047  C1049   1.418   .     A
C1047  C1051   1.420   .     A
C1048  C1052   1.420   .     A
C1048  C1050   1.418   .     A
C1049  C413    1.406   1_556 S
C1051  C440    1.414   1_556 S
N1057  Zn1067  2.020   .     S
N1058  Zn1068  2.020   .     S
O1059  Zn1067  1.971   .     S
O1060  Zn1068  1.971   .     S
O1061  Zn1068  1.981   .     S
O1062  Zn1067  1.981   .     S
O1063  Zn1067  1.954   .     S
O1064  Zn1068  1.954   .     S
O1065  Zn1068  1.884   .     S
O1066  Zn1067  1.884   .     S
C1073  N1074   1.156   .     T
C1075  N1076   1.156   .     T
C1077  N602    1.158   1_456 S
N1080  C603    1.158   1_456 S
C1085  N1086   1.157   .     T
C1087  N1088   1.157   .     T
C1089  C1100   1.400   .     S
C1089  O1127   1.281   .     A
C1089  O1129   1.283   .     A
C1090  O1130   1.283   .     A
C1090  C1099   1.400   .     S
C1090  O1128   1.281   .     A
C1091  F1149   1.358   .     S
C1091  C1120   1.418   .     A
C1091  C1093   1.390   .     A
C1092  F1150   1.358   .     S
C1092  C1119   1.418   .     A
C1092  C1094   1.390   .     A
C1093  F1137   1.358   .     S
C1094  F1138   1.358   .     S
C1094  C506    1.406   1_556 S
C1095  F1151   1.358   .     S
C1095  C1100   1.394   .     A
C1095  C689    1.375   1_565 S
C1096  C1099   1.394   .     A
C1096  F1152   1.358   .     S
C1097  H1121   1.084   .     S
C1097  C1099   1.393   .     A
C1098  H1122   1.084   .     S
C1098  C1100   1.393   .     A
C1098  C688    1.375   1_565 S
C1101  N1126   1.362   .     A
C1101  H1123   1.079   .     S
C1101  C1171   1.418   .     S
C1102  N1125   1.362   .     A
C1102  H1124   1.079   .     S
C1103  C1153   1.437   .     S
C1103  N1125   1.374   .     A
C1104  C1155   1.437   .     S
C1104  N1126   1.374   .     A
C1104  C1170   1.418   .     S
C1105  O1131   1.297   .     A
C1105  C1107   1.470   .     S
C1105  O1133   1.300   .     A
C1106  O1134   1.300   .     A
C1106  O1132   1.297   .     A
C1106  C1108   1.470   .     S
C1107  C1111   1.413   .     A
C1107  C1113   1.391   .     A
C1108  C1114   1.391   .     A
C1108  C1112   1.413   .     A
C1109  C1145   1.452   .     S
C1109  C1111   1.412   .     A
C1109  C1117   1.420   .     A
C1110  C1112   1.412   .     A
C1110  C1147   1.452   .     S
C1110  C1118   1.420   .     A
C1111  C1143   1.448   .     S
C1112  C1141   1.448   .     S
C1113  F1140   1.361   .     S
C1113  C1115   1.397   .     A
C1114  C1116   1.397   .     A
C1114  F1139   1.361   .     S
C1115  C1117   1.418   .     A
C1115  C1119   1.420   .     A
C1116  C1120   1.420   .     A
C1116  C1118   1.418   .     A
C1117  C481    1.406   1_556 S
C1119  C508    1.414   1_556 S
N1125  Zn1135  2.020   .     S
N1126  Zn1136  2.020   .     S
O1127  Zn1135  1.971   .     S
O1128  Zn1136  1.971   .     S
O1129  Zn1136  1.981   .     S
O1130  Zn1135  1.981   .     S
O1131  Zn1135  1.954   .     S
O1132  Zn1136  1.954   .     S
O1133  Zn1136  1.884   .     S
O1134  Zn1135  1.884   .     S
C1141  N1142   1.156   .     T
C1143  N1144   1.156   .     T
C1145  N466    1.158   1_556 S
N1148  C467    1.158   1_556 S
C1153  N1154   1.157   .     T
C1155  N1156   1.157   .     T
C1157  C1168   1.400   .     S
C1157  O1195   1.281   .     A
C1157  O1197   1.283   .     A
C1158  O1198   1.283   .     A
C1158  C1167   1.400   .     S
C1158  O1196   1.281   .     A
C1159  F1217   1.358   .     S
C1159  C1188   1.418   .     A
C1159  C1161   1.390   .     A
C1160  F1218   1.358   .     S
C1160  C1187   1.418   .     A
C1160  C1162   1.390   .     A
C1161  F1205   1.358   .     S
C1162  F1206   1.358   .     S
C1162  C574    1.406   1_556 S
C1163  F1219   1.358   .     S
C1163  C1168   1.394   .     A
C1163  C757    1.375   1_565 S
C1164  C1167   1.394   .     A
C1164  F1220   1.358   .     S
C1165  H1189   1.084   .     S
C1165  C1167   1.393   .     A
C1166  H1190   1.084   .     S
C1166  C1168   1.393   .     A
C1166  C756    1.375   1_565 S
C1169  N1194   1.362   .     A
C1169  H1191   1.079   .     S
C1169  C1035   1.418   1_655 S
C1170  N1193   1.362   .     A
C1170  H1192   1.079   .     S
C1171  C1221   1.437   .     S
C1171  N1193   1.374   .     A
C1172  C1223   1.437   .     S
C1172  N1194   1.374   .     A
C1172  C1034   1.418   1_655 S
C1173  O1199   1.297   .     A
C1173  C1175   1.470   .     S
C1173  O1201   1.300   .     A
C1174  O1202   1.300   .     A
C1174  O1200   1.297   .     A
C1174  C1176   1.470   .     S
C1175  C1179   1.413   .     A
C1175  C1181   1.391   .     A
C1176  C1182   1.391   .     A
C1176  C1180   1.413   .     A
C1177  C1213   1.452   .     S
C1177  C1179   1.412   .     A
C1177  C1185   1.420   .     A
C1178  C1180   1.412   .     A
C1178  C1215   1.452   .     S
C1178  C1186   1.420   .     A
C1179  C1211   1.448   .     S
C1180  C1209   1.448   .     S
C1181  F1208   1.361   .     S
C1181  C1183   1.397   .     A
C1182  C1184   1.397   .     A
C1182  F1207   1.361   .     S
C1183  C1185   1.418   .     A
C1183  C1187   1.420   .     A
C1184  C1188   1.420   .     A
C1184  C1186   1.418   .     A
C1185  C549    1.406   1_556 S
C1187  C576    1.414   1_556 S
N1193  Zn1203  2.020   .     S
N1194  Zn1204  2.020   .     S
O1195  Zn1203  1.971   .     S
O1196  Zn1204  1.971   .     S
O1197  Zn1204  1.981   .     S
O1198  Zn1203  1.981   .     S
O1199  Zn1203  1.954   .     S
O1200  Zn1204  1.954   .     S
O1201  Zn1204  1.884   .     S
O1202  Zn1203  1.884   .     S
C1209  N1210   1.156   .     T
C1211  N1212   1.156   .     T
C1213  N534    1.158   1_556 S
N1214  C465    1.158   1_655 S
C1215  N468    1.158   1_655 S
N1216  C535    1.158   1_556 S
C1221  N1222   1.157   .     T
C1223  N1224   1.157   .     T
