data_str_m3_o1_o18_pcu_sym.55
_audit_creation_date              2020-01-03
_audit_creation_method            'Materials Studio'
_symmetry_space_group_name_H-M    'P1'
_symmetry_Int_Tables_number       1
_symmetry_cell_setting            triclinic
loop_
_symmetry_equiv_pos_as_xyz
  x,y,z
_cell_length_a                    29.5855
_cell_length_b                    31.8934
_cell_length_c                    31.0258
_cell_angle_alpha                 90.1707
_cell_angle_beta                  67.0791
_cell_angle_gamma                 90.2999
loop_
_atom_site_label
_atom_site_type_symbol
_atom_site_fract_x
_atom_site_fract_y
_atom_site_fract_z
_atom_site_U_iso_or_equiv
_atom_site_adp_type
_atom_site_occupancy
C1     C     0.16728   0.24650   0.24895   0.00000  Uiso   1.00
C2     C     0.13839   0.31085   0.29085   0.00000  Uiso   1.00
C3     C     0.16558   0.04268   0.25076   0.00000  Uiso   1.00
C4     C     0.16775   0.29065   0.24924   0.00000  Uiso   1.00
C5     C     0.32215   0.14315   0.21834   0.00000  Uiso   1.00
C6     C     0.01119   0.19019   0.28166   0.00000  Uiso   1.00
C7     C     0.03671   0.14313   0.21838   0.00000  Uiso   1.00
C8     C     0.29662   0.19020   0.28162   0.00000  Uiso   1.00
C9     C     0.13586   0.16576   0.33803   0.00000  Uiso   1.00
C10    C     0.19747   0.16757   0.16197   0.00000  Uiso   1.00
C11    C     0.11614   0.16568   0.38891   0.00000  Uiso   1.00
C12    C     0.16605   0.08684   0.25105   0.00000  Uiso   1.00
C13    C     0.21719   0.16765   0.11109   0.00000  Uiso   1.00
C14    C     0.05698   0.18977   0.46315   0.00000  Uiso   1.00
C15    C     0.27635   0.14357   0.03685   0.00000  Uiso   1.00
C16    C     0.07123   0.18475   0.41507   0.00000  Uiso   1.00
C17    C     0.26211   0.14858   0.08493   0.00000  Uiso   1.00
C18    C     0.14569   0.15037   0.41113   0.00000  Uiso   1.00
C19    C     0.18765   0.18296   0.08887   0.00000  Uiso   1.00
C20    C     0.13710   0.16400   0.45670   0.00000  Uiso   1.00
C21    C     0.19624   0.16933   0.04330   0.00000  Uiso   1.00
C22    C     0.08990   0.17995   0.48411   0.00000  Uiso   1.00
C23    C     0.10970   0.17752   0.05224   0.00000  Uiso   1.00
C24    C     0.24343   0.15338   0.01589   0.00000  Uiso   1.00
C25    C     0.17352   0.16260   0.47582   0.00000  Uiso   1.00
C26    C     0.15981   0.17073   0.02417   0.00000  Uiso   1.00
C27    C     0.22635   0.29014   0.16397   0.00000  Uiso   1.00
C28    C     0.10698   0.04319   0.33603   0.00000  Uiso   1.00
C29    C     0.22363   0.15581   0.44776   0.00000  Uiso   1.00
C30    C     0.07596   0.18476   0.03214   0.00000  Uiso   1.00
C31    C     0.25737   0.14857   0.46786   0.00000  Uiso   1.00
C32    C     0.19629   0.31237   0.20810   0.00000  Uiso   1.00
C33    C     0.13704   0.02096   0.29190   0.00000  Uiso   1.00
C34    C     0.19495   0.02248   0.20915   0.00000  Uiso   1.00
Cl35   Cl    0.14936   0.22669   0.11424   0.00000  Uiso   1.00
Cl36   Cl    0.18397   0.10665   0.38575   0.00000  Uiso   1.00
Cl37   Cl    0.23105   0.05205   0.15894   0.00000  Uiso   1.00
Cl38   Cl    0.10228   0.28128   0.34106   0.00000  Uiso   1.00
H39    H     0.03865   0.19320   0.05433   0.00000  Uiso   1.00
H40    H     0.01908   0.20899   0.30699   0.00000  Uiso   1.00
H41    H     0.06500   0.12425   0.19307   0.00000  Uiso   1.00
H42    H     0.26834   0.20909   0.30693   0.00000  Uiso   1.00
H43    H     0.24467   0.28394   0.09448   0.00000  Uiso   1.00
H44    H     0.08867   0.04939   0.40552   0.00000  Uiso   1.00
H45    H     0.29469   0.14013   0.44567   0.00000  Uiso   1.00
H46    H     0.28588   0.13752   0.10159   0.00000  Uiso   1.00
H47    H     0.04746   0.19582   0.39841   0.00000  Uiso   1.00
H48    H     0.02143   0.20320   0.48348   0.00000  Uiso   1.00
H49    H     0.31190   0.13013   0.01652   0.00000  Uiso   1.00
H50    H     0.09579   0.17725   0.08995   0.00000  Uiso   1.00
H51    H     0.23755   0.15609   0.41005   0.00000  Uiso   1.00
H52    H     0.31425   0.12434   0.19301   0.00000  Uiso   1.00
N53    N     0.04759   0.16668   0.25001   0.00000  Uiso   1.00
N54    N     0.28574   0.16666   0.24999   0.00000  Uiso   1.00
O55    O     0.12846   0.22775   0.25000   0.00000  Uiso   1.00
O56    O     0.22228   0.30108   0.12203   0.00000  Uiso   1.00
O57    O     0.07836   0.07062   0.33585   0.00000  Uiso   1.00
O58    O     0.11105   0.03225   0.37797   0.00000  Uiso   1.00
O59    O     0.20488   0.10558   0.24999   0.00000  Uiso   1.00
O60    O     0.20490   0.22774   0.25000   0.00000  Uiso   1.00
O61    O     0.12843   0.10559   0.25000   0.00000  Uiso   1.00
O62    O     0.10661   0.16667   0.31612   0.00000  Uiso   1.00
O63    O     0.22672   0.16666   0.18387   0.00000  Uiso   1.00
O64    O     0.18305   0.16666   0.31612   0.00000  Uiso   1.00
O65    O     0.15028   0.16667   0.18388   0.00000  Uiso   1.00
O66    O     0.25497   0.26271   0.16415   0.00000  Uiso   1.00
Zn67   Zn    0.11562   0.16667   0.25000   0.00000  Uiso   1.00
Zn68   Zn    0.21771   0.16666   0.25000   0.00000  Uiso   1.00
C69    C     0.50062   0.24650   0.24895   0.00000  Uiso   1.00
C70    C     0.47172   0.31085   0.29085   0.00000  Uiso   1.00
C71    C     0.49892   0.04268   0.25076   0.00000  Uiso   1.00
C72    C     0.50108   0.29065   0.24924   0.00000  Uiso   1.00
C73    C     0.65548   0.14315   0.21834   0.00000  Uiso   1.00
C74    C     0.34452   0.19019   0.28166   0.00000  Uiso   1.00
C75    C     0.37004   0.14313   0.21838   0.00000  Uiso   1.00
C76    C     0.62996   0.19020   0.28162   0.00000  Uiso   1.00
C77    C     0.46920   0.16576   0.33803   0.00000  Uiso   1.00
C78    C     0.53080   0.16757   0.16197   0.00000  Uiso   1.00
C79    C     0.44947   0.16568   0.38891   0.00000  Uiso   1.00
C80    C     0.49939   0.08684   0.25105   0.00000  Uiso   1.00
C81    C     0.55053   0.16765   0.11109   0.00000  Uiso   1.00
C82    C     0.39031   0.18977   0.46315   0.00000  Uiso   1.00
C83    C     0.60969   0.14357   0.03685   0.00000  Uiso   1.00
C84    C     0.40456   0.18475   0.41507   0.00000  Uiso   1.00
C85    C     0.59544   0.14858   0.08493   0.00000  Uiso   1.00
C86    C     0.47902   0.15037   0.41113   0.00000  Uiso   1.00
C87    C     0.52098   0.18296   0.08887   0.00000  Uiso   1.00
C88    C     0.47043   0.16400   0.45670   0.00000  Uiso   1.00
C89    C     0.52957   0.16933   0.04330   0.00000  Uiso   1.00
C90    C     0.42324   0.17995   0.48411   0.00000  Uiso   1.00
C91    C     0.44304   0.17752   0.05224   0.00000  Uiso   1.00
C92    C     0.57676   0.15338   0.01589   0.00000  Uiso   1.00
C93    C     0.50686   0.16260   0.47582   0.00000  Uiso   1.00
C94    C     0.49314   0.17073   0.02417   0.00000  Uiso   1.00
C95    C     0.55969   0.29014   0.16397   0.00000  Uiso   1.00
C96    C     0.44031   0.04319   0.33603   0.00000  Uiso   1.00
C97    C     0.55696   0.15581   0.44776   0.00000  Uiso   1.00
C98    C     0.40930   0.18476   0.03214   0.00000  Uiso   1.00
C99    C     0.59070   0.14857   0.46786   0.00000  Uiso   1.00
C100   C     0.52963   0.31237   0.20810   0.00000  Uiso   1.00
C101   C     0.47037   0.02096   0.29190   0.00000  Uiso   1.00
C102   C     0.52828   0.02248   0.20915   0.00000  Uiso   1.00
Cl103  Cl    0.48269   0.22669   0.11424   0.00000  Uiso   1.00
Cl104  Cl    0.51731   0.10665   0.38575   0.00000  Uiso   1.00
Cl105  Cl    0.56439   0.05205   0.15894   0.00000  Uiso   1.00
Cl106  Cl    0.43562   0.28128   0.34106   0.00000  Uiso   1.00
H107   H     0.37198   0.19320   0.05433   0.00000  Uiso   1.00
H108   H     0.35241   0.20899   0.30699   0.00000  Uiso   1.00
H109   H     0.39833   0.12425   0.19307   0.00000  Uiso   1.00
H110   H     0.60167   0.20909   0.30693   0.00000  Uiso   1.00
H111   H     0.57800   0.28394   0.09448   0.00000  Uiso   1.00
H112   H     0.42200   0.04939   0.40552   0.00000  Uiso   1.00
H113   H     0.62802   0.14013   0.44567   0.00000  Uiso   1.00
H114   H     0.61921   0.13752   0.10159   0.00000  Uiso   1.00
H115   H     0.38079   0.19582   0.39841   0.00000  Uiso   1.00
H116   H     0.35476   0.20320   0.48348   0.00000  Uiso   1.00
H117   H     0.64524   0.13013   0.01652   0.00000  Uiso   1.00
H118   H     0.42912   0.17725   0.08995   0.00000  Uiso   1.00
H119   H     0.57088   0.15609   0.41005   0.00000  Uiso   1.00
H120   H     0.64759   0.12434   0.19301   0.00000  Uiso   1.00
N121   N     0.38093   0.16668   0.25001   0.00000  Uiso   1.00
N122   N     0.61907   0.16666   0.24999   0.00000  Uiso   1.00
O123   O     0.46179   0.22775   0.25000   0.00000  Uiso   1.00
O124   O     0.55561   0.30108   0.12203   0.00000  Uiso   1.00
O125   O     0.41169   0.07062   0.33585   0.00000  Uiso   1.00
O126   O     0.44439   0.03225   0.37797   0.00000  Uiso   1.00
O127   O     0.53821   0.10558   0.24999   0.00000  Uiso   1.00
O128   O     0.53823   0.22774   0.25000   0.00000  Uiso   1.00
O129   O     0.46177   0.10559   0.25000   0.00000  Uiso   1.00
O130   O     0.43994   0.16667   0.31612   0.00000  Uiso   1.00
O131   O     0.56006   0.16666   0.18387   0.00000  Uiso   1.00
O132   O     0.51639   0.16666   0.31612   0.00000  Uiso   1.00
O133   O     0.48361   0.16667   0.18388   0.00000  Uiso   1.00
O134   O     0.58831   0.26271   0.16415   0.00000  Uiso   1.00
Zn135  Zn    0.44896   0.16667   0.25000   0.00000  Uiso   1.00
Zn136  Zn    0.55104   0.16666   0.25000   0.00000  Uiso   1.00
C137   C     0.83395   0.24650   0.24895   0.00000  Uiso   1.00
C138   C     0.80505   0.31085   0.29085   0.00000  Uiso   1.00
C139   C     0.83225   0.04268   0.25076   0.00000  Uiso   1.00
C140   C     0.83442   0.29065   0.24924   0.00000  Uiso   1.00
C141   C     0.98881   0.14315   0.21834   0.00000  Uiso   1.00
C142   C     0.67785   0.19019   0.28166   0.00000  Uiso   1.00
C143   C     0.70338   0.14313   0.21838   0.00000  Uiso   1.00
C144   C     0.96329   0.19020   0.28162   0.00000  Uiso   1.00
C145   C     0.80253   0.16576   0.33803   0.00000  Uiso   1.00
C146   C     0.86414   0.16757   0.16197   0.00000  Uiso   1.00
C147   C     0.78281   0.16568   0.38891   0.00000  Uiso   1.00
C148   C     0.83272   0.08684   0.25105   0.00000  Uiso   1.00
C149   C     0.88386   0.16765   0.11109   0.00000  Uiso   1.00
C150   C     0.72365   0.18977   0.46315   0.00000  Uiso   1.00
C151   C     0.94302   0.14357   0.03685   0.00000  Uiso   1.00
C152   C     0.73789   0.18475   0.41507   0.00000  Uiso   1.00
C153   C     0.92877   0.14858   0.08493   0.00000  Uiso   1.00
C154   C     0.81235   0.15037   0.41113   0.00000  Uiso   1.00
C155   C     0.85431   0.18296   0.08887   0.00000  Uiso   1.00
C156   C     0.80376   0.16400   0.45670   0.00000  Uiso   1.00
C157   C     0.86290   0.16933   0.04330   0.00000  Uiso   1.00
C158   C     0.75657   0.17995   0.48411   0.00000  Uiso   1.00
C159   C     0.77637   0.17752   0.05224   0.00000  Uiso   1.00
C160   C     0.91010   0.15338   0.01589   0.00000  Uiso   1.00
C161   C     0.84019   0.16260   0.47582   0.00000  Uiso   1.00
C162   C     0.82648   0.17073   0.02417   0.00000  Uiso   1.00
C163   C     0.89302   0.29014   0.16397   0.00000  Uiso   1.00
C164   C     0.77365   0.04319   0.33603   0.00000  Uiso   1.00
C165   C     0.89030   0.15581   0.44776   0.00000  Uiso   1.00
C166   C     0.74263   0.18476   0.03214   0.00000  Uiso   1.00
C167   C     0.92404   0.14857   0.46786   0.00000  Uiso   1.00
C168   C     0.86296   0.31237   0.20810   0.00000  Uiso   1.00
C169   C     0.80371   0.02096   0.29190   0.00000  Uiso   1.00
C170   C     0.86162   0.02248   0.20915   0.00000  Uiso   1.00
Cl171  Cl    0.81603   0.22669   0.11424   0.00000  Uiso   1.00
Cl172  Cl    0.85064   0.10665   0.38575   0.00000  Uiso   1.00
Cl173  Cl    0.89772   0.05205   0.15894   0.00000  Uiso   1.00
Cl174  Cl    0.76895   0.28128   0.34106   0.00000  Uiso   1.00
H175   H     0.70531   0.19320   0.05433   0.00000  Uiso   1.00
H176   H     0.68575   0.20899   0.30699   0.00000  Uiso   1.00
H177   H     0.73166   0.12425   0.19307   0.00000  Uiso   1.00
H178   H     0.93500   0.20909   0.30693   0.00000  Uiso   1.00
H179   H     0.91133   0.28394   0.09448   0.00000  Uiso   1.00
H180   H     0.75533   0.04939   0.40552   0.00000  Uiso   1.00
H181   H     0.96135   0.14013   0.44567   0.00000  Uiso   1.00
H182   H     0.95255   0.13752   0.10159   0.00000  Uiso   1.00
H183   H     0.71412   0.19582   0.39841   0.00000  Uiso   1.00
H184   H     0.68810   0.20320   0.48348   0.00000  Uiso   1.00
H185   H     0.97857   0.13013   0.01652   0.00000  Uiso   1.00
H186   H     0.76245   0.17725   0.08995   0.00000  Uiso   1.00
H187   H     0.90421   0.15609   0.41005   0.00000  Uiso   1.00
H188   H     0.98092   0.12434   0.19301   0.00000  Uiso   1.00
N189   N     0.71426   0.16668   0.25001   0.00000  Uiso   1.00
N190   N     0.95241   0.16666   0.24999   0.00000  Uiso   1.00
O191   O     0.79512   0.22775   0.25000   0.00000  Uiso   1.00
O192   O     0.88895   0.30108   0.12203   0.00000  Uiso   1.00
O193   O     0.74502   0.07062   0.33585   0.00000  Uiso   1.00
O194   O     0.77772   0.03225   0.37797   0.00000  Uiso   1.00
O195   O     0.87154   0.10558   0.24999   0.00000  Uiso   1.00
O196   O     0.87157   0.22774   0.25000   0.00000  Uiso   1.00
O197   O     0.79510   0.10559   0.25000   0.00000  Uiso   1.00
O198   O     0.77328   0.16667   0.31612   0.00000  Uiso   1.00
O199   O     0.89339   0.16666   0.18387   0.00000  Uiso   1.00
O200   O     0.84972   0.16666   0.31612   0.00000  Uiso   1.00
O201   O     0.81695   0.16667   0.18388   0.00000  Uiso   1.00
O202   O     0.92164   0.26271   0.16415   0.00000  Uiso   1.00
Zn203  Zn    0.78229   0.16667   0.25000   0.00000  Uiso   1.00
Zn204  Zn    0.88438   0.16666   0.25000   0.00000  Uiso   1.00
C205   C     0.16728   0.57983   0.24895   0.00000  Uiso   1.00
C206   C     0.13839   0.64418   0.29085   0.00000  Uiso   1.00
C207   C     0.16558   0.37602   0.25076   0.00000  Uiso   1.00
C208   C     0.16775   0.62398   0.24924   0.00000  Uiso   1.00
C209   C     0.32215   0.47648   0.21834   0.00000  Uiso   1.00
C210   C     0.01119   0.52352   0.28166   0.00000  Uiso   1.00
C211   C     0.03671   0.47646   0.21838   0.00000  Uiso   1.00
C212   C     0.29662   0.52354   0.28162   0.00000  Uiso   1.00
C213   C     0.13586   0.49909   0.33803   0.00000  Uiso   1.00
C214   C     0.19747   0.50091   0.16197   0.00000  Uiso   1.00
C215   C     0.11614   0.49901   0.38891   0.00000  Uiso   1.00
C216   C     0.16605   0.42017   0.25105   0.00000  Uiso   1.00
C217   C     0.21719   0.50099   0.11109   0.00000  Uiso   1.00
C218   C     0.05698   0.52310   0.46315   0.00000  Uiso   1.00
C219   C     0.27635   0.47690   0.03685   0.00000  Uiso   1.00
C220   C     0.07123   0.51809   0.41507   0.00000  Uiso   1.00
C221   C     0.26211   0.48191   0.08493   0.00000  Uiso   1.00
C222   C     0.14569   0.48371   0.41113   0.00000  Uiso   1.00
C223   C     0.18765   0.51629   0.08887   0.00000  Uiso   1.00
C224   C     0.13710   0.49733   0.45670   0.00000  Uiso   1.00
C225   C     0.19624   0.50267   0.04330   0.00000  Uiso   1.00
C226   C     0.08990   0.51329   0.48411   0.00000  Uiso   1.00
C227   C     0.10970   0.51085   0.05224   0.00000  Uiso   1.00
C228   C     0.24343   0.48671   0.01589   0.00000  Uiso   1.00
C229   C     0.17352   0.49594   0.47582   0.00000  Uiso   1.00
C230   C     0.15981   0.50406   0.02417   0.00000  Uiso   1.00
C231   C     0.22635   0.62348   0.16397   0.00000  Uiso   1.00
C232   C     0.10698   0.37652   0.33603   0.00000  Uiso   1.00
C233   C     0.22363   0.48915   0.44776   0.00000  Uiso   1.00
C234   C     0.07596   0.51809   0.03214   0.00000  Uiso   1.00
C235   C     0.25737   0.48191   0.46786   0.00000  Uiso   1.00
C236   C     0.19629   0.64570   0.20810   0.00000  Uiso   1.00
C237   C     0.13704   0.35430   0.29190   0.00000  Uiso   1.00
C238   C     0.19495   0.35582   0.20915   0.00000  Uiso   1.00
Cl239  Cl    0.14936   0.56002   0.11424   0.00000  Uiso   1.00
Cl240  Cl    0.18397   0.43998   0.38575   0.00000  Uiso   1.00
Cl241  Cl    0.23105   0.38538   0.15894   0.00000  Uiso   1.00
Cl242  Cl    0.10228   0.61462   0.34106   0.00000  Uiso   1.00
H243   H     0.03865   0.52653   0.05433   0.00000  Uiso   1.00
H244   H     0.01908   0.54233   0.30699   0.00000  Uiso   1.00
H245   H     0.06500   0.45758   0.19307   0.00000  Uiso   1.00
H246   H     0.26834   0.54242   0.30693   0.00000  Uiso   1.00
H247   H     0.24467   0.61727   0.09448   0.00000  Uiso   1.00
H248   H     0.08867   0.38273   0.40552   0.00000  Uiso   1.00
H249   H     0.29469   0.47346   0.44567   0.00000  Uiso   1.00
H250   H     0.28588   0.47085   0.10159   0.00000  Uiso   1.00
H251   H     0.04746   0.52915   0.39841   0.00000  Uiso   1.00
H252   H     0.02143   0.53653   0.48348   0.00000  Uiso   1.00
H253   H     0.31190   0.46346   0.01652   0.00000  Uiso   1.00
H254   H     0.09579   0.51058   0.08995   0.00000  Uiso   1.00
H255   H     0.23755   0.48942   0.41005   0.00000  Uiso   1.00
H256   H     0.31425   0.45767   0.19301   0.00000  Uiso   1.00
N257   N     0.04759   0.50001   0.25001   0.00000  Uiso   1.00
N258   N     0.28574   0.49999   0.24999   0.00000  Uiso   1.00
O259   O     0.12846   0.56108   0.25000   0.00000  Uiso   1.00
O260   O     0.22228   0.63442   0.12203   0.00000  Uiso   1.00
O261   O     0.07836   0.40395   0.33585   0.00000  Uiso   1.00
O262   O     0.11105   0.36559   0.37797   0.00000  Uiso   1.00
O263   O     0.20488   0.43892   0.24999   0.00000  Uiso   1.00
O264   O     0.20490   0.56107   0.25000   0.00000  Uiso   1.00
O265   O     0.12843   0.43893   0.25000   0.00000  Uiso   1.00
O266   O     0.10661   0.50001   0.31612   0.00000  Uiso   1.00
O267   O     0.22672   0.49999   0.18387   0.00000  Uiso   1.00
O268   O     0.18305   0.50000   0.31612   0.00000  Uiso   1.00
O269   O     0.15028   0.50000   0.18388   0.00000  Uiso   1.00
O270   O     0.25497   0.59604   0.16415   0.00000  Uiso   1.00
Zn271  Zn    0.11562   0.50001   0.25000   0.00000  Uiso   1.00
Zn272  Zn    0.21771   0.49999   0.25000   0.00000  Uiso   1.00
C273   C     0.50062   0.57983   0.24895   0.00000  Uiso   1.00
C274   C     0.47172   0.64418   0.29085   0.00000  Uiso   1.00
C275   C     0.49892   0.37602   0.25076   0.00000  Uiso   1.00
C276   C     0.50108   0.62398   0.24924   0.00000  Uiso   1.00
C277   C     0.65548   0.47648   0.21834   0.00000  Uiso   1.00
C278   C     0.34452   0.52352   0.28166   0.00000  Uiso   1.00
C279   C     0.37004   0.47646   0.21838   0.00000  Uiso   1.00
C280   C     0.62996   0.52354   0.28162   0.00000  Uiso   1.00
C281   C     0.46920   0.49909   0.33803   0.00000  Uiso   1.00
C282   C     0.53080   0.50091   0.16197   0.00000  Uiso   1.00
C283   C     0.44947   0.49901   0.38891   0.00000  Uiso   1.00
C284   C     0.49939   0.42017   0.25105   0.00000  Uiso   1.00
C285   C     0.55053   0.50099   0.11109   0.00000  Uiso   1.00
C286   C     0.39031   0.52310   0.46315   0.00000  Uiso   1.00
C287   C     0.60969   0.47690   0.03685   0.00000  Uiso   1.00
C288   C     0.40456   0.51809   0.41507   0.00000  Uiso   1.00
C289   C     0.59544   0.48191   0.08493   0.00000  Uiso   1.00
C290   C     0.47902   0.48371   0.41113   0.00000  Uiso   1.00
C291   C     0.52098   0.51629   0.08887   0.00000  Uiso   1.00
C292   C     0.47043   0.49733   0.45670   0.00000  Uiso   1.00
C293   C     0.52957   0.50267   0.04330   0.00000  Uiso   1.00
C294   C     0.42324   0.51329   0.48411   0.00000  Uiso   1.00
C295   C     0.44304   0.51085   0.05224   0.00000  Uiso   1.00
C296   C     0.57676   0.48671   0.01589   0.00000  Uiso   1.00
C297   C     0.50686   0.49594   0.47582   0.00000  Uiso   1.00
C298   C     0.49314   0.50406   0.02417   0.00000  Uiso   1.00
C299   C     0.55969   0.62348   0.16397   0.00000  Uiso   1.00
C300   C     0.44031   0.37652   0.33603   0.00000  Uiso   1.00
C301   C     0.55696   0.48915   0.44776   0.00000  Uiso   1.00
C302   C     0.40930   0.51809   0.03214   0.00000  Uiso   1.00
C303   C     0.59070   0.48191   0.46786   0.00000  Uiso   1.00
C304   C     0.52963   0.64570   0.20810   0.00000  Uiso   1.00
C305   C     0.47037   0.35430   0.29190   0.00000  Uiso   1.00
C306   C     0.52828   0.35582   0.20915   0.00000  Uiso   1.00
Cl307  Cl    0.48269   0.56002   0.11424   0.00000  Uiso   1.00
Cl308  Cl    0.51731   0.43998   0.38575   0.00000  Uiso   1.00
Cl309  Cl    0.56439   0.38538   0.15894   0.00000  Uiso   1.00
Cl310  Cl    0.43562   0.61462   0.34106   0.00000  Uiso   1.00
H311   H     0.37198   0.52653   0.05433   0.00000  Uiso   1.00
H312   H     0.35241   0.54233   0.30699   0.00000  Uiso   1.00
H313   H     0.39833   0.45758   0.19307   0.00000  Uiso   1.00
H314   H     0.60167   0.54242   0.30693   0.00000  Uiso   1.00
H315   H     0.57800   0.61727   0.09448   0.00000  Uiso   1.00
H316   H     0.42200   0.38273   0.40552   0.00000  Uiso   1.00
H317   H     0.62802   0.47346   0.44567   0.00000  Uiso   1.00
H318   H     0.61921   0.47085   0.10159   0.00000  Uiso   1.00
H319   H     0.38079   0.52915   0.39841   0.00000  Uiso   1.00
H320   H     0.35476   0.53653   0.48348   0.00000  Uiso   1.00
H321   H     0.64524   0.46346   0.01652   0.00000  Uiso   1.00
H322   H     0.42912   0.51058   0.08995   0.00000  Uiso   1.00
H323   H     0.57088   0.48942   0.41005   0.00000  Uiso   1.00
H324   H     0.64759   0.45767   0.19301   0.00000  Uiso   1.00
N325   N     0.38093   0.50001   0.25001   0.00000  Uiso   1.00
N326   N     0.61907   0.49999   0.24999   0.00000  Uiso   1.00
O327   O     0.46179   0.56108   0.25000   0.00000  Uiso   1.00
O328   O     0.55561   0.63442   0.12203   0.00000  Uiso   1.00
O329   O     0.41169   0.40395   0.33585   0.00000  Uiso   1.00
O330   O     0.44439   0.36559   0.37797   0.00000  Uiso   1.00
O331   O     0.53821   0.43892   0.24999   0.00000  Uiso   1.00
O332   O     0.53823   0.56107   0.25000   0.00000  Uiso   1.00
O333   O     0.46177   0.43893   0.25000   0.00000  Uiso   1.00
O334   O     0.43994   0.50001   0.31612   0.00000  Uiso   1.00
O335   O     0.56006   0.49999   0.18387   0.00000  Uiso   1.00
O336   O     0.51639   0.50000   0.31612   0.00000  Uiso   1.00
O337   O     0.48361   0.50000   0.18388   0.00000  Uiso   1.00
O338   O     0.58831   0.59604   0.16415   0.00000  Uiso   1.00
Zn339  Zn    0.44896   0.50001   0.25000   0.00000  Uiso   1.00
Zn340  Zn    0.55104   0.49999   0.25000   0.00000  Uiso   1.00
C341   C     0.83395   0.57983   0.24895   0.00000  Uiso   1.00
C342   C     0.80505   0.64418   0.29085   0.00000  Uiso   1.00
C343   C     0.83225   0.37602   0.25076   0.00000  Uiso   1.00
C344   C     0.83442   0.62398   0.24924   0.00000  Uiso   1.00
C345   C     0.98881   0.47648   0.21834   0.00000  Uiso   1.00
C346   C     0.67785   0.52352   0.28166   0.00000  Uiso   1.00
C347   C     0.70338   0.47646   0.21838   0.00000  Uiso   1.00
C348   C     0.96329   0.52354   0.28162   0.00000  Uiso   1.00
C349   C     0.80253   0.49909   0.33803   0.00000  Uiso   1.00
C350   C     0.86414   0.50091   0.16197   0.00000  Uiso   1.00
C351   C     0.78281   0.49901   0.38891   0.00000  Uiso   1.00
C352   C     0.83272   0.42017   0.25105   0.00000  Uiso   1.00
C353   C     0.88386   0.50099   0.11109   0.00000  Uiso   1.00
C354   C     0.72365   0.52310   0.46315   0.00000  Uiso   1.00
C355   C     0.94302   0.47690   0.03685   0.00000  Uiso   1.00
C356   C     0.73789   0.51809   0.41507   0.00000  Uiso   1.00
C357   C     0.92877   0.48191   0.08493   0.00000  Uiso   1.00
C358   C     0.81235   0.48371   0.41113   0.00000  Uiso   1.00
C359   C     0.85431   0.51629   0.08887   0.00000  Uiso   1.00
C360   C     0.80376   0.49733   0.45670   0.00000  Uiso   1.00
C361   C     0.86290   0.50267   0.04330   0.00000  Uiso   1.00
C362   C     0.75657   0.51329   0.48411   0.00000  Uiso   1.00
C363   C     0.77637   0.51085   0.05224   0.00000  Uiso   1.00
C364   C     0.91010   0.48671   0.01589   0.00000  Uiso   1.00
C365   C     0.84019   0.49594   0.47582   0.00000  Uiso   1.00
C366   C     0.82648   0.50406   0.02417   0.00000  Uiso   1.00
C367   C     0.89302   0.62348   0.16397   0.00000  Uiso   1.00
C368   C     0.77365   0.37652   0.33603   0.00000  Uiso   1.00
C369   C     0.89030   0.48915   0.44776   0.00000  Uiso   1.00
C370   C     0.74263   0.51809   0.03214   0.00000  Uiso   1.00
C371   C     0.92404   0.48191   0.46786   0.00000  Uiso   1.00
C372   C     0.86296   0.64570   0.20810   0.00000  Uiso   1.00
C373   C     0.80371   0.35430   0.29190   0.00000  Uiso   1.00
C374   C     0.86162   0.35582   0.20915   0.00000  Uiso   1.00
Cl375  Cl    0.81603   0.56002   0.11424   0.00000  Uiso   1.00
Cl376  Cl    0.85064   0.43998   0.38575   0.00000  Uiso   1.00
Cl377  Cl    0.89772   0.38538   0.15894   0.00000  Uiso   1.00
Cl378  Cl    0.76895   0.61462   0.34106   0.00000  Uiso   1.00
H379   H     0.70531   0.52653   0.05433   0.00000  Uiso   1.00
H380   H     0.68575   0.54233   0.30699   0.00000  Uiso   1.00
H381   H     0.73166   0.45758   0.19307   0.00000  Uiso   1.00
H382   H     0.93500   0.54242   0.30693   0.00000  Uiso   1.00
H383   H     0.91133   0.61727   0.09448   0.00000  Uiso   1.00
H384   H     0.75533   0.38273   0.40552   0.00000  Uiso   1.00
H385   H     0.96135   0.47346   0.44567   0.00000  Uiso   1.00
H386   H     0.95255   0.47085   0.10159   0.00000  Uiso   1.00
H387   H     0.71412   0.52915   0.39841   0.00000  Uiso   1.00
H388   H     0.68810   0.53653   0.48348   0.00000  Uiso   1.00
H389   H     0.97857   0.46346   0.01652   0.00000  Uiso   1.00
H390   H     0.76245   0.51058   0.08995   0.00000  Uiso   1.00
H391   H     0.90421   0.48942   0.41005   0.00000  Uiso   1.00
H392   H     0.98092   0.45767   0.19301   0.00000  Uiso   1.00
N393   N     0.71426   0.50001   0.25001   0.00000  Uiso   1.00
N394   N     0.95241   0.49999   0.24999   0.00000  Uiso   1.00
O395   O     0.79512   0.56108   0.25000   0.00000  Uiso   1.00
O396   O     0.88895   0.63442   0.12203   0.00000  Uiso   1.00
O397   O     0.74502   0.40395   0.33585   0.00000  Uiso   1.00
O398   O     0.77772   0.36559   0.37797   0.00000  Uiso   1.00
O399   O     0.87154   0.43892   0.24999   0.00000  Uiso   1.00
O400   O     0.87157   0.56107   0.25000   0.00000  Uiso   1.00
O401   O     0.79510   0.43893   0.25000   0.00000  Uiso   1.00
O402   O     0.77328   0.50001   0.31612   0.00000  Uiso   1.00
O403   O     0.89339   0.49999   0.18387   0.00000  Uiso   1.00
O404   O     0.84972   0.50000   0.31612   0.00000  Uiso   1.00
O405   O     0.81695   0.50000   0.18388   0.00000  Uiso   1.00
O406   O     0.92164   0.59604   0.16415   0.00000  Uiso   1.00
Zn407  Zn    0.78229   0.50001   0.25000   0.00000  Uiso   1.00
Zn408  Zn    0.88438   0.49999   0.25000   0.00000  Uiso   1.00
C409   C     0.16728   0.91316   0.24895   0.00000  Uiso   1.00
C410   C     0.13839   0.97752   0.29085   0.00000  Uiso   1.00
C411   C     0.16558   0.70935   0.25076   0.00000  Uiso   1.00
C412   C     0.16775   0.95732   0.24924   0.00000  Uiso   1.00
C413   C     0.32215   0.80981   0.21834   0.00000  Uiso   1.00
C414   C     0.01119   0.85685   0.28166   0.00000  Uiso   1.00
C415   C     0.03671   0.80980   0.21838   0.00000  Uiso   1.00
C416   C     0.29662   0.85687   0.28162   0.00000  Uiso   1.00
C417   C     0.13586   0.83243   0.33803   0.00000  Uiso   1.00
C418   C     0.19747   0.83424   0.16197   0.00000  Uiso   1.00
C419   C     0.11614   0.83235   0.38891   0.00000  Uiso   1.00
C420   C     0.16605   0.75350   0.25105   0.00000  Uiso   1.00
C421   C     0.21719   0.83432   0.11109   0.00000  Uiso   1.00
C422   C     0.05698   0.85643   0.46315   0.00000  Uiso   1.00
C423   C     0.27635   0.81023   0.03685   0.00000  Uiso   1.00
C424   C     0.07123   0.85142   0.41507   0.00000  Uiso   1.00
C425   C     0.26211   0.81525   0.08493   0.00000  Uiso   1.00
C426   C     0.14569   0.81704   0.41113   0.00000  Uiso   1.00
C427   C     0.18765   0.84962   0.08887   0.00000  Uiso   1.00
C428   C     0.13710   0.83067   0.45670   0.00000  Uiso   1.00
C429   C     0.19624   0.83600   0.04330   0.00000  Uiso   1.00
C430   C     0.08990   0.84662   0.48411   0.00000  Uiso   1.00
C431   C     0.10970   0.84419   0.05224   0.00000  Uiso   1.00
C432   C     0.24343   0.82005   0.01589   0.00000  Uiso   1.00
C433   C     0.17352   0.82927   0.47582   0.00000  Uiso   1.00
C434   C     0.15981   0.83740   0.02417   0.00000  Uiso   1.00
C435   C     0.22635   0.95681   0.16397   0.00000  Uiso   1.00
C436   C     0.10698   0.70986   0.33603   0.00000  Uiso   1.00
C437   C     0.22363   0.82248   0.44776   0.00000  Uiso   1.00
C438   C     0.07596   0.85143   0.03214   0.00000  Uiso   1.00
C439   C     0.25737   0.81524   0.46786   0.00000  Uiso   1.00
C440   C     0.19629   0.97904   0.20810   0.00000  Uiso   1.00
C441   C     0.13704   0.68763   0.29190   0.00000  Uiso   1.00
C442   C     0.19495   0.68915   0.20915   0.00000  Uiso   1.00
Cl443  Cl    0.14936   0.89335   0.11424   0.00000  Uiso   1.00
Cl444  Cl    0.18397   0.77331   0.38575   0.00000  Uiso   1.00
Cl445  Cl    0.23105   0.71872   0.15894   0.00000  Uiso   1.00
Cl446  Cl    0.10228   0.94795   0.34106   0.00000  Uiso   1.00
H447   H     0.03865   0.85987   0.05433   0.00000  Uiso   1.00
H448   H     0.01908   0.87566   0.30699   0.00000  Uiso   1.00
H449   H     0.06500   0.79091   0.19307   0.00000  Uiso   1.00
H450   H     0.26834   0.87575   0.30693   0.00000  Uiso   1.00
H451   H     0.24467   0.95061   0.09448   0.00000  Uiso   1.00
H452   H     0.08867   0.71606   0.40552   0.00000  Uiso   1.00
H453   H     0.29469   0.80680   0.44567   0.00000  Uiso   1.00
H454   H     0.28588   0.80418   0.10159   0.00000  Uiso   1.00
H455   H     0.04746   0.86248   0.39841   0.00000  Uiso   1.00
H456   H     0.02143   0.86987   0.48348   0.00000  Uiso   1.00
H457   H     0.31190   0.79680   0.01652   0.00000  Uiso   1.00
H458   H     0.09579   0.84391   0.08995   0.00000  Uiso   1.00
H459   H     0.23755   0.82275   0.41005   0.00000  Uiso   1.00
H460   H     0.31425   0.79101   0.19301   0.00000  Uiso   1.00
N461   N     0.04759   0.83334   0.25001   0.00000  Uiso   1.00
N462   N     0.28574   0.83332   0.24999   0.00000  Uiso   1.00
O463   O     0.12846   0.89442   0.25000   0.00000  Uiso   1.00
O464   O     0.22228   0.96775   0.12203   0.00000  Uiso   1.00
O465   O     0.07836   0.73729   0.33585   0.00000  Uiso   1.00
O466   O     0.11105   0.69892   0.37797   0.00000  Uiso   1.00
O467   O     0.20488   0.77225   0.24999   0.00000  Uiso   1.00
O468   O     0.20490   0.89441   0.25000   0.00000  Uiso   1.00
O469   O     0.12843   0.77226   0.25000   0.00000  Uiso   1.00
O470   O     0.10661   0.83334   0.31612   0.00000  Uiso   1.00
O471   O     0.22672   0.83333   0.18387   0.00000  Uiso   1.00
O472   O     0.18305   0.83333   0.31612   0.00000  Uiso   1.00
O473   O     0.15028   0.83334   0.18388   0.00000  Uiso   1.00
O474   O     0.25497   0.92938   0.16415   0.00000  Uiso   1.00
Zn475  Zn    0.11562   0.83334   0.25000   0.00000  Uiso   1.00
Zn476  Zn    0.21771   0.83333   0.25000   0.00000  Uiso   1.00
C477   C     0.50062   0.91316   0.24895   0.00000  Uiso   1.00
C478   C     0.47172   0.97752   0.29085   0.00000  Uiso   1.00
C479   C     0.49892   0.70935   0.25076   0.00000  Uiso   1.00
C480   C     0.50108   0.95732   0.24924   0.00000  Uiso   1.00
C481   C     0.65548   0.80981   0.21834   0.00000  Uiso   1.00
C482   C     0.34452   0.85685   0.28166   0.00000  Uiso   1.00
C483   C     0.37004   0.80980   0.21838   0.00000  Uiso   1.00
C484   C     0.62996   0.85687   0.28162   0.00000  Uiso   1.00
C485   C     0.46920   0.83243   0.33803   0.00000  Uiso   1.00
C486   C     0.53080   0.83424   0.16197   0.00000  Uiso   1.00
C487   C     0.44947   0.83235   0.38891   0.00000  Uiso   1.00
C488   C     0.49939   0.75350   0.25105   0.00000  Uiso   1.00
C489   C     0.55053   0.83432   0.11109   0.00000  Uiso   1.00
C490   C     0.39031   0.85643   0.46315   0.00000  Uiso   1.00
C491   C     0.60969   0.81023   0.03685   0.00000  Uiso   1.00
C492   C     0.40456   0.85142   0.41507   0.00000  Uiso   1.00
C493   C     0.59544   0.81525   0.08493   0.00000  Uiso   1.00
C494   C     0.47902   0.81704   0.41113   0.00000  Uiso   1.00
C495   C     0.52098   0.84962   0.08887   0.00000  Uiso   1.00
C496   C     0.47043   0.83067   0.45670   0.00000  Uiso   1.00
C497   C     0.52957   0.83600   0.04330   0.00000  Uiso   1.00
C498   C     0.42324   0.84662   0.48411   0.00000  Uiso   1.00
C499   C     0.44304   0.84419   0.05224   0.00000  Uiso   1.00
C500   C     0.57676   0.82005   0.01589   0.00000  Uiso   1.00
C501   C     0.50686   0.82927   0.47582   0.00000  Uiso   1.00
C502   C     0.49314   0.83740   0.02417   0.00000  Uiso   1.00
C503   C     0.55969   0.95681   0.16397   0.00000  Uiso   1.00
C504   C     0.44031   0.70986   0.33603   0.00000  Uiso   1.00
C505   C     0.55696   0.82248   0.44776   0.00000  Uiso   1.00
C506   C     0.40930   0.85143   0.03214   0.00000  Uiso   1.00
C507   C     0.59070   0.81524   0.46786   0.00000  Uiso   1.00
C508   C     0.52963   0.97904   0.20810   0.00000  Uiso   1.00
C509   C     0.47037   0.68763   0.29190   0.00000  Uiso   1.00
C510   C     0.52828   0.68915   0.20915   0.00000  Uiso   1.00
Cl511  Cl    0.48269   0.89335   0.11424   0.00000  Uiso   1.00
Cl512  Cl    0.51731   0.77331   0.38575   0.00000  Uiso   1.00
Cl513  Cl    0.56439   0.71872   0.15894   0.00000  Uiso   1.00
Cl514  Cl    0.43562   0.94795   0.34106   0.00000  Uiso   1.00
H515   H     0.37198   0.85987   0.05433   0.00000  Uiso   1.00
H516   H     0.35241   0.87566   0.30699   0.00000  Uiso   1.00
H517   H     0.39833   0.79091   0.19307   0.00000  Uiso   1.00
H518   H     0.60167   0.87575   0.30693   0.00000  Uiso   1.00
H519   H     0.57800   0.95061   0.09448   0.00000  Uiso   1.00
H520   H     0.42200   0.71606   0.40552   0.00000  Uiso   1.00
H521   H     0.62802   0.80680   0.44567   0.00000  Uiso   1.00
H522   H     0.61921   0.80418   0.10159   0.00000  Uiso   1.00
H523   H     0.38079   0.86248   0.39841   0.00000  Uiso   1.00
H524   H     0.35476   0.86987   0.48348   0.00000  Uiso   1.00
H525   H     0.64524   0.79680   0.01652   0.00000  Uiso   1.00
H526   H     0.42912   0.84391   0.08995   0.00000  Uiso   1.00
H527   H     0.57088   0.82275   0.41005   0.00000  Uiso   1.00
H528   H     0.64759   0.79101   0.19301   0.00000  Uiso   1.00
N529   N     0.38093   0.83334   0.25001   0.00000  Uiso   1.00
N530   N     0.61907   0.83332   0.24999   0.00000  Uiso   1.00
O531   O     0.46179   0.89442   0.25000   0.00000  Uiso   1.00
O532   O     0.55561   0.96775   0.12203   0.00000  Uiso   1.00
O533   O     0.41169   0.73729   0.33585   0.00000  Uiso   1.00
O534   O     0.44439   0.69892   0.37797   0.00000  Uiso   1.00
O535   O     0.53821   0.77225   0.24999   0.00000  Uiso   1.00
O536   O     0.53823   0.89441   0.25000   0.00000  Uiso   1.00
O537   O     0.46177   0.77226   0.25000   0.00000  Uiso   1.00
O538   O     0.43994   0.83334   0.31612   0.00000  Uiso   1.00
O539   O     0.56006   0.83333   0.18387   0.00000  Uiso   1.00
O540   O     0.51639   0.83333   0.31612   0.00000  Uiso   1.00
O541   O     0.48361   0.83334   0.18388   0.00000  Uiso   1.00
O542   O     0.58831   0.92938   0.16415   0.00000  Uiso   1.00
Zn543  Zn    0.44896   0.83334   0.25000   0.00000  Uiso   1.00
Zn544  Zn    0.55104   0.83333   0.25000   0.00000  Uiso   1.00
C545   C     0.83395   0.91316   0.24895   0.00000  Uiso   1.00
C546   C     0.80505   0.97752   0.29085   0.00000  Uiso   1.00
C547   C     0.83225   0.70935   0.25076   0.00000  Uiso   1.00
C548   C     0.83442   0.95732   0.24924   0.00000  Uiso   1.00
C549   C     0.98881   0.80981   0.21834   0.00000  Uiso   1.00
C550   C     0.67785   0.85685   0.28166   0.00000  Uiso   1.00
C551   C     0.70338   0.80980   0.21838   0.00000  Uiso   1.00
C552   C     0.96329   0.85687   0.28162   0.00000  Uiso   1.00
C553   C     0.80253   0.83243   0.33803   0.00000  Uiso   1.00
C554   C     0.86414   0.83424   0.16197   0.00000  Uiso   1.00
C555   C     0.78281   0.83235   0.38891   0.00000  Uiso   1.00
C556   C     0.83272   0.75350   0.25105   0.00000  Uiso   1.00
C557   C     0.88386   0.83432   0.11109   0.00000  Uiso   1.00
C558   C     0.72365   0.85643   0.46315   0.00000  Uiso   1.00
C559   C     0.94302   0.81023   0.03685   0.00000  Uiso   1.00
C560   C     0.73789   0.85142   0.41507   0.00000  Uiso   1.00
C561   C     0.92877   0.81525   0.08493   0.00000  Uiso   1.00
C562   C     0.81235   0.81704   0.41113   0.00000  Uiso   1.00
C563   C     0.85431   0.84962   0.08887   0.00000  Uiso   1.00
C564   C     0.80376   0.83067   0.45670   0.00000  Uiso   1.00
C565   C     0.86290   0.83600   0.04330   0.00000  Uiso   1.00
C566   C     0.75657   0.84662   0.48411   0.00000  Uiso   1.00
C567   C     0.77637   0.84419   0.05224   0.00000  Uiso   1.00
C568   C     0.91010   0.82005   0.01589   0.00000  Uiso   1.00
C569   C     0.84019   0.82927   0.47582   0.00000  Uiso   1.00
C570   C     0.82648   0.83740   0.02417   0.00000  Uiso   1.00
C571   C     0.89302   0.95681   0.16397   0.00000  Uiso   1.00
C572   C     0.77365   0.70986   0.33603   0.00000  Uiso   1.00
C573   C     0.89030   0.82248   0.44776   0.00000  Uiso   1.00
C574   C     0.74263   0.85143   0.03214   0.00000  Uiso   1.00
C575   C     0.92404   0.81524   0.46786   0.00000  Uiso   1.00
C576   C     0.86296   0.97904   0.20810   0.00000  Uiso   1.00
C577   C     0.80371   0.68763   0.29190   0.00000  Uiso   1.00
C578   C     0.86162   0.68915   0.20915   0.00000  Uiso   1.00
Cl579  Cl    0.81603   0.89335   0.11424   0.00000  Uiso   1.00
Cl580  Cl    0.85064   0.77331   0.38575   0.00000  Uiso   1.00
Cl581  Cl    0.89772   0.71872   0.15894   0.00000  Uiso   1.00
Cl582  Cl    0.76895   0.94795   0.34106   0.00000  Uiso   1.00
H583   H     0.70531   0.85987   0.05433   0.00000  Uiso   1.00
H584   H     0.68575   0.87566   0.30699   0.00000  Uiso   1.00
H585   H     0.73166   0.79091   0.19307   0.00000  Uiso   1.00
H586   H     0.93500   0.87575   0.30693   0.00000  Uiso   1.00
H587   H     0.91133   0.95061   0.09448   0.00000  Uiso   1.00
H588   H     0.75533   0.71606   0.40552   0.00000  Uiso   1.00
H589   H     0.96135   0.80680   0.44567   0.00000  Uiso   1.00
H590   H     0.95255   0.80418   0.10159   0.00000  Uiso   1.00
H591   H     0.71412   0.86248   0.39841   0.00000  Uiso   1.00
H592   H     0.68810   0.86987   0.48348   0.00000  Uiso   1.00
H593   H     0.97857   0.79680   0.01652   0.00000  Uiso   1.00
H594   H     0.76245   0.84391   0.08995   0.00000  Uiso   1.00
H595   H     0.90421   0.82275   0.41005   0.00000  Uiso   1.00
H596   H     0.98092   0.79101   0.19301   0.00000  Uiso   1.00
N597   N     0.71426   0.83334   0.25001   0.00000  Uiso   1.00
N598   N     0.95241   0.83332   0.24999   0.00000  Uiso   1.00
O599   O     0.79512   0.89442   0.25000   0.00000  Uiso   1.00
O600   O     0.88895   0.96775   0.12203   0.00000  Uiso   1.00
O601   O     0.74502   0.73729   0.33585   0.00000  Uiso   1.00
O602   O     0.77772   0.69892   0.37797   0.00000  Uiso   1.00
O603   O     0.87154   0.77225   0.24999   0.00000  Uiso   1.00
O604   O     0.87157   0.89441   0.25000   0.00000  Uiso   1.00
O605   O     0.79510   0.77226   0.25000   0.00000  Uiso   1.00
O606   O     0.77328   0.83334   0.31612   0.00000  Uiso   1.00
O607   O     0.89339   0.83333   0.18387   0.00000  Uiso   1.00
O608   O     0.84972   0.83333   0.31612   0.00000  Uiso   1.00
O609   O     0.81695   0.83334   0.18388   0.00000  Uiso   1.00
O610   O     0.92164   0.92938   0.16415   0.00000  Uiso   1.00
Zn611  Zn    0.78229   0.83334   0.25000   0.00000  Uiso   1.00
Zn612  Zn    0.88438   0.83333   0.25000   0.00000  Uiso   1.00
C613   C     0.16728   0.24650   0.74895   0.00000  Uiso   1.00
C614   C     0.13839   0.31085   0.79085   0.00000  Uiso   1.00
C615   C     0.16558   0.04268   0.75076   0.00000  Uiso   1.00
C616   C     0.16775   0.29065   0.74924   0.00000  Uiso   1.00
C617   C     0.32215   0.14315   0.71834   0.00000  Uiso   1.00
C618   C     0.01119   0.19019   0.78166   0.00000  Uiso   1.00
C619   C     0.03671   0.14313   0.71838   0.00000  Uiso   1.00
C620   C     0.29662   0.19020   0.78162   0.00000  Uiso   1.00
C621   C     0.13586   0.16576   0.83803   0.00000  Uiso   1.00
C622   C     0.19747   0.16757   0.66197   0.00000  Uiso   1.00
C623   C     0.11614   0.16568   0.88891   0.00000  Uiso   1.00
C624   C     0.16605   0.08684   0.75105   0.00000  Uiso   1.00
C625   C     0.21719   0.16765   0.61109   0.00000  Uiso   1.00
C626   C     0.05698   0.18977   0.96315   0.00000  Uiso   1.00
C627   C     0.27635   0.14357   0.53685   0.00000  Uiso   1.00
C628   C     0.07123   0.18475   0.91507   0.00000  Uiso   1.00
C629   C     0.26211   0.14858   0.58493   0.00000  Uiso   1.00
C630   C     0.14569   0.15037   0.91113   0.00000  Uiso   1.00
C631   C     0.18765   0.18296   0.58887   0.00000  Uiso   1.00
C632   C     0.13710   0.16400   0.95670   0.00000  Uiso   1.00
C633   C     0.19624   0.16933   0.54330   0.00000  Uiso   1.00
C634   C     0.08990   0.17995   0.98411   0.00000  Uiso   1.00
C635   C     0.10970   0.17752   0.55224   0.00000  Uiso   1.00
C636   C     0.24343   0.15338   0.51589   0.00000  Uiso   1.00
C637   C     0.17352   0.16260   0.97582   0.00000  Uiso   1.00
C638   C     0.15981   0.17073   0.52417   0.00000  Uiso   1.00
C639   C     0.22635   0.29014   0.66397   0.00000  Uiso   1.00
C640   C     0.10698   0.04319   0.83603   0.00000  Uiso   1.00
C641   C     0.22363   0.15581   0.94776   0.00000  Uiso   1.00
C642   C     0.07596   0.18476   0.53214   0.00000  Uiso   1.00
C643   C     0.25737   0.14857   0.96786   0.00000  Uiso   1.00
C644   C     0.19629   0.31237   0.70810   0.00000  Uiso   1.00
C645   C     0.13704   0.02096   0.79190   0.00000  Uiso   1.00
C646   C     0.19495   0.02248   0.70915   0.00000  Uiso   1.00
Cl647  Cl    0.14936   0.22669   0.61424   0.00000  Uiso   1.00
Cl648  Cl    0.18397   0.10665   0.88575   0.00000  Uiso   1.00
Cl649  Cl    0.23105   0.05205   0.65894   0.00000  Uiso   1.00
Cl650  Cl    0.10228   0.28128   0.84106   0.00000  Uiso   1.00
H651   H     0.03865   0.19320   0.55433   0.00000  Uiso   1.00
H652   H     0.01908   0.20899   0.80699   0.00000  Uiso   1.00
H653   H     0.06500   0.12425   0.69307   0.00000  Uiso   1.00
H654   H     0.26834   0.20909   0.80693   0.00000  Uiso   1.00
H655   H     0.24467   0.28394   0.59448   0.00000  Uiso   1.00
H656   H     0.08867   0.04939   0.90552   0.00000  Uiso   1.00
H657   H     0.29469   0.14013   0.94567   0.00000  Uiso   1.00
H658   H     0.28588   0.13752   0.60159   0.00000  Uiso   1.00
H659   H     0.04746   0.19582   0.89841   0.00000  Uiso   1.00
H660   H     0.02143   0.20320   0.98348   0.00000  Uiso   1.00
H661   H     0.31190   0.13013   0.51652   0.00000  Uiso   1.00
H662   H     0.09579   0.17725   0.58995   0.00000  Uiso   1.00
H663   H     0.23755   0.15609   0.91005   0.00000  Uiso   1.00
H664   H     0.31425   0.12434   0.69301   0.00000  Uiso   1.00
N665   N     0.04759   0.16668   0.75001   0.00000  Uiso   1.00
N666   N     0.28574   0.16666   0.74999   0.00000  Uiso   1.00
O667   O     0.12846   0.22775   0.75000   0.00000  Uiso   1.00
O668   O     0.22228   0.30108   0.62203   0.00000  Uiso   1.00
O669   O     0.07836   0.07062   0.83585   0.00000  Uiso   1.00
O670   O     0.11105   0.03225   0.87797   0.00000  Uiso   1.00
O671   O     0.20488   0.10558   0.74999   0.00000  Uiso   1.00
O672   O     0.20490   0.22774   0.75000   0.00000  Uiso   1.00
O673   O     0.12843   0.10559   0.75000   0.00000  Uiso   1.00
O674   O     0.10661   0.16667   0.81612   0.00000  Uiso   1.00
O675   O     0.22672   0.16666   0.68387   0.00000  Uiso   1.00
O676   O     0.18305   0.16666   0.81612   0.00000  Uiso   1.00
O677   O     0.15028   0.16667   0.68388   0.00000  Uiso   1.00
O678   O     0.25497   0.26271   0.66415   0.00000  Uiso   1.00
Zn679  Zn    0.11562   0.16667   0.75000   0.00000  Uiso   1.00
Zn680  Zn    0.21771   0.16666   0.75000   0.00000  Uiso   1.00
C681   C     0.50062   0.24650   0.74895   0.00000  Uiso   1.00
C682   C     0.47172   0.31085   0.79085   0.00000  Uiso   1.00
C683   C     0.49892   0.04268   0.75076   0.00000  Uiso   1.00
C684   C     0.50108   0.29065   0.74924   0.00000  Uiso   1.00
C685   C     0.65548   0.14315   0.71834   0.00000  Uiso   1.00
C686   C     0.34452   0.19019   0.78166   0.00000  Uiso   1.00
C687   C     0.37004   0.14313   0.71838   0.00000  Uiso   1.00
C688   C     0.62996   0.19020   0.78162   0.00000  Uiso   1.00
C689   C     0.46920   0.16576   0.83803   0.00000  Uiso   1.00
C690   C     0.53080   0.16757   0.66197   0.00000  Uiso   1.00
C691   C     0.44947   0.16568   0.88891   0.00000  Uiso   1.00
C692   C     0.49939   0.08684   0.75105   0.00000  Uiso   1.00
C693   C     0.55053   0.16765   0.61109   0.00000  Uiso   1.00
C694   C     0.39031   0.18977   0.96315   0.00000  Uiso   1.00
C695   C     0.60969   0.14357   0.53685   0.00000  Uiso   1.00
C696   C     0.40456   0.18475   0.91507   0.00000  Uiso   1.00
C697   C     0.59544   0.14858   0.58493   0.00000  Uiso   1.00
C698   C     0.47902   0.15037   0.91113   0.00000  Uiso   1.00
C699   C     0.52098   0.18296   0.58887   0.00000  Uiso   1.00
C700   C     0.47043   0.16400   0.95670   0.00000  Uiso   1.00
C701   C     0.52957   0.16933   0.54330   0.00000  Uiso   1.00
C702   C     0.42324   0.17995   0.98411   0.00000  Uiso   1.00
C703   C     0.44304   0.17752   0.55224   0.00000  Uiso   1.00
C704   C     0.57676   0.15338   0.51589   0.00000  Uiso   1.00
C705   C     0.50686   0.16260   0.97582   0.00000  Uiso   1.00
C706   C     0.49314   0.17073   0.52417   0.00000  Uiso   1.00
C707   C     0.55969   0.29014   0.66397   0.00000  Uiso   1.00
C708   C     0.44031   0.04319   0.83603   0.00000  Uiso   1.00
C709   C     0.55696   0.15581   0.94776   0.00000  Uiso   1.00
C710   C     0.40930   0.18476   0.53214   0.00000  Uiso   1.00
C711   C     0.59070   0.14857   0.96786   0.00000  Uiso   1.00
C712   C     0.52963   0.31237   0.70810   0.00000  Uiso   1.00
C713   C     0.47037   0.02096   0.79190   0.00000  Uiso   1.00
C714   C     0.52828   0.02248   0.70915   0.00000  Uiso   1.00
Cl715  Cl    0.48269   0.22669   0.61424   0.00000  Uiso   1.00
Cl716  Cl    0.51731   0.10665   0.88575   0.00000  Uiso   1.00
Cl717  Cl    0.56439   0.05205   0.65894   0.00000  Uiso   1.00
Cl718  Cl    0.43562   0.28128   0.84106   0.00000  Uiso   1.00
H719   H     0.37198   0.19320   0.55433   0.00000  Uiso   1.00
H720   H     0.35241   0.20899   0.80699   0.00000  Uiso   1.00
H721   H     0.39833   0.12425   0.69307   0.00000  Uiso   1.00
H722   H     0.60167   0.20909   0.80693   0.00000  Uiso   1.00
H723   H     0.57800   0.28394   0.59448   0.00000  Uiso   1.00
H724   H     0.42200   0.04939   0.90552   0.00000  Uiso   1.00
H725   H     0.62802   0.14013   0.94567   0.00000  Uiso   1.00
H726   H     0.61921   0.13752   0.60159   0.00000  Uiso   1.00
H727   H     0.38079   0.19582   0.89841   0.00000  Uiso   1.00
H728   H     0.35476   0.20320   0.98348   0.00000  Uiso   1.00
H729   H     0.64524   0.13013   0.51652   0.00000  Uiso   1.00
H730   H     0.42912   0.17725   0.58995   0.00000  Uiso   1.00
H731   H     0.57088   0.15609   0.91005   0.00000  Uiso   1.00
H732   H     0.64759   0.12434   0.69301   0.00000  Uiso   1.00
N733   N     0.38093   0.16668   0.75001   0.00000  Uiso   1.00
N734   N     0.61907   0.16666   0.74999   0.00000  Uiso   1.00
O735   O     0.46179   0.22775   0.75000   0.00000  Uiso   1.00
O736   O     0.55561   0.30108   0.62203   0.00000  Uiso   1.00
O737   O     0.41169   0.07062   0.83585   0.00000  Uiso   1.00
O738   O     0.44439   0.03225   0.87797   0.00000  Uiso   1.00
O739   O     0.53821   0.10558   0.74999   0.00000  Uiso   1.00
O740   O     0.53823   0.22774   0.75000   0.00000  Uiso   1.00
O741   O     0.46177   0.10559   0.75000   0.00000  Uiso   1.00
O742   O     0.43994   0.16667   0.81612   0.00000  Uiso   1.00
O743   O     0.56006   0.16666   0.68387   0.00000  Uiso   1.00
O744   O     0.51639   0.16666   0.81612   0.00000  Uiso   1.00
O745   O     0.48361   0.16667   0.68388   0.00000  Uiso   1.00
O746   O     0.58831   0.26271   0.66415   0.00000  Uiso   1.00
Zn747  Zn    0.44896   0.16667   0.75000   0.00000  Uiso   1.00
Zn748  Zn    0.55104   0.16666   0.75000   0.00000  Uiso   1.00
C749   C     0.83395   0.24650   0.74895   0.00000  Uiso   1.00
C750   C     0.80505   0.31085   0.79085   0.00000  Uiso   1.00
C751   C     0.83225   0.04268   0.75076   0.00000  Uiso   1.00
C752   C     0.83442   0.29065   0.74924   0.00000  Uiso   1.00
C753   C     0.98881   0.14315   0.71834   0.00000  Uiso   1.00
C754   C     0.67785   0.19019   0.78166   0.00000  Uiso   1.00
C755   C     0.70338   0.14313   0.71838   0.00000  Uiso   1.00
C756   C     0.96329   0.19020   0.78162   0.00000  Uiso   1.00
C757   C     0.80253   0.16576   0.83803   0.00000  Uiso   1.00
C758   C     0.86414   0.16757   0.66197   0.00000  Uiso   1.00
C759   C     0.78281   0.16568   0.88891   0.00000  Uiso   1.00
C760   C     0.83272   0.08684   0.75105   0.00000  Uiso   1.00
C761   C     0.88386   0.16765   0.61109   0.00000  Uiso   1.00
C762   C     0.72365   0.18977   0.96315   0.00000  Uiso   1.00
C763   C     0.94302   0.14357   0.53685   0.00000  Uiso   1.00
C764   C     0.73789   0.18475   0.91507   0.00000  Uiso   1.00
C765   C     0.92877   0.14858   0.58493   0.00000  Uiso   1.00
C766   C     0.81235   0.15037   0.91113   0.00000  Uiso   1.00
C767   C     0.85431   0.18296   0.58887   0.00000  Uiso   1.00
C768   C     0.80376   0.16400   0.95670   0.00000  Uiso   1.00
C769   C     0.86290   0.16933   0.54330   0.00000  Uiso   1.00
C770   C     0.75657   0.17995   0.98411   0.00000  Uiso   1.00
C771   C     0.77637   0.17752   0.55224   0.00000  Uiso   1.00
C772   C     0.91010   0.15338   0.51589   0.00000  Uiso   1.00
C773   C     0.84019   0.16260   0.97582   0.00000  Uiso   1.00
C774   C     0.82648   0.17073   0.52417   0.00000  Uiso   1.00
C775   C     0.89302   0.29014   0.66397   0.00000  Uiso   1.00
C776   C     0.77365   0.04319   0.83603   0.00000  Uiso   1.00
C777   C     0.89030   0.15581   0.94776   0.00000  Uiso   1.00
C778   C     0.74263   0.18476   0.53214   0.00000  Uiso   1.00
C779   C     0.92404   0.14857   0.96786   0.00000  Uiso   1.00
C780   C     0.86296   0.31237   0.70810   0.00000  Uiso   1.00
C781   C     0.80371   0.02096   0.79190   0.00000  Uiso   1.00
C782   C     0.86162   0.02248   0.70915   0.00000  Uiso   1.00
Cl783  Cl    0.81603   0.22669   0.61424   0.00000  Uiso   1.00
Cl784  Cl    0.85064   0.10665   0.88575   0.00000  Uiso   1.00
Cl785  Cl    0.89772   0.05205   0.65894   0.00000  Uiso   1.00
Cl786  Cl    0.76895   0.28128   0.84106   0.00000  Uiso   1.00
H787   H     0.70531   0.19320   0.55433   0.00000  Uiso   1.00
H788   H     0.68575   0.20899   0.80699   0.00000  Uiso   1.00
H789   H     0.73166   0.12425   0.69307   0.00000  Uiso   1.00
H790   H     0.93500   0.20909   0.80693   0.00000  Uiso   1.00
H791   H     0.91133   0.28394   0.59448   0.00000  Uiso   1.00
H792   H     0.75533   0.04939   0.90552   0.00000  Uiso   1.00
H793   H     0.96135   0.14013   0.94567   0.00000  Uiso   1.00
H794   H     0.95255   0.13752   0.60159   0.00000  Uiso   1.00
H795   H     0.71412   0.19582   0.89841   0.00000  Uiso   1.00
H796   H     0.68810   0.20320   0.98348   0.00000  Uiso   1.00
H797   H     0.97857   0.13013   0.51652   0.00000  Uiso   1.00
H798   H     0.76245   0.17725   0.58995   0.00000  Uiso   1.00
H799   H     0.90421   0.15609   0.91005   0.00000  Uiso   1.00
H800   H     0.98092   0.12434   0.69301   0.00000  Uiso   1.00
N801   N     0.71426   0.16668   0.75001   0.00000  Uiso   1.00
N802   N     0.95241   0.16666   0.74999   0.00000  Uiso   1.00
O803   O     0.79512   0.22775   0.75000   0.00000  Uiso   1.00
O804   O     0.88895   0.30108   0.62203   0.00000  Uiso   1.00
O805   O     0.74502   0.07062   0.83585   0.00000  Uiso   1.00
O806   O     0.77772   0.03225   0.87797   0.00000  Uiso   1.00
O807   O     0.87154   0.10558   0.74999   0.00000  Uiso   1.00
O808   O     0.87157   0.22774   0.75000   0.00000  Uiso   1.00
O809   O     0.79510   0.10559   0.75000   0.00000  Uiso   1.00
O810   O     0.77328   0.16667   0.81612   0.00000  Uiso   1.00
O811   O     0.89339   0.16666   0.68387   0.00000  Uiso   1.00
O812   O     0.84972   0.16666   0.81612   0.00000  Uiso   1.00
O813   O     0.81695   0.16667   0.68388   0.00000  Uiso   1.00
O814   O     0.92164   0.26271   0.66415   0.00000  Uiso   1.00
Zn815  Zn    0.78229   0.16667   0.75000   0.00000  Uiso   1.00
Zn816  Zn    0.88438   0.16666   0.75000   0.00000  Uiso   1.00
C817   C     0.16728   0.57983   0.74895   0.00000  Uiso   1.00
C818   C     0.13839   0.64418   0.79085   0.00000  Uiso   1.00
C819   C     0.16558   0.37602   0.75076   0.00000  Uiso   1.00
C820   C     0.16775   0.62398   0.74924   0.00000  Uiso   1.00
C821   C     0.32215   0.47648   0.71834   0.00000  Uiso   1.00
C822   C     0.01119   0.52352   0.78166   0.00000  Uiso   1.00
C823   C     0.03671   0.47646   0.71838   0.00000  Uiso   1.00
C824   C     0.29662   0.52354   0.78162   0.00000  Uiso   1.00
C825   C     0.13586   0.49909   0.83803   0.00000  Uiso   1.00
C826   C     0.19747   0.50091   0.66197   0.00000  Uiso   1.00
C827   C     0.11614   0.49901   0.88891   0.00000  Uiso   1.00
C828   C     0.16605   0.42017   0.75105   0.00000  Uiso   1.00
C829   C     0.21719   0.50099   0.61109   0.00000  Uiso   1.00
C830   C     0.05698   0.52310   0.96315   0.00000  Uiso   1.00
C831   C     0.27635   0.47690   0.53685   0.00000  Uiso   1.00
C832   C     0.07123   0.51809   0.91507   0.00000  Uiso   1.00
C833   C     0.26211   0.48191   0.58493   0.00000  Uiso   1.00
C834   C     0.14569   0.48371   0.91113   0.00000  Uiso   1.00
C835   C     0.18765   0.51629   0.58887   0.00000  Uiso   1.00
C836   C     0.13710   0.49733   0.95670   0.00000  Uiso   1.00
C837   C     0.19624   0.50267   0.54330   0.00000  Uiso   1.00
C838   C     0.08990   0.51329   0.98411   0.00000  Uiso   1.00
C839   C     0.10970   0.51085   0.55224   0.00000  Uiso   1.00
C840   C     0.24343   0.48671   0.51589   0.00000  Uiso   1.00
C841   C     0.17352   0.49594   0.97582   0.00000  Uiso   1.00
C842   C     0.15981   0.50406   0.52417   0.00000  Uiso   1.00
C843   C     0.22635   0.62348   0.66397   0.00000  Uiso   1.00
C844   C     0.10698   0.37652   0.83603   0.00000  Uiso   1.00
C845   C     0.22363   0.48915   0.94776   0.00000  Uiso   1.00
C846   C     0.07596   0.51809   0.53214   0.00000  Uiso   1.00
C847   C     0.25737   0.48191   0.96786   0.00000  Uiso   1.00
C848   C     0.19629   0.64570   0.70810   0.00000  Uiso   1.00
C849   C     0.13704   0.35430   0.79190   0.00000  Uiso   1.00
C850   C     0.19495   0.35582   0.70915   0.00000  Uiso   1.00
Cl851  Cl    0.14936   0.56002   0.61424   0.00000  Uiso   1.00
Cl852  Cl    0.18397   0.43998   0.88575   0.00000  Uiso   1.00
Cl853  Cl    0.23105   0.38538   0.65894   0.00000  Uiso   1.00
Cl854  Cl    0.10228   0.61462   0.84106   0.00000  Uiso   1.00
H855   H     0.03865   0.52653   0.55433   0.00000  Uiso   1.00
H856   H     0.01908   0.54233   0.80699   0.00000  Uiso   1.00
H857   H     0.06500   0.45758   0.69307   0.00000  Uiso   1.00
H858   H     0.26834   0.54242   0.80693   0.00000  Uiso   1.00
H859   H     0.24467   0.61727   0.59448   0.00000  Uiso   1.00
H860   H     0.08867   0.38273   0.90552   0.00000  Uiso   1.00
H861   H     0.29469   0.47346   0.94567   0.00000  Uiso   1.00
H862   H     0.28588   0.47085   0.60159   0.00000  Uiso   1.00
H863   H     0.04746   0.52915   0.89841   0.00000  Uiso   1.00
H864   H     0.02143   0.53653   0.98348   0.00000  Uiso   1.00
H865   H     0.31190   0.46346   0.51652   0.00000  Uiso   1.00
H866   H     0.09579   0.51058   0.58995   0.00000  Uiso   1.00
H867   H     0.23755   0.48942   0.91005   0.00000  Uiso   1.00
H868   H     0.31425   0.45767   0.69301   0.00000  Uiso   1.00
N869   N     0.04759   0.50001   0.75001   0.00000  Uiso   1.00
N870   N     0.28574   0.49999   0.74999   0.00000  Uiso   1.00
O871   O     0.12846   0.56108   0.75000   0.00000  Uiso   1.00
O872   O     0.22228   0.63442   0.62203   0.00000  Uiso   1.00
O873   O     0.07836   0.40395   0.83585   0.00000  Uiso   1.00
O874   O     0.11105   0.36559   0.87797   0.00000  Uiso   1.00
O875   O     0.20488   0.43892   0.74999   0.00000  Uiso   1.00
O876   O     0.20490   0.56107   0.75000   0.00000  Uiso   1.00
O877   O     0.12843   0.43893   0.75000   0.00000  Uiso   1.00
O878   O     0.10661   0.50001   0.81612   0.00000  Uiso   1.00
O879   O     0.22672   0.49999   0.68387   0.00000  Uiso   1.00
O880   O     0.18305   0.50000   0.81612   0.00000  Uiso   1.00
O881   O     0.15028   0.50000   0.68388   0.00000  Uiso   1.00
O882   O     0.25497   0.59604   0.66415   0.00000  Uiso   1.00
Zn883  Zn    0.11562   0.50001   0.75000   0.00000  Uiso   1.00
Zn884  Zn    0.21771   0.49999   0.75000   0.00000  Uiso   1.00
C885   C     0.50062   0.57983   0.74895   0.00000  Uiso   1.00
C886   C     0.47172   0.64418   0.79085   0.00000  Uiso   1.00
C887   C     0.49892   0.37602   0.75076   0.00000  Uiso   1.00
C888   C     0.50108   0.62398   0.74924   0.00000  Uiso   1.00
C889   C     0.65548   0.47648   0.71834   0.00000  Uiso   1.00
C890   C     0.34452   0.52352   0.78166   0.00000  Uiso   1.00
C891   C     0.37004   0.47646   0.71838   0.00000  Uiso   1.00
C892   C     0.62996   0.52354   0.78162   0.00000  Uiso   1.00
C893   C     0.46920   0.49909   0.83803   0.00000  Uiso   1.00
C894   C     0.53080   0.50091   0.66197   0.00000  Uiso   1.00
C895   C     0.44947   0.49901   0.88891   0.00000  Uiso   1.00
C896   C     0.49939   0.42017   0.75105   0.00000  Uiso   1.00
C897   C     0.55053   0.50099   0.61109   0.00000  Uiso   1.00
C898   C     0.39031   0.52310   0.96315   0.00000  Uiso   1.00
C899   C     0.60969   0.47690   0.53685   0.00000  Uiso   1.00
C900   C     0.40456   0.51809   0.91507   0.00000  Uiso   1.00
C901   C     0.59544   0.48191   0.58493   0.00000  Uiso   1.00
C902   C     0.47902   0.48371   0.91113   0.00000  Uiso   1.00
C903   C     0.52098   0.51629   0.58887   0.00000  Uiso   1.00
C904   C     0.47043   0.49733   0.95670   0.00000  Uiso   1.00
C905   C     0.52957   0.50267   0.54330   0.00000  Uiso   1.00
C906   C     0.42324   0.51329   0.98411   0.00000  Uiso   1.00
C907   C     0.44304   0.51085   0.55224   0.00000  Uiso   1.00
C908   C     0.57676   0.48671   0.51589   0.00000  Uiso   1.00
C909   C     0.50686   0.49594   0.97582   0.00000  Uiso   1.00
C910   C     0.49314   0.50406   0.52417   0.00000  Uiso   1.00
C911   C     0.55969   0.62348   0.66397   0.00000  Uiso   1.00
C912   C     0.44031   0.37652   0.83603   0.00000  Uiso   1.00
C913   C     0.55696   0.48915   0.94776   0.00000  Uiso   1.00
C914   C     0.40930   0.51809   0.53214   0.00000  Uiso   1.00
C915   C     0.59070   0.48191   0.96786   0.00000  Uiso   1.00
C916   C     0.52963   0.64570   0.70810   0.00000  Uiso   1.00
C917   C     0.47037   0.35430   0.79190   0.00000  Uiso   1.00
C918   C     0.52828   0.35582   0.70915   0.00000  Uiso   1.00
Cl919  Cl    0.48269   0.56002   0.61424   0.00000  Uiso   1.00
Cl920  Cl    0.51731   0.43998   0.88575   0.00000  Uiso   1.00
Cl921  Cl    0.56439   0.38538   0.65894   0.00000  Uiso   1.00
Cl922  Cl    0.43562   0.61462   0.84106   0.00000  Uiso   1.00
H923   H     0.37198   0.52653   0.55433   0.00000  Uiso   1.00
H924   H     0.35241   0.54233   0.80699   0.00000  Uiso   1.00
H925   H     0.39833   0.45758   0.69307   0.00000  Uiso   1.00
H926   H     0.60167   0.54242   0.80693   0.00000  Uiso   1.00
H927   H     0.57800   0.61727   0.59448   0.00000  Uiso   1.00
H928   H     0.42200   0.38273   0.90552   0.00000  Uiso   1.00
H929   H     0.62802   0.47346   0.94567   0.00000  Uiso   1.00
H930   H     0.61921   0.47085   0.60159   0.00000  Uiso   1.00
H931   H     0.38079   0.52915   0.89841   0.00000  Uiso   1.00
H932   H     0.35476   0.53653   0.98348   0.00000  Uiso   1.00
H933   H     0.64524   0.46346   0.51652   0.00000  Uiso   1.00
H934   H     0.42912   0.51058   0.58995   0.00000  Uiso   1.00
H935   H     0.57088   0.48942   0.91005   0.00000  Uiso   1.00
H936   H     0.64759   0.45767   0.69301   0.00000  Uiso   1.00
N937   N     0.38093   0.50001   0.75001   0.00000  Uiso   1.00
N938   N     0.61907   0.49999   0.74999   0.00000  Uiso   1.00
O939   O     0.46179   0.56108   0.75000   0.00000  Uiso   1.00
O940   O     0.55561   0.63442   0.62203   0.00000  Uiso   1.00
O941   O     0.41169   0.40395   0.83585   0.00000  Uiso   1.00
O942   O     0.44439   0.36559   0.87797   0.00000  Uiso   1.00
O943   O     0.53821   0.43892   0.74999   0.00000  Uiso   1.00
O944   O     0.53823   0.56107   0.75000   0.00000  Uiso   1.00
O945   O     0.46177   0.43893   0.75000   0.00000  Uiso   1.00
O946   O     0.43994   0.50001   0.81612   0.00000  Uiso   1.00
O947   O     0.56006   0.49999   0.68387   0.00000  Uiso   1.00
O948   O     0.51639   0.50000   0.81612   0.00000  Uiso   1.00
O949   O     0.48361   0.50000   0.68388   0.00000  Uiso   1.00
O950   O     0.58831   0.59604   0.66415   0.00000  Uiso   1.00
Zn951  Zn    0.44896   0.50001   0.75000   0.00000  Uiso   1.00
Zn952  Zn    0.55104   0.49999   0.75000   0.00000  Uiso   1.00
C953   C     0.83395   0.57983   0.74895   0.00000  Uiso   1.00
C954   C     0.80505   0.64418   0.79085   0.00000  Uiso   1.00
C955   C     0.83225   0.37602   0.75076   0.00000  Uiso   1.00
C956   C     0.83442   0.62398   0.74924   0.00000  Uiso   1.00
C957   C     0.98881   0.47648   0.71834   0.00000  Uiso   1.00
C958   C     0.67785   0.52352   0.78166   0.00000  Uiso   1.00
C959   C     0.70338   0.47646   0.71838   0.00000  Uiso   1.00
C960   C     0.96329   0.52354   0.78162   0.00000  Uiso   1.00
C961   C     0.80253   0.49909   0.83803   0.00000  Uiso   1.00
C962   C     0.86414   0.50091   0.66197   0.00000  Uiso   1.00
C963   C     0.78281   0.49901   0.88891   0.00000  Uiso   1.00
C964   C     0.83272   0.42017   0.75105   0.00000  Uiso   1.00
C965   C     0.88386   0.50099   0.61109   0.00000  Uiso   1.00
C966   C     0.72365   0.52310   0.96315   0.00000  Uiso   1.00
C967   C     0.94302   0.47690   0.53685   0.00000  Uiso   1.00
C968   C     0.73789   0.51809   0.91507   0.00000  Uiso   1.00
C969   C     0.92877   0.48191   0.58493   0.00000  Uiso   1.00
C970   C     0.81235   0.48371   0.91113   0.00000  Uiso   1.00
C971   C     0.85431   0.51629   0.58887   0.00000  Uiso   1.00
C972   C     0.80376   0.49733   0.95670   0.00000  Uiso   1.00
C973   C     0.86290   0.50267   0.54330   0.00000  Uiso   1.00
C974   C     0.75657   0.51329   0.98411   0.00000  Uiso   1.00
C975   C     0.77637   0.51085   0.55224   0.00000  Uiso   1.00
C976   C     0.91010   0.48671   0.51589   0.00000  Uiso   1.00
C977   C     0.84019   0.49594   0.97582   0.00000  Uiso   1.00
C978   C     0.82648   0.50406   0.52417   0.00000  Uiso   1.00
C979   C     0.89302   0.62348   0.66397   0.00000  Uiso   1.00
C980   C     0.77365   0.37652   0.83603   0.00000  Uiso   1.00
C981   C     0.89030   0.48915   0.94776   0.00000  Uiso   1.00
C982   C     0.74263   0.51809   0.53214   0.00000  Uiso   1.00
C983   C     0.92404   0.48191   0.96786   0.00000  Uiso   1.00
C984   C     0.86296   0.64570   0.70810   0.00000  Uiso   1.00
C985   C     0.80371   0.35430   0.79190   0.00000  Uiso   1.00
C986   C     0.86162   0.35582   0.70915   0.00000  Uiso   1.00
Cl987  Cl    0.81603   0.56002   0.61424   0.00000  Uiso   1.00
Cl988  Cl    0.85064   0.43998   0.88575   0.00000  Uiso   1.00
Cl989  Cl    0.89772   0.38538   0.65894   0.00000  Uiso   1.00
Cl990  Cl    0.76895   0.61462   0.84106   0.00000  Uiso   1.00
H991   H     0.70531   0.52653   0.55433   0.00000  Uiso   1.00
H992   H     0.68575   0.54233   0.80699   0.00000  Uiso   1.00
H993   H     0.73166   0.45758   0.69307   0.00000  Uiso   1.00
H994   H     0.93500   0.54242   0.80693   0.00000  Uiso   1.00
H995   H     0.91133   0.61727   0.59448   0.00000  Uiso   1.00
H996   H     0.75533   0.38273   0.90552   0.00000  Uiso   1.00
H997   H     0.96135   0.47346   0.94567   0.00000  Uiso   1.00
H998   H     0.95255   0.47085   0.60159   0.00000  Uiso   1.00
H999   H     0.71412   0.52915   0.89841   0.00000  Uiso   1.00
H1000  H     0.68810   0.53653   0.98348   0.00000  Uiso   1.00
H1001  H     0.97857   0.46346   0.51652   0.00000  Uiso   1.00
H1002  H     0.76245   0.51058   0.58995   0.00000  Uiso   1.00
H1003  H     0.90421   0.48942   0.91005   0.00000  Uiso   1.00
H1004  H     0.98092   0.45767   0.69301   0.00000  Uiso   1.00
N1005  N     0.71426   0.50001   0.75001   0.00000  Uiso   1.00
N1006  N     0.95241   0.49999   0.74999   0.00000  Uiso   1.00
O1007  O     0.79512   0.56108   0.75000   0.00000  Uiso   1.00
O1008  O     0.88895   0.63442   0.62203   0.00000  Uiso   1.00
O1009  O     0.74502   0.40395   0.83585   0.00000  Uiso   1.00
O1010  O     0.77772   0.36559   0.87797   0.00000  Uiso   1.00
O1011  O     0.87154   0.43892   0.74999   0.00000  Uiso   1.00
O1012  O     0.87157   0.56107   0.75000   0.00000  Uiso   1.00
O1013  O     0.79510   0.43893   0.75000   0.00000  Uiso   1.00
O1014  O     0.77328   0.50001   0.81612   0.00000  Uiso   1.00
O1015  O     0.89339   0.49999   0.68387   0.00000  Uiso   1.00
O1016  O     0.84972   0.50000   0.81612   0.00000  Uiso   1.00
O1017  O     0.81695   0.50000   0.68388   0.00000  Uiso   1.00
O1018  O     0.92164   0.59604   0.66415   0.00000  Uiso   1.00
Zn1019 Zn    0.78229   0.50001   0.75000   0.00000  Uiso   1.00
Zn1020 Zn    0.88438   0.49999   0.75000   0.00000  Uiso   1.00
C1021  C     0.16728   0.91316   0.74895   0.00000  Uiso   1.00
C1022  C     0.13839   0.97752   0.79085   0.00000  Uiso   1.00
C1023  C     0.16558   0.70935   0.75076   0.00000  Uiso   1.00
C1024  C     0.16775   0.95732   0.74924   0.00000  Uiso   1.00
C1025  C     0.32215   0.80981   0.71834   0.00000  Uiso   1.00
C1026  C     0.01119   0.85685   0.78166   0.00000  Uiso   1.00
C1027  C     0.03671   0.80980   0.71838   0.00000  Uiso   1.00
C1028  C     0.29662   0.85687   0.78162   0.00000  Uiso   1.00
C1029  C     0.13586   0.83243   0.83803   0.00000  Uiso   1.00
C1030  C     0.19747   0.83424   0.66197   0.00000  Uiso   1.00
C1031  C     0.11614   0.83235   0.88891   0.00000  Uiso   1.00
C1032  C     0.16605   0.75350   0.75105   0.00000  Uiso   1.00
C1033  C     0.21719   0.83432   0.61109   0.00000  Uiso   1.00
C1034  C     0.05698   0.85643   0.96315   0.00000  Uiso   1.00
C1035  C     0.27635   0.81023   0.53685   0.00000  Uiso   1.00
C1036  C     0.07123   0.85142   0.91507   0.00000  Uiso   1.00
C1037  C     0.26211   0.81525   0.58493   0.00000  Uiso   1.00
C1038  C     0.14569   0.81704   0.91113   0.00000  Uiso   1.00
C1039  C     0.18765   0.84962   0.58887   0.00000  Uiso   1.00
C1040  C     0.13710   0.83067   0.95670   0.00000  Uiso   1.00
C1041  C     0.19624   0.83600   0.54330   0.00000  Uiso   1.00
C1042  C     0.08990   0.84662   0.98411   0.00000  Uiso   1.00
C1043  C     0.10970   0.84419   0.55224   0.00000  Uiso   1.00
C1044  C     0.24343   0.82005   0.51589   0.00000  Uiso   1.00
C1045  C     0.17352   0.82927   0.97582   0.00000  Uiso   1.00
C1046  C     0.15981   0.83740   0.52417   0.00000  Uiso   1.00
C1047  C     0.22635   0.95681   0.66397   0.00000  Uiso   1.00
C1048  C     0.10698   0.70986   0.83603   0.00000  Uiso   1.00
C1049  C     0.22363   0.82248   0.94776   0.00000  Uiso   1.00
C1050  C     0.07596   0.85143   0.53214   0.00000  Uiso   1.00
C1051  C     0.25737   0.81524   0.96786   0.00000  Uiso   1.00
C1052  C     0.19629   0.97904   0.70810   0.00000  Uiso   1.00
C1053  C     0.13704   0.68763   0.79190   0.00000  Uiso   1.00
C1054  C     0.19495   0.68915   0.70915   0.00000  Uiso   1.00
Cl1055 Cl    0.14936   0.89335   0.61424   0.00000  Uiso   1.00
Cl1056 Cl    0.18397   0.77331   0.88575   0.00000  Uiso   1.00
Cl1057 Cl    0.23105   0.71872   0.65894   0.00000  Uiso   1.00
Cl1058 Cl    0.10228   0.94795   0.84106   0.00000  Uiso   1.00
H1059  H     0.03865   0.85987   0.55433   0.00000  Uiso   1.00
H1060  H     0.01908   0.87566   0.80699   0.00000  Uiso   1.00
H1061  H     0.06500   0.79091   0.69307   0.00000  Uiso   1.00
H1062  H     0.26834   0.87575   0.80693   0.00000  Uiso   1.00
H1063  H     0.24467   0.95061   0.59448   0.00000  Uiso   1.00
H1064  H     0.08867   0.71606   0.90552   0.00000  Uiso   1.00
H1065  H     0.29469   0.80680   0.94567   0.00000  Uiso   1.00
H1066  H     0.28588   0.80418   0.60159   0.00000  Uiso   1.00
H1067  H     0.04746   0.86248   0.89841   0.00000  Uiso   1.00
H1068  H     0.02143   0.86987   0.98348   0.00000  Uiso   1.00
H1069  H     0.31190   0.79680   0.51652   0.00000  Uiso   1.00
H1070  H     0.09579   0.84391   0.58995   0.00000  Uiso   1.00
H1071  H     0.23755   0.82275   0.91005   0.00000  Uiso   1.00
H1072  H     0.31425   0.79101   0.69301   0.00000  Uiso   1.00
N1073  N     0.04759   0.83334   0.75001   0.00000  Uiso   1.00
N1074  N     0.28574   0.83332   0.74999   0.00000  Uiso   1.00
O1075  O     0.12846   0.89442   0.75000   0.00000  Uiso   1.00
O1076  O     0.22228   0.96775   0.62203   0.00000  Uiso   1.00
O1077  O     0.07836   0.73729   0.83585   0.00000  Uiso   1.00
O1078  O     0.11105   0.69892   0.87797   0.00000  Uiso   1.00
O1079  O     0.20488   0.77225   0.74999   0.00000  Uiso   1.00
O1080  O     0.20490   0.89441   0.75000   0.00000  Uiso   1.00
O1081  O     0.12843   0.77226   0.75000   0.00000  Uiso   1.00
O1082  O     0.10661   0.83334   0.81612   0.00000  Uiso   1.00
O1083  O     0.22672   0.83333   0.68387   0.00000  Uiso   1.00
O1084  O     0.18305   0.83333   0.81612   0.00000  Uiso   1.00
O1085  O     0.15028   0.83334   0.68388   0.00000  Uiso   1.00
O1086  O     0.25497   0.92938   0.66415   0.00000  Uiso   1.00
Zn1087 Zn    0.11562   0.83334   0.75000   0.00000  Uiso   1.00
Zn1088 Zn    0.21771   0.83333   0.75000   0.00000  Uiso   1.00
C1089  C     0.50062   0.91316   0.74895   0.00000  Uiso   1.00
C1090  C     0.47172   0.97752   0.79085   0.00000  Uiso   1.00
C1091  C     0.49892   0.70935   0.75076   0.00000  Uiso   1.00
C1092  C     0.50108   0.95732   0.74924   0.00000  Uiso   1.00
C1093  C     0.65548   0.80981   0.71834   0.00000  Uiso   1.00
C1094  C     0.34452   0.85685   0.78166   0.00000  Uiso   1.00
C1095  C     0.37004   0.80980   0.71838   0.00000  Uiso   1.00
C1096  C     0.62996   0.85687   0.78162   0.00000  Uiso   1.00
C1097  C     0.46920   0.83243   0.83803   0.00000  Uiso   1.00
C1098  C     0.53080   0.83424   0.66197   0.00000  Uiso   1.00
C1099  C     0.44947   0.83235   0.88891   0.00000  Uiso   1.00
C1100  C     0.49939   0.75350   0.75105   0.00000  Uiso   1.00
C1101  C     0.55053   0.83432   0.61109   0.00000  Uiso   1.00
C1102  C     0.39031   0.85643   0.96315   0.00000  Uiso   1.00
C1103  C     0.60969   0.81023   0.53685   0.00000  Uiso   1.00
C1104  C     0.40456   0.85142   0.91507   0.00000  Uiso   1.00
C1105  C     0.59544   0.81525   0.58493   0.00000  Uiso   1.00
C1106  C     0.47902   0.81704   0.91113   0.00000  Uiso   1.00
C1107  C     0.52098   0.84962   0.58887   0.00000  Uiso   1.00
C1108  C     0.47043   0.83067   0.95670   0.00000  Uiso   1.00
C1109  C     0.52957   0.83600   0.54330   0.00000  Uiso   1.00
C1110  C     0.42324   0.84662   0.98411   0.00000  Uiso   1.00
C1111  C     0.44304   0.84419   0.55224   0.00000  Uiso   1.00
C1112  C     0.57676   0.82005   0.51589   0.00000  Uiso   1.00
C1113  C     0.50686   0.82927   0.97582   0.00000  Uiso   1.00
C1114  C     0.49314   0.83740   0.52417   0.00000  Uiso   1.00
C1115  C     0.55969   0.95681   0.66397   0.00000  Uiso   1.00
C1116  C     0.44031   0.70986   0.83603   0.00000  Uiso   1.00
C1117  C     0.55696   0.82248   0.94776   0.00000  Uiso   1.00
C1118  C     0.40930   0.85143   0.53214   0.00000  Uiso   1.00
C1119  C     0.59070   0.81524   0.96786   0.00000  Uiso   1.00
C1120  C     0.52963   0.97904   0.70810   0.00000  Uiso   1.00
C1121  C     0.47037   0.68763   0.79190   0.00000  Uiso   1.00
C1122  C     0.52828   0.68915   0.70915   0.00000  Uiso   1.00
Cl1123 Cl    0.48269   0.89335   0.61424   0.00000  Uiso   1.00
Cl1124 Cl    0.51731   0.77331   0.88575   0.00000  Uiso   1.00
Cl1125 Cl    0.56439   0.71872   0.65894   0.00000  Uiso   1.00
Cl1126 Cl    0.43562   0.94795   0.84106   0.00000  Uiso   1.00
H1127  H     0.37198   0.85987   0.55433   0.00000  Uiso   1.00
H1128  H     0.35241   0.87566   0.80699   0.00000  Uiso   1.00
H1129  H     0.39833   0.79091   0.69307   0.00000  Uiso   1.00
H1130  H     0.60167   0.87575   0.80693   0.00000  Uiso   1.00
H1131  H     0.57800   0.95061   0.59448   0.00000  Uiso   1.00
H1132  H     0.42200   0.71606   0.90552   0.00000  Uiso   1.00
H1133  H     0.62802   0.80680   0.94567   0.00000  Uiso   1.00
H1134  H     0.61921   0.80418   0.60159   0.00000  Uiso   1.00
H1135  H     0.38079   0.86248   0.89841   0.00000  Uiso   1.00
H1136  H     0.35476   0.86987   0.98348   0.00000  Uiso   1.00
H1137  H     0.64524   0.79680   0.51652   0.00000  Uiso   1.00
H1138  H     0.42912   0.84391   0.58995   0.00000  Uiso   1.00
H1139  H     0.57088   0.82275   0.91005   0.00000  Uiso   1.00
H1140  H     0.64759   0.79101   0.69301   0.00000  Uiso   1.00
N1141  N     0.38093   0.83334   0.75001   0.00000  Uiso   1.00
N1142  N     0.61907   0.83332   0.74999   0.00000  Uiso   1.00
O1143  O     0.46179   0.89442   0.75000   0.00000  Uiso   1.00
O1144  O     0.55561   0.96775   0.62203   0.00000  Uiso   1.00
O1145  O     0.41169   0.73729   0.83585   0.00000  Uiso   1.00
O1146  O     0.44439   0.69892   0.87797   0.00000  Uiso   1.00
O1147  O     0.53821   0.77225   0.74999   0.00000  Uiso   1.00
O1148  O     0.53823   0.89441   0.75000   0.00000  Uiso   1.00
O1149  O     0.46177   0.77226   0.75000   0.00000  Uiso   1.00
O1150  O     0.43994   0.83334   0.81612   0.00000  Uiso   1.00
O1151  O     0.56006   0.83333   0.68387   0.00000  Uiso   1.00
O1152  O     0.51639   0.83333   0.81612   0.00000  Uiso   1.00
O1153  O     0.48361   0.83334   0.68388   0.00000  Uiso   1.00
O1154  O     0.58831   0.92938   0.66415   0.00000  Uiso   1.00
Zn1155 Zn    0.44896   0.83334   0.75000   0.00000  Uiso   1.00
Zn1156 Zn    0.55104   0.83333   0.75000   0.00000  Uiso   1.00
C1157  C     0.83395   0.91316   0.74895   0.00000  Uiso   1.00
C1158  C     0.80505   0.97752   0.79085   0.00000  Uiso   1.00
C1159  C     0.83225   0.70935   0.75076   0.00000  Uiso   1.00
C1160  C     0.83442   0.95732   0.74924   0.00000  Uiso   1.00
C1161  C     0.98881   0.80981   0.71834   0.00000  Uiso   1.00
C1162  C     0.67785   0.85685   0.78166   0.00000  Uiso   1.00
C1163  C     0.70338   0.80980   0.71838   0.00000  Uiso   1.00
C1164  C     0.96329   0.85687   0.78162   0.00000  Uiso   1.00
C1165  C     0.80253   0.83243   0.83803   0.00000  Uiso   1.00
C1166  C     0.86414   0.83424   0.66197   0.00000  Uiso   1.00
C1167  C     0.78281   0.83235   0.88891   0.00000  Uiso   1.00
C1168  C     0.83272   0.75350   0.75105   0.00000  Uiso   1.00
C1169  C     0.88386   0.83432   0.61109   0.00000  Uiso   1.00
C1170  C     0.72365   0.85643   0.96315   0.00000  Uiso   1.00
C1171  C     0.94302   0.81023   0.53685   0.00000  Uiso   1.00
C1172  C     0.73789   0.85142   0.91507   0.00000  Uiso   1.00
C1173  C     0.92877   0.81525   0.58493   0.00000  Uiso   1.00
C1174  C     0.81235   0.81704   0.91113   0.00000  Uiso   1.00
C1175  C     0.85431   0.84962   0.58887   0.00000  Uiso   1.00
C1176  C     0.80376   0.83067   0.95670   0.00000  Uiso   1.00
C1177  C     0.86290   0.83600   0.54330   0.00000  Uiso   1.00
C1178  C     0.75657   0.84662   0.98411   0.00000  Uiso   1.00
C1179  C     0.77637   0.84419   0.55224   0.00000  Uiso   1.00
C1180  C     0.91010   0.82005   0.51589   0.00000  Uiso   1.00
C1181  C     0.84019   0.82927   0.97582   0.00000  Uiso   1.00
C1182  C     0.82648   0.83740   0.52417   0.00000  Uiso   1.00
C1183  C     0.89302   0.95681   0.66397   0.00000  Uiso   1.00
C1184  C     0.77365   0.70986   0.83603   0.00000  Uiso   1.00
C1185  C     0.89030   0.82248   0.94776   0.00000  Uiso   1.00
C1186  C     0.74263   0.85143   0.53214   0.00000  Uiso   1.00
C1187  C     0.92404   0.81524   0.96786   0.00000  Uiso   1.00
C1188  C     0.86296   0.97904   0.70810   0.00000  Uiso   1.00
C1189  C     0.80371   0.68763   0.79190   0.00000  Uiso   1.00
C1190  C     0.86162   0.68915   0.70915   0.00000  Uiso   1.00
Cl1191 Cl    0.81603   0.89335   0.61424   0.00000  Uiso   1.00
Cl1192 Cl    0.85064   0.77331   0.88575   0.00000  Uiso   1.00
Cl1193 Cl    0.89772   0.71872   0.65894   0.00000  Uiso   1.00
Cl1194 Cl    0.76895   0.94795   0.84106   0.00000  Uiso   1.00
H1195  H     0.70531   0.85987   0.55433   0.00000  Uiso   1.00
H1196  H     0.68575   0.87566   0.80699   0.00000  Uiso   1.00
H1197  H     0.73166   0.79091   0.69307   0.00000  Uiso   1.00
H1198  H     0.93500   0.87575   0.80693   0.00000  Uiso   1.00
H1199  H     0.91133   0.95061   0.59448   0.00000  Uiso   1.00
H1200  H     0.75533   0.71606   0.90552   0.00000  Uiso   1.00
H1201  H     0.96135   0.80680   0.94567   0.00000  Uiso   1.00
H1202  H     0.95255   0.80418   0.60159   0.00000  Uiso   1.00
H1203  H     0.71412   0.86248   0.89841   0.00000  Uiso   1.00
H1204  H     0.68810   0.86987   0.98348   0.00000  Uiso   1.00
H1205  H     0.97857   0.79680   0.51652   0.00000  Uiso   1.00
H1206  H     0.76245   0.84391   0.58995   0.00000  Uiso   1.00
H1207  H     0.90421   0.82275   0.91005   0.00000  Uiso   1.00
H1208  H     0.98092   0.79101   0.69301   0.00000  Uiso   1.00
N1209  N     0.71426   0.83334   0.75001   0.00000  Uiso   1.00
N1210  N     0.95241   0.83332   0.74999   0.00000  Uiso   1.00
O1211  O     0.79512   0.89442   0.75000   0.00000  Uiso   1.00
O1212  O     0.88895   0.96775   0.62203   0.00000  Uiso   1.00
O1213  O     0.74502   0.73729   0.83585   0.00000  Uiso   1.00
O1214  O     0.77772   0.69892   0.87797   0.00000  Uiso   1.00
O1215  O     0.87154   0.77225   0.74999   0.00000  Uiso   1.00
O1216  O     0.87157   0.89441   0.75000   0.00000  Uiso   1.00
O1217  O     0.79510   0.77226   0.75000   0.00000  Uiso   1.00
O1218  O     0.77328   0.83334   0.81612   0.00000  Uiso   1.00
O1219  O     0.89339   0.83333   0.68387   0.00000  Uiso   1.00
O1220  O     0.84972   0.83333   0.81612   0.00000  Uiso   1.00
O1221  O     0.81695   0.83334   0.68388   0.00000  Uiso   1.00
O1222  O     0.92164   0.92938   0.66415   0.00000  Uiso   1.00
Zn1223 Zn    0.78229   0.83334   0.75000   0.00000  Uiso   1.00
Zn1224 Zn    0.88438   0.83333   0.75000   0.00000  Uiso   1.00
loop_
_geom_bond_atom_site_label_1
_geom_bond_atom_site_label_2
_geom_bond_distance
_geom_bond_site_symmetry_2
_ccdc_geom_bond_type
C1     O60     1.278   .     A
C1     C4      1.408   .     S
C1     O55     1.281   .     A
C2     C4      1.401   .     A
C2     Cl38    1.777   .     S
C2     C237    1.386   .     S
C3     C12     1.408   .     S
C3     C33     1.408   .     A
C3     C34     1.401   .     A
C4     C32     1.408   .     A
C5     N54     1.366   .     A
C5     H52     1.082   .     S
C5     C75     1.417   .     S
C6     N53     1.366   .     A
C6     H40     1.082   .     S
C6     C144    1.417   1_455 S
C7     H41     1.082   .     S
C7     N53     1.368   .     A
C7     C141    1.417   1_455 S
C8     N54     1.368   .     A
C8     H42     1.082   .     S
C8     C74     1.417   .     S
C9     C11     1.454   .     S
C9     O62     1.292   .     A
C9     O64     1.293   .     A
C10    O63     1.292   .     A
C10    O65     1.293   .     A
C10    C13     1.454   .     S
C11    C18     1.398   .     A
C11    C16     1.400   .     A
C12    O61     1.278   .     A
C12    O59     1.281   .     A
C13    C17     1.400   .     A
C13    C19     1.398   .     A
C14    C22     1.402   .     A
C14    C16     1.392   .     A
C14    H48     1.084   .     S
C15    H49     1.084   .     S
C15    C24     1.402   .     A
C15    C17     1.392   .     A
C16    H47     1.083   .     S
C17    H46     1.083   .     S
C18    C20     1.403   .     A
C18    Cl36    1.779   .     S
C19    Cl35    1.779   .     S
C19    C21     1.403   .     A
C20    C22     1.418   .     A
C20    C25     1.419   .     A
C21    C26     1.419   .     A
C21    C24     1.418   .     A
C22    C642    1.391   .     S
C23    C30     1.388   .     A
C23    C26     1.414   .     A
C23    H50     1.079   .     S
C24    C643    1.391   1_554 S
C25    C29     1.414   .     A
C25    C638    1.417   .     S
C26    C637    1.417   1_554 S
C27    O66     1.222   .     D
C27    C32     1.490   .     S
C27    O56     1.398   .     S
C28    O58     1.398   .     S
C28    O57     1.222   .     D
C28    C33     1.490   .     S
C29    C31     1.388   .     A
C29    H51     1.079   .     S
C30    H39     1.084   .     S
C30    C634    1.391   1_554 S
C31    H45     1.084   .     S
C31    C636    1.391   .     S
C32    C238    1.386   .     S
C33    C410    1.386   1_545 S
C34    Cl37    1.777   .     S
C34    C440    1.386   1_545 S
H43    O56     1.014   .     S
H44    O58     1.014   .     S
N53    Zn67    2.013   .     S
N54    Zn68    2.013   .     S
O55    Zn67    1.983   .     S
O59    Zn68    1.983   .     S
O60    Zn68    1.987   .     S
O61    Zn67    1.987   .     S
O62    Zn67    1.963   .     S
O63    Zn68    1.963   .     S
O64    Zn68    1.903   .     S
O65    Zn67    1.903   .     S
C69    O128    1.278   .     A
C69    C72     1.408   .     S
C69    O123    1.281   .     A
C70    C72     1.401   .     A
C70    Cl106   1.777   .     S
C70    C305    1.386   .     S
C71    C80     1.408   .     S
C71    C101    1.408   .     A
C71    C102    1.401   .     A
C72    C100    1.408   .     A
C73    N122    1.366   .     A
C73    H120    1.082   .     S
C73    C143    1.417   .     S
C74    N121    1.366   .     A
C74    H108    1.082   .     S
C75    H109    1.082   .     S
C75    N121    1.368   .     A
C76    N122    1.368   .     A
C76    H110    1.082   .     S
C76    C142    1.417   .     S
C77    C79     1.454   .     S
C77    O130    1.292   .     A
C77    O132    1.293   .     A
C78    O131    1.292   .     A
C78    O133    1.293   .     A
C78    C81     1.454   .     S
C79    C86     1.398   .     A
C79    C84     1.400   .     A
C80    O129    1.278   .     A
C80    O127    1.281   .     A
C81    C85     1.400   .     A
C81    C87     1.398   .     A
C82    C90     1.402   .     A
C82    C84     1.392   .     A
C82    H116    1.084   .     S
C83    H117    1.084   .     S
C83    C92     1.402   .     A
C83    C85     1.392   .     A
C84    H115    1.083   .     S
C85    H114    1.083   .     S
C86    C88     1.403   .     A
C86    Cl104   1.779   .     S
C87    Cl103   1.779   .     S
C87    C89     1.403   .     A
C88    C90     1.418   .     A
C88    C93     1.419   .     A
C89    C94     1.419   .     A
C89    C92     1.418   .     A
C90    C710    1.391   .     S
C91    C98     1.388   .     A
C91    C94     1.414   .     A
C91    H118    1.079   .     S
C92    C711    1.391   1_554 S
C93    C97     1.414   .     A
C93    C706    1.417   .     S
C94    C705    1.417   1_554 S
C95    O134    1.222   .     D
C95    C100    1.490   .     S
C95    O124    1.398   .     S
C96    O126    1.398   .     S
C96    O125    1.222   .     D
C96    C101    1.490   .     S
C97    C99     1.388   .     A
C97    H119    1.079   .     S
C98    H107    1.084   .     S
C98    C702    1.391   1_554 S
C99    H113    1.084   .     S
C99    C704    1.391   .     S
C100   C306    1.386   .     S
C101   C478    1.386   1_545 S
C102   Cl105   1.777   .     S
C102   C508    1.386   1_545 S
H111   O124    1.014   .     S
H112   O126    1.014   .     S
N121   Zn135   2.013   .     S
N122   Zn136   2.013   .     S
O123   Zn135   1.983   .     S
O127   Zn136   1.983   .     S
O128   Zn136   1.987   .     S
O129   Zn135   1.987   .     S
O130   Zn135   1.963   .     S
O131   Zn136   1.963   .     S
O132   Zn136   1.903   .     S
O133   Zn135   1.903   .     S
C137   O196    1.278   .     A
C137   C140    1.408   .     S
C137   O191    1.281   .     A
C138   C140    1.401   .     A
C138   Cl174   1.777   .     S
C138   C373    1.386   .     S
C139   C148    1.408   .     S
C139   C169    1.408   .     A
C139   C170    1.401   .     A
C140   C168    1.408   .     A
C141   N190    1.366   .     A
C141   H188    1.082   .     S
C141   C7      1.417   1_655 S
C142   N189    1.366   .     A
C142   H176    1.082   .     S
C143   H177    1.082   .     S
C143   N189    1.368   .     A
C144   N190    1.368   .     A
C144   H178    1.082   .     S
C144   C6      1.417   1_655 S
C145   C147    1.454   .     S
C145   O198    1.292   .     A
C145   O200    1.293   .     A
C146   O199    1.292   .     A
C146   O201    1.293   .     A
C146   C149    1.454   .     S
C147   C154    1.398   .     A
C147   C152    1.400   .     A
C148   O197    1.278   .     A
C148   O195    1.281   .     A
C149   C153    1.400   .     A
C149   C155    1.398   .     A
C150   C158    1.402   .     A
C150   C152    1.392   .     A
C150   H184    1.084   .     S
C151   H185    1.084   .     S
C151   C160    1.402   .     A
C151   C153    1.392   .     A
C152   H183    1.083   .     S
C153   H182    1.083   .     S
C154   C156    1.403   .     A
C154   Cl172   1.779   .     S
C155   Cl171   1.779   .     S
C155   C157    1.403   .     A
C156   C158    1.418   .     A
C156   C161    1.419   .     A
C157   C162    1.419   .     A
C157   C160    1.418   .     A
C158   C778    1.391   .     S
C159   C166    1.388   .     A
C159   C162    1.414   .     A
C159   H186    1.079   .     S
C160   C779    1.391   1_554 S
C161   C165    1.414   .     A
C161   C774    1.417   .     S
C162   C773    1.417   1_554 S
C163   O202    1.222   .     D
C163   C168    1.490   .     S
C163   O192    1.398   .     S
C164   O194    1.398   .     S
C164   O193    1.222   .     D
C164   C169    1.490   .     S
C165   C167    1.388   .     A
C165   H187    1.079   .     S
C166   H175    1.084   .     S
C166   C770    1.391   1_554 S
C167   H181    1.084   .     S
C167   C772    1.391   .     S
C168   C374    1.386   .     S
C169   C546    1.386   1_545 S
C170   Cl173   1.777   .     S
C170   C576    1.386   1_545 S
H179   O192    1.014   .     S
H180   O194    1.014   .     S
N189   Zn203   2.013   .     S
N190   Zn204   2.013   .     S
O191   Zn203   1.983   .     S
O195   Zn204   1.983   .     S
O196   Zn204   1.987   .     S
O197   Zn203   1.987   .     S
O198   Zn203   1.963   .     S
O199   Zn204   1.963   .     S
O200   Zn204   1.903   .     S
O201   Zn203   1.903   .     S
C205   O264    1.278   .     A
C205   C208    1.408   .     S
C205   O259    1.281   .     A
C206   C208    1.401   .     A
C206   Cl242   1.777   .     S
C206   C441    1.386   .     S
C207   C216    1.408   .     S
C207   C237    1.408   .     A
C207   C238    1.401   .     A
C208   C236    1.408   .     A
C209   N258    1.366   .     A
C209   H256    1.082   .     S
C209   C279    1.417   .     S
C210   N257    1.366   .     A
C210   H244    1.082   .     S
C210   C348    1.417   1_455 S
C211   H245    1.082   .     S
C211   N257    1.368   .     A
C211   C345    1.417   1_455 S
C212   N258    1.368   .     A
C212   H246    1.082   .     S
C212   C278    1.417   .     S
C213   C215    1.454   .     S
C213   O266    1.292   .     A
C213   O268    1.293   .     A
C214   O267    1.292   .     A
C214   O269    1.293   .     A
C214   C217    1.454   .     S
C215   C222    1.398   .     A
C215   C220    1.400   .     A
C216   O265    1.278   .     A
C216   O263    1.281   .     A
C217   C221    1.400   .     A
C217   C223    1.398   .     A
C218   C226    1.402   .     A
C218   C220    1.392   .     A
C218   H252    1.084   .     S
C219   H253    1.084   .     S
C219   C228    1.402   .     A
C219   C221    1.392   .     A
C220   H251    1.083   .     S
C221   H250    1.083   .     S
C222   C224    1.403   .     A
C222   Cl240   1.779   .     S
C223   Cl239   1.779   .     S
C223   C225    1.403   .     A
C224   C226    1.418   .     A
C224   C229    1.419   .     A
C225   C230    1.419   .     A
C225   C228    1.418   .     A
C226   C846    1.391   .     S
C227   C234    1.388   .     A
C227   C230    1.414   .     A
C227   H254    1.079   .     S
C228   C847    1.391   1_554 S
C229   C233    1.414   .     A
C229   C842    1.417   .     S
C230   C841    1.417   1_554 S
C231   O270    1.222   .     D
C231   C236    1.490   .     S
C231   O260    1.398   .     S
C232   O262    1.398   .     S
C232   O261    1.222   .     D
C232   C237    1.490   .     S
C233   C235    1.388   .     A
C233   H255    1.079   .     S
C234   H243    1.084   .     S
C234   C838    1.391   1_554 S
C235   H249    1.084   .     S
C235   C840    1.391   .     S
C236   C442    1.386   .     S
C238   Cl241   1.777   .     S
H247   O260    1.014   .     S
H248   O262    1.014   .     S
N257   Zn271   2.013   .     S
N258   Zn272   2.013   .     S
O259   Zn271   1.983   .     S
O263   Zn272   1.983   .     S
O264   Zn272   1.987   .     S
O265   Zn271   1.987   .     S
O266   Zn271   1.963   .     S
O267   Zn272   1.963   .     S
O268   Zn272   1.903   .     S
O269   Zn271   1.903   .     S
C273   O332    1.278   .     A
C273   C276    1.408   .     S
C273   O327    1.281   .     A
C274   C276    1.401   .     A
C274   Cl310   1.777   .     S
C274   C509    1.386   .     S
C275   C284    1.408   .     S
C275   C305    1.408   .     A
C275   C306    1.401   .     A
C276   C304    1.408   .     A
C277   N326    1.366   .     A
C277   H324    1.082   .     S
C277   C347    1.417   .     S
C278   N325    1.366   .     A
C278   H312    1.082   .     S
C279   H313    1.082   .     S
C279   N325    1.368   .     A
C280   N326    1.368   .     A
C280   H314    1.082   .     S
C280   C346    1.417   .     S
C281   C283    1.454   .     S
C281   O334    1.292   .     A
C281   O336    1.293   .     A
C282   O335    1.292   .     A
C282   O337    1.293   .     A
C282   C285    1.454   .     S
C283   C290    1.398   .     A
C283   C288    1.400   .     A
C284   O333    1.278   .     A
C284   O331    1.281   .     A
C285   C289    1.400   .     A
C285   C291    1.398   .     A
C286   C294    1.402   .     A
C286   C288    1.392   .     A
C286   H320    1.084   .     S
C287   H321    1.084   .     S
C287   C296    1.402   .     A
C287   C289    1.392   .     A
C288   H319    1.083   .     S
C289   H318    1.083   .     S
C290   C292    1.403   .     A
C290   Cl308   1.779   .     S
C291   Cl307   1.779   .     S
C291   C293    1.403   .     A
C292   C294    1.418   .     A
C292   C297    1.419   .     A
C293   C298    1.419   .     A
C293   C296    1.418   .     A
C294   C914    1.391   .     S
C295   C302    1.388   .     A
C295   C298    1.414   .     A
C295   H322    1.079   .     S
C296   C915    1.391   1_554 S
C297   C301    1.414   .     A
C297   C910    1.417   .     S
C298   C909    1.417   1_554 S
C299   O338    1.222   .     D
C299   C304    1.490   .     S
C299   O328    1.398   .     S
C300   O330    1.398   .     S
C300   O329    1.222   .     D
C300   C305    1.490   .     S
C301   C303    1.388   .     A
C301   H323    1.079   .     S
C302   H311    1.084   .     S
C302   C906    1.391   1_554 S
C303   H317    1.084   .     S
C303   C908    1.391   .     S
C304   C510    1.386   .     S
C306   Cl309   1.777   .     S
H315   O328    1.014   .     S
H316   O330    1.014   .     S
N325   Zn339   2.013   .     S
N326   Zn340   2.013   .     S
O327   Zn339   1.983   .     S
O331   Zn340   1.983   .     S
O332   Zn340   1.987   .     S
O333   Zn339   1.987   .     S
O334   Zn339   1.963   .     S
O335   Zn340   1.963   .     S
O336   Zn340   1.903   .     S
O337   Zn339   1.903   .     S
C341   O400    1.278   .     A
C341   C344    1.408   .     S
C341   O395    1.281   .     A
C342   C344    1.401   .     A
C342   Cl378   1.777   .     S
C342   C577    1.386   .     S
C343   C352    1.408   .     S
C343   C373    1.408   .     A
C343   C374    1.401   .     A
C344   C372    1.408   .     A
C345   N394    1.366   .     A
C345   H392    1.082   .     S
C345   C211    1.417   1_655 S
C346   N393    1.366   .     A
C346   H380    1.082   .     S
C347   H381    1.082   .     S
C347   N393    1.368   .     A
C348   N394    1.368   .     A
C348   H382    1.082   .     S
C348   C210    1.417   1_655 S
C349   C351    1.454   .     S
C349   O402    1.292   .     A
C349   O404    1.293   .     A
C350   O403    1.292   .     A
C350   O405    1.293   .     A
C350   C353    1.454   .     S
C351   C358    1.398   .     A
C351   C356    1.400   .     A
C352   O401    1.278   .     A
C352   O399    1.281   .     A
C353   C357    1.400   .     A
C353   C359    1.398   .     A
C354   C362    1.402   .     A
C354   C356    1.392   .     A
C354   H388    1.084   .     S
C355   H389    1.084   .     S
C355   C364    1.402   .     A
C355   C357    1.392   .     A
C356   H387    1.083   .     S
C357   H386    1.083   .     S
C358   C360    1.403   .     A
C358   Cl376   1.779   .     S
C359   Cl375   1.779   .     S
C359   C361    1.403   .     A
C360   C362    1.418   .     A
C360   C365    1.419   .     A
C361   C366    1.419   .     A
C361   C364    1.418   .     A
C362   C982    1.391   .     S
C363   C370    1.388   .     A
C363   C366    1.414   .     A
C363   H390    1.079   .     S
C364   C983    1.391   1_554 S
C365   C369    1.414   .     A
C365   C978    1.417   .     S
C366   C977    1.417   1_554 S
C367   O406    1.222   .     D
C367   C372    1.490   .     S
C367   O396    1.398   .     S
C368   O398    1.398   .     S
C368   O397    1.222   .     D
C368   C373    1.490   .     S
C369   C371    1.388   .     A
C369   H391    1.079   .     S
C370   H379    1.084   .     S
C370   C974    1.391   1_554 S
C371   H385    1.084   .     S
C371   C976    1.391   .     S
C372   C578    1.386   .     S
C374   Cl377   1.777   .     S
H383   O396    1.014   .     S
H384   O398    1.014   .     S
N393   Zn407   2.013   .     S
N394   Zn408   2.013   .     S
O395   Zn407   1.983   .     S
O399   Zn408   1.983   .     S
O400   Zn408   1.987   .     S
O401   Zn407   1.987   .     S
O402   Zn407   1.963   .     S
O403   Zn408   1.963   .     S
O404   Zn408   1.903   .     S
O405   Zn407   1.903   .     S
C409   O468    1.278   .     A
C409   C412    1.408   .     S
C409   O463    1.281   .     A
C410   C412    1.401   .     A
C410   Cl446   1.777   .     S
C410   C33     1.386   1_565 S
C411   C420    1.408   .     S
C411   C441    1.408   .     A
C411   C442    1.401   .     A
C412   C440    1.408   .     A
C413   N462    1.366   .     A
C413   H460    1.082   .     S
C413   C483    1.417   .     S
C414   N461    1.366   .     A
C414   H448    1.082   .     S
C414   C552    1.417   1_455 S
C415   H449    1.082   .     S
C415   N461    1.368   .     A
C415   C549    1.417   1_455 S
C416   N462    1.368   .     A
C416   H450    1.082   .     S
C416   C482    1.417   .     S
C417   C419    1.454   .     S
C417   O470    1.292   .     A
C417   O472    1.293   .     A
C418   O471    1.292   .     A
C418   O473    1.293   .     A
C418   C421    1.454   .     S
C419   C426    1.398   .     A
C419   C424    1.400   .     A
C420   O469    1.278   .     A
C420   O467    1.281   .     A
C421   C425    1.400   .     A
C421   C427    1.398   .     A
C422   C430    1.402   .     A
C422   C424    1.392   .     A
C422   H456    1.084   .     S
C423   H457    1.084   .     S
C423   C432    1.402   .     A
C423   C425    1.392   .     A
C424   H455    1.083   .     S
C425   H454    1.083   .     S
C426   C428    1.403   .     A
C426   Cl444   1.779   .     S
C427   Cl443   1.779   .     S
C427   C429    1.403   .     A
C428   C430    1.418   .     A
C428   C433    1.419   .     A
C429   C434    1.419   .     A
C429   C432    1.418   .     A
C430   C1050   1.391   .     S
C431   C438    1.388   .     A
C431   C434    1.414   .     A
C431   H458    1.079   .     S
C432   C1051   1.391   1_554 S
C433   C437    1.414   .     A
C433   C1046   1.417   .     S
C434   C1045   1.417   1_554 S
C435   O474    1.222   .     D
C435   C440    1.490   .     S
C435   O464    1.398   .     S
C436   O466    1.398   .     S
C436   O465    1.222   .     D
C436   C441    1.490   .     S
C437   C439    1.388   .     A
C437   H459    1.079   .     S
C438   H447    1.084   .     S
C438   C1042   1.391   1_554 S
C439   H453    1.084   .     S
C439   C1044   1.391   .     S
C440   C34     1.386   1_565 S
C442   Cl445   1.777   .     S
H451   O464    1.014   .     S
H452   O466    1.014   .     S
N461   Zn475   2.013   .     S
N462   Zn476   2.013   .     S
O463   Zn475   1.983   .     S
O467   Zn476   1.983   .     S
O468   Zn476   1.987   .     S
O469   Zn475   1.987   .     S
O470   Zn475   1.963   .     S
O471   Zn476   1.963   .     S
O472   Zn476   1.903   .     S
O473   Zn475   1.903   .     S
C477   O536    1.278   .     A
C477   C480    1.408   .     S
C477   O531    1.281   .     A
C478   C480    1.401   .     A
C478   Cl514   1.777   .     S
C478   C101    1.386   1_565 S
C479   C488    1.408   .     S
C479   C509    1.408   .     A
C479   C510    1.401   .     A
C480   C508    1.408   .     A
C481   N530    1.366   .     A
C481   H528    1.082   .     S
C481   C551    1.417   .     S
C482   N529    1.366   .     A
C482   H516    1.082   .     S
C483   H517    1.082   .     S
C483   N529    1.368   .     A
C484   N530    1.368   .     A
C484   H518    1.082   .     S
C484   C550    1.417   .     S
C485   C487    1.454   .     S
C485   O538    1.292   .     A
C485   O540    1.293   .     A
C486   O539    1.292   .     A
C486   O541    1.293   .     A
C486   C489    1.454   .     S
C487   C494    1.398   .     A
C487   C492    1.400   .     A
C488   O537    1.278   .     A
C488   O535    1.281   .     A
C489   C493    1.400   .     A
C489   C495    1.398   .     A
C490   C498    1.402   .     A
C490   C492    1.392   .     A
C490   H524    1.084   .     S
C491   H525    1.084   .     S
C491   C500    1.402   .     A
C491   C493    1.392   .     A
C492   H523    1.083   .     S
C493   H522    1.083   .     S
C494   C496    1.403   .     A
C494   Cl512   1.779   .     S
C495   Cl511   1.779   .     S
C495   C497    1.403   .     A
C496   C498    1.418   .     A
C496   C501    1.419   .     A
C497   C502    1.419   .     A
C497   C500    1.418   .     A
C498   C1118   1.391   .     S
C499   C506    1.388   .     A
C499   C502    1.414   .     A
C499   H526    1.079   .     S
C500   C1119   1.391   1_554 S
C501   C505    1.414   .     A
C501   C1114   1.417   .     S
C502   C1113   1.417   1_554 S
C503   O542    1.222   .     D
C503   C508    1.490   .     S
C503   O532    1.398   .     S
C504   O534    1.398   .     S
C504   O533    1.222   .     D
C504   C509    1.490   .     S
C505   C507    1.388   .     A
C505   H527    1.079   .     S
C506   H515    1.084   .     S
C506   C1110   1.391   1_554 S
C507   H521    1.084   .     S
C507   C1112   1.391   .     S
C508   C102    1.386   1_565 S
C510   Cl513   1.777   .     S
H519   O532    1.014   .     S
H520   O534    1.014   .     S
N529   Zn543   2.013   .     S
N530   Zn544   2.013   .     S
O531   Zn543   1.983   .     S
O535   Zn544   1.983   .     S
O536   Zn544   1.987   .     S
O537   Zn543   1.987   .     S
O538   Zn543   1.963   .     S
O539   Zn544   1.963   .     S
O540   Zn544   1.903   .     S
O541   Zn543   1.903   .     S
C545   O604    1.278   .     A
C545   C548    1.408   .     S
C545   O599    1.281   .     A
C546   C548    1.401   .     A
C546   Cl582   1.777   .     S
C546   C169    1.386   1_565 S
C547   C556    1.408   .     S
C547   C577    1.408   .     A
C547   C578    1.401   .     A
C548   C576    1.408   .     A
C549   N598    1.366   .     A
C549   H596    1.082   .     S
C549   C415    1.417   1_655 S
C550   N597    1.366   .     A
C550   H584    1.082   .     S
C551   H585    1.082   .     S
C551   N597    1.368   .     A
C552   N598    1.368   .     A
C552   H586    1.082   .     S
C552   C414    1.417   1_655 S
C553   C555    1.454   .     S
C553   O606    1.292   .     A
C553   O608    1.293   .     A
C554   O607    1.292   .     A
C554   O609    1.293   .     A
C554   C557    1.454   .     S
C555   C562    1.398   .     A
C555   C560    1.400   .     A
C556   O605    1.278   .     A
C556   O603    1.281   .     A
C557   C561    1.400   .     A
C557   C563    1.398   .     A
C558   C566    1.402   .     A
C558   C560    1.392   .     A
C558   H592    1.084   .     S
C559   H593    1.084   .     S
C559   C568    1.402   .     A
C559   C561    1.392   .     A
C560   H591    1.083   .     S
C561   H590    1.083   .     S
C562   C564    1.403   .     A
C562   Cl580   1.779   .     S
C563   Cl579   1.779   .     S
C563   C565    1.403   .     A
C564   C566    1.418   .     A
C564   C569    1.419   .     A
C565   C570    1.419   .     A
C565   C568    1.418   .     A
C566   C1186   1.391   .     S
C567   C574    1.388   .     A
C567   C570    1.414   .     A
C567   H594    1.079   .     S
C568   C1187   1.391   1_554 S
C569   C573    1.414   .     A
C569   C1182   1.417   .     S
C570   C1181   1.417   1_554 S
C571   O610    1.222   .     D
C571   C576    1.490   .     S
C571   O600    1.398   .     S
C572   O602    1.398   .     S
C572   O601    1.222   .     D
C572   C577    1.490   .     S
C573   C575    1.388   .     A
C573   H595    1.079   .     S
C574   H583    1.084   .     S
C574   C1178   1.391   1_554 S
C575   H589    1.084   .     S
C575   C1180   1.391   .     S
C576   C170    1.386   1_565 S
C578   Cl581   1.777   .     S
H587   O600    1.014   .     S
H588   O602    1.014   .     S
N597   Zn611   2.013   .     S
N598   Zn612   2.013   .     S
O599   Zn611   1.983   .     S
O603   Zn612   1.983   .     S
O604   Zn612   1.987   .     S
O605   Zn611   1.987   .     S
O606   Zn611   1.963   .     S
O607   Zn612   1.963   .     S
O608   Zn612   1.903   .     S
O609   Zn611   1.903   .     S
C613   O672    1.278   .     A
C613   C616    1.408   .     S
C613   O667    1.281   .     A
C614   C616    1.401   .     A
C614   Cl650   1.777   .     S
C614   C849    1.386   .     S
C615   C624    1.408   .     S
C615   C645    1.408   .     A
C615   C646    1.401   .     A
C616   C644    1.408   .     A
C617   N666    1.366   .     A
C617   H664    1.082   .     S
C617   C687    1.417   .     S
C618   N665    1.366   .     A
C618   H652    1.082   .     S
C618   C756    1.417   1_455 S
C619   H653    1.082   .     S
C619   N665    1.368   .     A
C619   C753    1.417   1_455 S
C620   N666    1.368   .     A
C620   H654    1.082   .     S
C620   C686    1.417   .     S
C621   C623    1.454   .     S
C621   O674    1.292   .     A
C621   O676    1.293   .     A
C622   O675    1.292   .     A
C622   O677    1.293   .     A
C622   C625    1.454   .     S
C623   C630    1.398   .     A
C623   C628    1.400   .     A
C624   O673    1.278   .     A
C624   O671    1.281   .     A
C625   C629    1.400   .     A
C625   C631    1.398   .     A
C626   C634    1.402   .     A
C626   C628    1.392   .     A
C626   H660    1.084   .     S
C627   H661    1.084   .     S
C627   C636    1.402   .     A
C627   C629    1.392   .     A
C628   H659    1.083   .     S
C629   H658    1.083   .     S
C630   C632    1.403   .     A
C630   Cl648   1.779   .     S
C631   Cl647   1.779   .     S
C631   C633    1.403   .     A
C632   C634    1.418   .     A
C632   C637    1.419   .     A
C633   C638    1.419   .     A
C633   C636    1.418   .     A
C634   C30     1.391   1_556 S
C635   C642    1.388   .     A
C635   C638    1.414   .     A
C635   H662    1.079   .     S
C637   C641    1.414   .     A
C637   C26     1.417   1_556 S
C639   O678    1.222   .     D
C639   C644    1.490   .     S
C639   O668    1.398   .     S
C640   O670    1.398   .     S
C640   O669    1.222   .     D
C640   C645    1.490   .     S
C641   C643    1.388   .     A
C641   H663    1.079   .     S
C642   H651    1.084   .     S
C643   H657    1.084   .     S
C643   C24     1.391   1_556 S
C644   C850    1.386   .     S
C645   C1022   1.386   1_545 S
C646   Cl649   1.777   .     S
C646   C1052   1.386   1_545 S
H655   O668    1.014   .     S
H656   O670    1.014   .     S
N665   Zn679   2.013   .     S
N666   Zn680   2.013   .     S
O667   Zn679   1.983   .     S
O671   Zn680   1.983   .     S
O672   Zn680   1.987   .     S
O673   Zn679   1.987   .     S
O674   Zn679   1.963   .     S
O675   Zn680   1.963   .     S
O676   Zn680   1.903   .     S
O677   Zn679   1.903   .     S
C681   O740    1.278   .     A
C681   C684    1.408   .     S
C681   O735    1.281   .     A
C682   C684    1.401   .     A
C682   Cl718   1.777   .     S
C682   C917    1.386   .     S
C683   C692    1.408   .     S
C683   C713    1.408   .     A
C683   C714    1.401   .     A
C684   C712    1.408   .     A
C685   N734    1.366   .     A
C685   H732    1.082   .     S
C685   C755    1.417   .     S
C686   N733    1.366   .     A
C686   H720    1.082   .     S
C687   H721    1.082   .     S
C687   N733    1.368   .     A
C688   N734    1.368   .     A
C688   H722    1.082   .     S
C688   C754    1.417   .     S
C689   C691    1.454   .     S
C689   O742    1.292   .     A
C689   O744    1.293   .     A
C690   O743    1.292   .     A
C690   O745    1.293   .     A
C690   C693    1.454   .     S
C691   C698    1.398   .     A
C691   C696    1.400   .     A
C692   O741    1.278   .     A
C692   O739    1.281   .     A
C693   C697    1.400   .     A
C693   C699    1.398   .     A
C694   C702    1.402   .     A
C694   C696    1.392   .     A
C694   H728    1.084   .     S
C695   H729    1.084   .     S
C695   C704    1.402   .     A
C695   C697    1.392   .     A
C696   H727    1.083   .     S
C697   H726    1.083   .     S
C698   C700    1.403   .     A
C698   Cl716   1.779   .     S
C699   Cl715   1.779   .     S
C699   C701    1.403   .     A
C700   C702    1.418   .     A
C700   C705    1.419   .     A
C701   C706    1.419   .     A
C701   C704    1.418   .     A
C702   C98     1.391   1_556 S
C703   C710    1.388   .     A
C703   C706    1.414   .     A
C703   H730    1.079   .     S
C705   C709    1.414   .     A
C705   C94     1.417   1_556 S
C707   O746    1.222   .     D
C707   C712    1.490   .     S
C707   O736    1.398   .     S
C708   O738    1.398   .     S
C708   O737    1.222   .     D
C708   C713    1.490   .     S
C709   C711    1.388   .     A
C709   H731    1.079   .     S
C710   H719    1.084   .     S
C711   H725    1.084   .     S
C711   C92     1.391   1_556 S
C712   C918    1.386   .     S
C713   C1090   1.386   1_545 S
C714   Cl717   1.777   .     S
C714   C1120   1.386   1_545 S
H723   O736    1.014   .     S
H724   O738    1.014   .     S
N733   Zn747   2.013   .     S
N734   Zn748   2.013   .     S
O735   Zn747   1.983   .     S
O739   Zn748   1.983   .     S
O740   Zn748   1.987   .     S
O741   Zn747   1.987   .     S
O742   Zn747   1.963   .     S
O743   Zn748   1.963   .     S
O744   Zn748   1.903   .     S
O745   Zn747   1.903   .     S
C749   O808    1.278   .     A
C749   C752    1.408   .     S
C749   O803    1.281   .     A
C750   C752    1.401   .     A
C750   Cl786   1.777   .     S
C750   C985    1.386   .     S
C751   C760    1.408   .     S
C751   C781    1.408   .     A
C751   C782    1.401   .     A
C752   C780    1.408   .     A
C753   N802    1.366   .     A
C753   H800    1.082   .     S
C753   C619    1.417   1_655 S
C754   N801    1.366   .     A
C754   H788    1.082   .     S
C755   H789    1.082   .     S
C755   N801    1.368   .     A
C756   N802    1.368   .     A
C756   H790    1.082   .     S
C756   C618    1.417   1_655 S
C757   C759    1.454   .     S
C757   O810    1.292   .     A
C757   O812    1.293   .     A
C758   O811    1.292   .     A
C758   O813    1.293   .     A
C758   C761    1.454   .     S
C759   C766    1.398   .     A
C759   C764    1.400   .     A
C760   O809    1.278   .     A
C760   O807    1.281   .     A
C761   C765    1.400   .     A
C761   C767    1.398   .     A
C762   C770    1.402   .     A
C762   C764    1.392   .     A
C762   H796    1.084   .     S
C763   H797    1.084   .     S
C763   C772    1.402   .     A
C763   C765    1.392   .     A
C764   H795    1.083   .     S
C765   H794    1.083   .     S
C766   C768    1.403   .     A
C766   Cl784   1.779   .     S
C767   Cl783   1.779   .     S
C767   C769    1.403   .     A
C768   C770    1.418   .     A
C768   C773    1.419   .     A
C769   C774    1.419   .     A
C769   C772    1.418   .     A
C770   C166    1.391   1_556 S
C771   C778    1.388   .     A
C771   C774    1.414   .     A
C771   H798    1.079   .     S
C773   C777    1.414   .     A
C773   C162    1.417   1_556 S
C775   O814    1.222   .     D
C775   C780    1.490   .     S
C775   O804    1.398   .     S
C776   O806    1.398   .     S
C776   O805    1.222   .     D
C776   C781    1.490   .     S
C777   C779    1.388   .     A
C777   H799    1.079   .     S
C778   H787    1.084   .     S
C779   H793    1.084   .     S
C779   C160    1.391   1_556 S
C780   C986    1.386   .     S
C781   C1158   1.386   1_545 S
C782   Cl785   1.777   .     S
C782   C1188   1.386   1_545 S
H791   O804    1.014   .     S
H792   O806    1.014   .     S
N801   Zn815   2.013   .     S
N802   Zn816   2.013   .     S
O803   Zn815   1.983   .     S
O807   Zn816   1.983   .     S
O808   Zn816   1.987   .     S
O809   Zn815   1.987   .     S
O810   Zn815   1.963   .     S
O811   Zn816   1.963   .     S
O812   Zn816   1.903   .     S
O813   Zn815   1.903   .     S
C817   O876    1.278   .     A
C817   C820    1.408   .     S
C817   O871    1.281   .     A
C818   C820    1.401   .     A
C818   Cl854   1.777   .     S
C818   C1053   1.386   .     S
C819   C828    1.408   .     S
C819   C849    1.408   .     A
C819   C850    1.401   .     A
C820   C848    1.408   .     A
C821   N870    1.366   .     A
C821   H868    1.082   .     S
C821   C891    1.417   .     S
C822   N869    1.366   .     A
C822   H856    1.082   .     S
C822   C960    1.417   1_455 S
C823   H857    1.082   .     S
C823   N869    1.368   .     A
C823   C957    1.417   1_455 S
C824   N870    1.368   .     A
C824   H858    1.082   .     S
C824   C890    1.417   .     S
C825   C827    1.454   .     S
C825   O878    1.292   .     A
C825   O880    1.293   .     A
C826   O879    1.292   .     A
C826   O881    1.293   .     A
C826   C829    1.454   .     S
C827   C834    1.398   .     A
C827   C832    1.400   .     A
C828   O877    1.278   .     A
C828   O875    1.281   .     A
C829   C833    1.400   .     A
C829   C835    1.398   .     A
C830   C838    1.402   .     A
C830   C832    1.392   .     A
C830   H864    1.084   .     S
C831   H865    1.084   .     S
C831   C840    1.402   .     A
C831   C833    1.392   .     A
C832   H863    1.083   .     S
C833   H862    1.083   .     S
C834   C836    1.403   .     A
C834   Cl852   1.779   .     S
C835   Cl851   1.779   .     S
C835   C837    1.403   .     A
C836   C838    1.418   .     A
C836   C841    1.419   .     A
C837   C842    1.419   .     A
C837   C840    1.418   .     A
C838   C234    1.391   1_556 S
C839   C846    1.388   .     A
C839   C842    1.414   .     A
C839   H866    1.079   .     S
C841   C845    1.414   .     A
C841   C230    1.417   1_556 S
C843   O882    1.222   .     D
C843   C848    1.490   .     S
C843   O872    1.398   .     S
C844   O874    1.398   .     S
C844   O873    1.222   .     D
C844   C849    1.490   .     S
C845   C847    1.388   .     A
C845   H867    1.079   .     S
C846   H855    1.084   .     S
C847   H861    1.084   .     S
C847   C228    1.391   1_556 S
C848   C1054   1.386   .     S
C850   Cl853   1.777   .     S
H859   O872    1.014   .     S
H860   O874    1.014   .     S
N869   Zn883   2.013   .     S
N870   Zn884   2.013   .     S
O871   Zn883   1.983   .     S
O875   Zn884   1.983   .     S
O876   Zn884   1.987   .     S
O877   Zn883   1.987   .     S
O878   Zn883   1.963   .     S
O879   Zn884   1.963   .     S
O880   Zn884   1.903   .     S
O881   Zn883   1.903   .     S
C885   O944    1.278   .     A
C885   C888    1.408   .     S
C885   O939    1.281   .     A
C886   C888    1.401   .     A
C886   Cl922   1.777   .     S
C886   C1121   1.386   .     S
C887   C896    1.408   .     S
C887   C917    1.408   .     A
C887   C918    1.401   .     A
C888   C916    1.408   .     A
C889   N938    1.366   .     A
C889   H936    1.082   .     S
C889   C959    1.417   .     S
C890   N937    1.366   .     A
C890   H924    1.082   .     S
C891   H925    1.082   .     S
C891   N937    1.368   .     A
C892   N938    1.368   .     A
C892   H926    1.082   .     S
C892   C958    1.417   .     S
C893   C895    1.454   .     S
C893   O946    1.292   .     A
C893   O948    1.293   .     A
C894   O947    1.292   .     A
C894   O949    1.293   .     A
C894   C897    1.454   .     S
C895   C902    1.398   .     A
C895   C900    1.400   .     A
C896   O945    1.278   .     A
C896   O943    1.281   .     A
C897   C901    1.400   .     A
C897   C903    1.398   .     A
C898   C906    1.402   .     A
C898   C900    1.392   .     A
C898   H932    1.084   .     S
C899   H933    1.084   .     S
C899   C908    1.402   .     A
C899   C901    1.392   .     A
C900   H931    1.083   .     S
C901   H930    1.083   .     S
C902   C904    1.403   .     A
C902   Cl920   1.779   .     S
C903   Cl919   1.779   .     S
C903   C905    1.403   .     A
C904   C906    1.418   .     A
C904   C909    1.419   .     A
C905   C910    1.419   .     A
C905   C908    1.418   .     A
C906   C302    1.391   1_556 S
C907   C914    1.388   .     A
C907   C910    1.414   .     A
C907   H934    1.079   .     S
C909   C913    1.414   .     A
C909   C298    1.417   1_556 S
C911   O950    1.222   .     D
C911   C916    1.490   .     S
C911   O940    1.398   .     S
C912   O942    1.398   .     S
C912   O941    1.222   .     D
C912   C917    1.490   .     S
C913   C915    1.388   .     A
C913   H935    1.079   .     S
C914   H923    1.084   .     S
C915   H929    1.084   .     S
C915   C296    1.391   1_556 S
C916   C1122   1.386   .     S
C918   Cl921   1.777   .     S
H927   O940    1.014   .     S
H928   O942    1.014   .     S
N937   Zn951   2.013   .     S
N938   Zn952   2.013   .     S
O939   Zn951   1.983   .     S
O943   Zn952   1.983   .     S
O944   Zn952   1.987   .     S
O945   Zn951   1.987   .     S
O946   Zn951   1.963   .     S
O947   Zn952   1.963   .     S
O948   Zn952   1.903   .     S
O949   Zn951   1.903   .     S
C953   O1012   1.278   .     A
C953   C956    1.408   .     S
C953   O1007   1.281   .     A
C954   C956    1.401   .     A
C954   Cl990   1.777   .     S
C954   C1189   1.386   .     S
C955   C964    1.408   .     S
C955   C985    1.408   .     A
C955   C986    1.401   .     A
C956   C984    1.408   .     A
C957   N1006   1.366   .     A
C957   H1004   1.082   .     S
C957   C823    1.417   1_655 S
C958   N1005   1.366   .     A
C958   H992    1.082   .     S
C959   H993    1.082   .     S
C959   N1005   1.368   .     A
C960   N1006   1.368   .     A
C960   H994    1.082   .     S
C960   C822    1.417   1_655 S
C961   C963    1.454   .     S
C961   O1014   1.292   .     A
C961   O1016   1.293   .     A
C962   O1015   1.292   .     A
C962   O1017   1.293   .     A
C962   C965    1.454   .     S
C963   C970    1.398   .     A
C963   C968    1.400   .     A
C964   O1013   1.278   .     A
C964   O1011   1.281   .     A
C965   C969    1.400   .     A
C965   C971    1.398   .     A
C966   C974    1.402   .     A
C966   C968    1.392   .     A
C966   H1000   1.084   .     S
C967   H1001   1.084   .     S
C967   C976    1.402   .     A
C967   C969    1.392   .     A
C968   H999    1.083   .     S
C969   H998    1.083   .     S
C970   C972    1.403   .     A
C970   Cl988   1.779   .     S
C971   Cl987   1.779   .     S
C971   C973    1.403   .     A
C972   C974    1.418   .     A
C972   C977    1.419   .     A
C973   C978    1.419   .     A
C973   C976    1.418   .     A
C974   C370    1.391   1_556 S
C975   C982    1.388   .     A
C975   C978    1.414   .     A
C975   H1002   1.079   .     S
C977   C981    1.414   .     A
C977   C366    1.417   1_556 S
C979   O1018   1.222   .     D
C979   C984    1.490   .     S
C979   O1008   1.398   .     S
C980   O1010   1.398   .     S
C980   O1009   1.222   .     D
C980   C985    1.490   .     S
C981   C983    1.388   .     A
C981   H1003   1.079   .     S
C982   H991    1.084   .     S
C983   H997    1.084   .     S
C983   C364    1.391   1_556 S
C984   C1190   1.386   .     S
C986   Cl989   1.777   .     S
H995   O1008   1.014   .     S
H996   O1010   1.014   .     S
N1005  Zn1019  2.013   .     S
N1006  Zn1020  2.013   .     S
O1007  Zn1019  1.983   .     S
O1011  Zn1020  1.983   .     S
O1012  Zn1020  1.987   .     S
O1013  Zn1019  1.987   .     S
O1014  Zn1019  1.963   .     S
O1015  Zn1020  1.963   .     S
O1016  Zn1020  1.903   .     S
O1017  Zn1019  1.903   .     S
C1021  O1080   1.278   .     A
C1021  C1024   1.408   .     S
C1021  O1075   1.281   .     A
C1022  C1024   1.401   .     A
C1022  Cl1058  1.777   .     S
C1022  C645    1.386   1_565 S
C1023  C1032   1.408   .     S
C1023  C1053   1.408   .     A
C1023  C1054   1.401   .     A
C1024  C1052   1.408   .     A
C1025  N1074   1.366   .     A
C1025  H1072   1.082   .     S
C1025  C1095   1.417   .     S
C1026  N1073   1.366   .     A
C1026  H1060   1.082   .     S
C1026  C1164   1.417   1_455 S
C1027  H1061   1.082   .     S
C1027  N1073   1.368   .     A
C1027  C1161   1.417   1_455 S
C1028  N1074   1.368   .     A
C1028  H1062   1.082   .     S
C1028  C1094   1.417   .     S
C1029  C1031   1.454   .     S
C1029  O1082   1.292   .     A
C1029  O1084   1.293   .     A
C1030  O1083   1.292   .     A
C1030  O1085   1.293   .     A
C1030  C1033   1.454   .     S
C1031  C1038   1.398   .     A
C1031  C1036   1.400   .     A
C1032  O1081   1.278   .     A
C1032  O1079   1.281   .     A
C1033  C1037   1.400   .     A
C1033  C1039   1.398   .     A
C1034  C1042   1.402   .     A
C1034  C1036   1.392   .     A
C1034  H1068   1.084   .     S
C1035  H1069   1.084   .     S
C1035  C1044   1.402   .     A
C1035  C1037   1.392   .     A
C1036  H1067   1.083   .     S
C1037  H1066   1.083   .     S
C1038  C1040   1.403   .     A
C1038  Cl1056  1.779   .     S
C1039  Cl1055  1.779   .     S
C1039  C1041   1.403   .     A
C1040  C1042   1.418   .     A
C1040  C1045   1.419   .     A
C1041  C1046   1.419   .     A
C1041  C1044   1.418   .     A
C1042  C438    1.391   1_556 S
C1043  C1050   1.388   .     A
C1043  C1046   1.414   .     A
C1043  H1070   1.079   .     S
C1045  C1049   1.414   .     A
C1045  C434    1.417   1_556 S
C1047  O1086   1.222   .     D
C1047  C1052   1.490   .     S
C1047  O1076   1.398   .     S
C1048  O1078   1.398   .     S
C1048  O1077   1.222   .     D
C1048  C1053   1.490   .     S
C1049  C1051   1.388   .     A
C1049  H1071   1.079   .     S
C1050  H1059   1.084   .     S
C1051  H1065   1.084   .     S
C1051  C432    1.391   1_556 S
C1052  C646    1.386   1_565 S
C1054  Cl1057  1.777   .     S
H1063  O1076   1.014   .     S
H1064  O1078   1.014   .     S
N1073  Zn1087  2.013   .     S
N1074  Zn1088  2.013   .     S
O1075  Zn1087  1.983   .     S
O1079  Zn1088  1.983   .     S
O1080  Zn1088  1.987   .     S
O1081  Zn1087  1.987   .     S
O1082  Zn1087  1.963   .     S
O1083  Zn1088  1.963   .     S
O1084  Zn1088  1.903   .     S
O1085  Zn1087  1.903   .     S
C1089  O1148   1.278   .     A
C1089  C1092   1.408   .     S
C1089  O1143   1.281   .     A
C1090  C1092   1.401   .     A
C1090  Cl1126  1.777   .     S
C1090  C713    1.386   1_565 S
C1091  C1100   1.408   .     S
C1091  C1121   1.408   .     A
C1091  C1122   1.401   .     A
C1092  C1120   1.408   .     A
C1093  N1142   1.366   .     A
C1093  H1140   1.082   .     S
C1093  C1163   1.417   .     S
C1094  N1141   1.366   .     A
C1094  H1128   1.082   .     S
C1095  H1129   1.082   .     S
C1095  N1141   1.368   .     A
C1096  N1142   1.368   .     A
C1096  H1130   1.082   .     S
C1096  C1162   1.417   .     S
C1097  C1099   1.454   .     S
C1097  O1150   1.292   .     A
C1097  O1152   1.293   .     A
C1098  O1151   1.292   .     A
C1098  O1153   1.293   .     A
C1098  C1101   1.454   .     S
C1099  C1106   1.398   .     A
C1099  C1104   1.400   .     A
C1100  O1149   1.278   .     A
C1100  O1147   1.281   .     A
C1101  C1105   1.400   .     A
C1101  C1107   1.398   .     A
C1102  C1110   1.402   .     A
C1102  C1104   1.392   .     A
C1102  H1136   1.084   .     S
C1103  H1137   1.084   .     S
C1103  C1112   1.402   .     A
C1103  C1105   1.392   .     A
C1104  H1135   1.083   .     S
C1105  H1134   1.083   .     S
C1106  C1108   1.403   .     A
C1106  Cl1124  1.779   .     S
C1107  Cl1123  1.779   .     S
C1107  C1109   1.403   .     A
C1108  C1110   1.418   .     A
C1108  C1113   1.419   .     A
C1109  C1114   1.419   .     A
C1109  C1112   1.418   .     A
C1110  C506    1.391   1_556 S
C1111  C1118   1.388   .     A
C1111  C1114   1.414   .     A
C1111  H1138   1.079   .     S
C1113  C1117   1.414   .     A
C1113  C502    1.417   1_556 S
C1115  O1154   1.222   .     D
C1115  C1120   1.490   .     S
C1115  O1144   1.398   .     S
C1116  O1146   1.398   .     S
C1116  O1145   1.222   .     D
C1116  C1121   1.490   .     S
C1117  C1119   1.388   .     A
C1117  H1139   1.079   .     S
C1118  H1127   1.084   .     S
C1119  H1133   1.084   .     S
C1119  C500    1.391   1_556 S
C1120  C714    1.386   1_565 S
C1122  Cl1125  1.777   .     S
H1131  O1144   1.014   .     S
H1132  O1146   1.014   .     S
N1141  Zn1155  2.013   .     S
N1142  Zn1156  2.013   .     S
O1143  Zn1155  1.983   .     S
O1147  Zn1156  1.983   .     S
O1148  Zn1156  1.987   .     S
O1149  Zn1155  1.987   .     S
O1150  Zn1155  1.963   .     S
O1151  Zn1156  1.963   .     S
O1152  Zn1156  1.903   .     S
O1153  Zn1155  1.903   .     S
C1157  O1216   1.278   .     A
C1157  C1160   1.408   .     S
C1157  O1211   1.281   .     A
C1158  C1160   1.401   .     A
C1158  Cl1194  1.777   .     S
C1158  C781    1.386   1_565 S
C1159  C1168   1.408   .     S
C1159  C1189   1.408   .     A
C1159  C1190   1.401   .     A
C1160  C1188   1.408   .     A
C1161  N1210   1.366   .     A
C1161  H1208   1.082   .     S
C1161  C1027   1.417   1_655 S
C1162  N1209   1.366   .     A
C1162  H1196   1.082   .     S
C1163  H1197   1.082   .     S
C1163  N1209   1.368   .     A
C1164  N1210   1.368   .     A
C1164  H1198   1.082   .     S
C1164  C1026   1.417   1_655 S
C1165  C1167   1.454   .     S
C1165  O1218   1.292   .     A
C1165  O1220   1.293   .     A
C1166  O1219   1.292   .     A
C1166  O1221   1.293   .     A
C1166  C1169   1.454   .     S
C1167  C1174   1.398   .     A
C1167  C1172   1.400   .     A
C1168  O1217   1.278   .     A
C1168  O1215   1.281   .     A
C1169  C1173   1.400   .     A
C1169  C1175   1.398   .     A
C1170  C1178   1.402   .     A
C1170  C1172   1.392   .     A
C1170  H1204   1.084   .     S
C1171  H1205   1.084   .     S
C1171  C1180   1.402   .     A
C1171  C1173   1.392   .     A
C1172  H1203   1.083   .     S
C1173  H1202   1.083   .     S
C1174  C1176   1.403   .     A
C1174  Cl1192  1.779   .     S
C1175  Cl1191  1.779   .     S
C1175  C1177   1.403   .     A
C1176  C1178   1.418   .     A
C1176  C1181   1.419   .     A
C1177  C1182   1.419   .     A
C1177  C1180   1.418   .     A
C1178  C574    1.391   1_556 S
C1179  C1186   1.388   .     A
C1179  C1182   1.414   .     A
C1179  H1206   1.079   .     S
C1181  C1185   1.414   .     A
C1181  C570    1.417   1_556 S
C1183  O1222   1.222   .     D
C1183  C1188   1.490   .     S
C1183  O1212   1.398   .     S
C1184  O1214   1.398   .     S
C1184  O1213   1.222   .     D
C1184  C1189   1.490   .     S
C1185  C1187   1.388   .     A
C1185  H1207   1.079   .     S
C1186  H1195   1.084   .     S
C1187  H1201   1.084   .     S
C1187  C568    1.391   1_556 S
C1188  C782    1.386   1_565 S
C1190  Cl1193  1.777   .     S
H1199  O1212   1.014   .     S
H1200  O1214   1.014   .     S
N1209  Zn1223  2.013   .     S
N1210  Zn1224  2.013   .     S
O1211  Zn1223  1.983   .     S
O1215  Zn1224  1.983   .     S
O1216  Zn1224  1.987   .     S
O1217  Zn1223  1.987   .     S
O1218  Zn1223  1.963   .     S
O1219  Zn1224  1.963   .     S
O1220  Zn1224  1.903   .     S
O1221  Zn1223  1.903   .     S
