data_str_m3_o2_o10_pcu_sym.73
_audit_creation_date              2020-01-03
_audit_creation_method            'Materials Studio'
_symmetry_space_group_name_H-M    'P1'
_symmetry_Int_Tables_number       1
_symmetry_cell_setting            triclinic
loop_
_symmetry_equiv_pos_as_xyz
  x,y,z
_cell_length_a                    25.6514
_cell_length_b                    29.7530
_cell_length_c                    28.4637
_cell_angle_alpha                 90.0798
_cell_angle_beta                  99.2874
_cell_angle_gamma                 91.2939
loop_
_atom_site_label
_atom_site_type_symbol
_atom_site_fract_x
_atom_site_fract_y
_atom_site_fract_z
_atom_site_U_iso_or_equiv
_atom_site_adp_type
_atom_site_occupancy
C1     C     0.17092   0.16386   0.25087   0.00000  Uiso   1.00
C2     C     0.12399   0.23115   0.44083   0.00000  Uiso   1.00
C3     C     0.16683   0.25069   0.02665   0.00000  Uiso   1.00
C4     C     0.16631   0.25034   0.47329   0.00000  Uiso   1.00
C5     C     0.06698   0.24992   0.23742   0.00000  Uiso   1.00
C6     C     0.26634   0.24973   0.26256   0.00000  Uiso   1.00
C7     C     0.01179   0.25076   0.23073   0.00000  Uiso   1.00
C8     C     0.32149   0.24814   0.26908   0.00000  Uiso   1.00
C9     C     0.18150   0.04526   0.29481   0.00000  Uiso   1.00
C10    C     0.13493   0.45330   0.20501   0.00000  Uiso   1.00
C11    C     0.18559   0.09178   0.29662   0.00000  Uiso   1.00
C12    C     0.16124   0.33588   0.24908   0.00000  Uiso   1.00
C13    C     0.13563   0.40663   0.20337   0.00000  Uiso   1.00
C14    C     0.17979   0.11563   0.25324   0.00000  Uiso   1.00
C15    C     0.14769   0.38323   0.24688   0.00000  Uiso   1.00
C16    C     0.18479   0.09251   0.21159   0.00000  Uiso   1.00
C17    C     0.14241   0.40543   0.28912   0.00000  Uiso   1.00
C18    C     0.18303   0.04578   0.21054   0.00000  Uiso   1.00
C19    C     0.13794   0.45187   0.28971   0.00000  Uiso   1.00
C20    C     0.17002   0.02265   0.25096   0.00000  Uiso   1.00
C21    C     0.14710   0.47596   0.24875   0.00000  Uiso   1.00
C22    C     0.19870   0.11333   0.34414   0.00000  Uiso   1.00
C23    C     0.13530   0.22001   0.04745   0.00000  Uiso   1.00
C24    C     0.24775   0.13559   0.35745   0.00000  Uiso   1.00
C25    C     0.26170   0.15337   0.40336   0.00000  Uiso   1.00
C26    C     0.22665   0.14951   0.43605   0.00000  Uiso   1.00
C27    C     0.17768   0.12758   0.42297   0.00000  Uiso   1.00
C28    C     0.16376   0.10935   0.37724   0.00000  Uiso   1.00
C29    C     0.12018   0.38417   0.15648   0.00000  Uiso   1.00
C30    C     0.14746   0.39407   0.11859   0.00000  Uiso   1.00
C31    C     0.13064   0.37486   0.07368   0.00000  Uiso   1.00
C32    C     0.08640   0.34587   0.06620   0.00000  Uiso   1.00
C33    C     0.05879   0.33619   0.10359   0.00000  Uiso   1.00
C34    C     0.20853   0.26927   0.45383   0.00000  Uiso   1.00
C35    C     0.07558   0.35516   0.14861   0.00000  Uiso   1.00
C36    C     0.20270   0.02354   0.17035   0.00000  Uiso   1.00
C37    C     0.11514   0.47236   0.32923   0.00000  Uiso   1.00
C38    C     0.09746   0.18871   0.11434   0.00000  Uiso   1.00
C39    C     0.04669   0.20221   0.11978   0.00000  Uiso   1.00
C40    C     0.01001   0.17102   0.13277   0.00000  Uiso   1.00
C41    C     0.02313   0.12582   0.13863   0.00000  Uiso   1.00
C42    C     0.07246   0.11166   0.13040   0.00000  Uiso   1.00
C43    C     0.10910   0.14288   0.11740   0.00000  Uiso   1.00
C44    C     0.24941   0.29720   0.38710   0.00000  Uiso   1.00
C45    C     0.13447   0.22062   0.09664   0.00000  Uiso   1.00
C46    C     0.23988   0.34199   0.37384   0.00000  Uiso   1.00
C47    C     0.28000   0.36920   0.36031   0.00000  Uiso   1.00
C48    C     0.33066   0.35238   0.36192   0.00000  Uiso   1.00
C49    C     0.00795   0.30859   0.37772   0.00000  Uiso   1.00
C50    C     0.30095   0.28110   0.39062   0.00000  Uiso   1.00
C51    C     0.20757   0.27021   0.40437   0.00000  Uiso   1.00
C52    C     0.19851   0.27978   0.10726   0.00000  Uiso   1.00
C53    C     0.12559   0.23041   0.39162   0.00000  Uiso   1.00
C54    C     0.19872   0.28112   0.05781   0.00000  Uiso   1.00
H55    H     0.32417   0.25422   0.19456   0.00000  Uiso   1.00
H56    H     0.09322   0.21486   0.36761   0.00000  Uiso   1.00
H57    H     0.22314   0.30663   0.04456   0.00000  Uiso   1.00
H58    H     0.08923   0.21701   0.45269   0.00000  Uiso   1.00
H59    H     0.27542   0.13847   0.33254   0.00000  Uiso   1.00
H60    H     0.29994   0.16964   0.41379   0.00000  Uiso   1.00
H61    H     0.23746   0.16343   0.47153   0.00000  Uiso   1.00
H62    H     0.15056   0.12464   0.44832   0.00000  Uiso   1.00
H63    H     0.12588   0.09217   0.36761   0.00000  Uiso   1.00
H64    H     0.18162   0.41664   0.12382   0.00000  Uiso   1.00
H65    H     0.15192   0.38241   0.04466   0.00000  Uiso   1.00
H66    H     0.00913   0.24433   0.30514   0.00000  Uiso   1.00
H67    H     0.07345   0.33103   0.03142   0.00000  Uiso   1.00
H68    H     0.02398   0.31444   0.09754   0.00000  Uiso   1.00
H69    H     0.05344   0.34779   0.17714   0.00000  Uiso   1.00
H70    H     0.20798   0.02388   0.10040   0.00000  Uiso   1.00
H71    H     0.06872   0.02002   0.34982   0.00000  Uiso   1.00
H72    H     0.03555   0.23684   0.11410   0.00000  Uiso   1.00
H73    H     0.30461   0.18182   0.13786   0.00000  Uiso   1.00
H74    H     0.32804   0.10166   0.14857   0.00000  Uiso   1.00
H75    H     0.08206   0.07644   0.13352   0.00000  Uiso   1.00
H76    H     0.14628   0.13140   0.10901   0.00000  Uiso   1.00
H77    H     0.18738   0.02724   0.32804   0.00000  Uiso   1.00
H78    H     0.20159   0.35592   0.37493   0.00000  Uiso   1.00
H79    H     0.27201   0.40351   0.34932   0.00000  Uiso   1.00
H80    H     0.02854   0.37349   0.35175   0.00000  Uiso   1.00
H81    H     0.04747   0.29602   0.37994   0.00000  Uiso   1.00
H82    H     0.30988   0.24748   0.40327   0.00000  Uiso   1.00
H83    H     0.12581   0.47160   0.17205   0.00000  Uiso   1.00
H84    H     0.19239   0.11092   0.18064   0.00000  Uiso   1.00
H85    H     0.13903   0.38647   0.32089   0.00000  Uiso   1.00
H86    H     0.11108   0.19502   0.02593   0.00000  Uiso   1.00
H87    H     0.24239   0.28412   0.47657   0.00000  Uiso   1.00
H88    H     0.22326   0.30327   0.13044   0.00000  Uiso   1.00
N89    N     0.16667   0.24999   0.12624   0.00000  Uiso   1.00
N90    N     0.16667   0.25001   0.37377   0.00000  Uiso   1.00
O91    O     0.16667   0.18454   0.28974   0.00000  Uiso   1.00
O92    O     0.19197   0.04175   0.12464   0.00000  Uiso   1.00
O93    O     0.12331   0.45602   0.36909   0.00000  Uiso   1.00
O94    O     0.08265   0.00954   0.32038   0.00000  Uiso   1.00
O95    O     0.16666   0.31546   0.21026   0.00000  Uiso   1.00
O96    O     0.16667   0.18453   0.21026   0.00000  Uiso   1.00
O97    O     0.16666   0.31547   0.28974   0.00000  Uiso   1.00
O98    O     0.09058   0.25000   0.28045   0.00000  Uiso   1.00
O99    O     0.24275   0.25000   0.21956   0.00000  Uiso   1.00
O100   O     0.09058   0.24999   0.20097   0.00000  Uiso   1.00
O101   O     0.24275   0.25001   0.29904   0.00000  Uiso   1.00
O102   O     0.22997   0.49027   0.17751   0.00000  Uiso   1.00
Zn103  Zn    0.16667   0.25001   0.30307   0.00000  Uiso   1.00
Zn104  Zn    0.16667   0.25000   0.19693   0.00000  Uiso   1.00
C105   C     0.50425   0.16386   0.25087   0.00000  Uiso   1.00
C106   C     0.45732   0.23115   0.44083   0.00000  Uiso   1.00
C107   C     0.50017   0.25069   0.02665   0.00000  Uiso   1.00
C108   C     0.49964   0.25034   0.47329   0.00000  Uiso   1.00
C109   C     0.40031   0.24992   0.23742   0.00000  Uiso   1.00
C110   C     0.59967   0.24973   0.26256   0.00000  Uiso   1.00
C111   C     0.34512   0.25076   0.23073   0.00000  Uiso   1.00
C112   C     0.65482   0.24814   0.26908   0.00000  Uiso   1.00
C113   C     0.51483   0.04526   0.29481   0.00000  Uiso   1.00
C114   C     0.46826   0.45330   0.20501   0.00000  Uiso   1.00
C115   C     0.51892   0.09178   0.29662   0.00000  Uiso   1.00
C116   C     0.49458   0.33588   0.24908   0.00000  Uiso   1.00
C117   C     0.46896   0.40663   0.20337   0.00000  Uiso   1.00
C118   C     0.51312   0.11563   0.25324   0.00000  Uiso   1.00
C119   C     0.48102   0.38323   0.24688   0.00000  Uiso   1.00
C120   C     0.51812   0.09251   0.21159   0.00000  Uiso   1.00
C121   C     0.47575   0.40543   0.28912   0.00000  Uiso   1.00
C122   C     0.51636   0.04578   0.21054   0.00000  Uiso   1.00
C123   C     0.47128   0.45187   0.28971   0.00000  Uiso   1.00
C124   C     0.50336   0.02265   0.25096   0.00000  Uiso   1.00
C125   C     0.48044   0.47596   0.24875   0.00000  Uiso   1.00
C126   C     0.53203   0.11333   0.34414   0.00000  Uiso   1.00
C127   C     0.46863   0.22001   0.04745   0.00000  Uiso   1.00
C128   C     0.58109   0.13559   0.35745   0.00000  Uiso   1.00
C129   C     0.59503   0.15337   0.40336   0.00000  Uiso   1.00
C130   C     0.55998   0.14951   0.43605   0.00000  Uiso   1.00
C131   C     0.51101   0.12758   0.42297   0.00000  Uiso   1.00
C132   C     0.49709   0.10935   0.37724   0.00000  Uiso   1.00
C133   C     0.45352   0.38417   0.15648   0.00000  Uiso   1.00
C134   C     0.48079   0.39407   0.11859   0.00000  Uiso   1.00
C135   C     0.46397   0.37486   0.07368   0.00000  Uiso   1.00
C136   C     0.41974   0.34587   0.06620   0.00000  Uiso   1.00
C137   C     0.39213   0.33619   0.10359   0.00000  Uiso   1.00
C138   C     0.54186   0.26927   0.45383   0.00000  Uiso   1.00
C139   C     0.40891   0.35516   0.14861   0.00000  Uiso   1.00
C140   C     0.53603   0.02354   0.17035   0.00000  Uiso   1.00
C141   C     0.44847   0.47236   0.32923   0.00000  Uiso   1.00
C142   C     0.43080   0.18871   0.11434   0.00000  Uiso   1.00
C143   C     0.38002   0.20221   0.11978   0.00000  Uiso   1.00
C144   C     0.34334   0.17102   0.13277   0.00000  Uiso   1.00
C145   C     0.35646   0.12582   0.13863   0.00000  Uiso   1.00
C146   C     0.40579   0.11166   0.13040   0.00000  Uiso   1.00
C147   C     0.44244   0.14288   0.11740   0.00000  Uiso   1.00
C148   C     0.58275   0.29720   0.38710   0.00000  Uiso   1.00
C149   C     0.46780   0.22062   0.09664   0.00000  Uiso   1.00
C150   C     0.57321   0.34199   0.37384   0.00000  Uiso   1.00
C151   C     0.61333   0.36920   0.36031   0.00000  Uiso   1.00
C152   C     0.66399   0.35238   0.36192   0.00000  Uiso   1.00
C153   C     0.34129   0.30859   0.37772   0.00000  Uiso   1.00
C154   C     0.63428   0.28110   0.39062   0.00000  Uiso   1.00
C155   C     0.54091   0.27021   0.40437   0.00000  Uiso   1.00
C156   C     0.53184   0.27978   0.10726   0.00000  Uiso   1.00
C157   C     0.45893   0.23041   0.39162   0.00000  Uiso   1.00
C158   C     0.53205   0.28112   0.05781   0.00000  Uiso   1.00
H159   H     0.65751   0.25422   0.19456   0.00000  Uiso   1.00
H160   H     0.42655   0.21486   0.36761   0.00000  Uiso   1.00
H161   H     0.55647   0.30663   0.04456   0.00000  Uiso   1.00
H162   H     0.42256   0.21701   0.45269   0.00000  Uiso   1.00
H163   H     0.60876   0.13847   0.33254   0.00000  Uiso   1.00
H164   H     0.63328   0.16964   0.41379   0.00000  Uiso   1.00
H165   H     0.57079   0.16343   0.47153   0.00000  Uiso   1.00
H166   H     0.48389   0.12464   0.44832   0.00000  Uiso   1.00
H167   H     0.45922   0.09217   0.36761   0.00000  Uiso   1.00
H168   H     0.51496   0.41664   0.12382   0.00000  Uiso   1.00
H169   H     0.48525   0.38241   0.04466   0.00000  Uiso   1.00
H170   H     0.34246   0.24433   0.30514   0.00000  Uiso   1.00
H171   H     0.40679   0.33103   0.03142   0.00000  Uiso   1.00
H172   H     0.35732   0.31444   0.09754   0.00000  Uiso   1.00
H173   H     0.38678   0.34779   0.17714   0.00000  Uiso   1.00
H174   H     0.54131   0.02388   0.10040   0.00000  Uiso   1.00
H175   H     0.40206   0.02002   0.34982   0.00000  Uiso   1.00
H176   H     0.36889   0.23684   0.11410   0.00000  Uiso   1.00
H177   H     0.63794   0.18182   0.13786   0.00000  Uiso   1.00
H178   H     0.66137   0.10166   0.14857   0.00000  Uiso   1.00
H179   H     0.41539   0.07644   0.13352   0.00000  Uiso   1.00
H180   H     0.47961   0.13140   0.10901   0.00000  Uiso   1.00
H181   H     0.52072   0.02724   0.32804   0.00000  Uiso   1.00
H182   H     0.53493   0.35592   0.37493   0.00000  Uiso   1.00
H183   H     0.60534   0.40351   0.34932   0.00000  Uiso   1.00
H184   H     0.36187   0.37349   0.35175   0.00000  Uiso   1.00
H185   H     0.38080   0.29602   0.37994   0.00000  Uiso   1.00
H186   H     0.64321   0.24748   0.40327   0.00000  Uiso   1.00
H187   H     0.45915   0.47160   0.17205   0.00000  Uiso   1.00
H188   H     0.52572   0.11092   0.18064   0.00000  Uiso   1.00
H189   H     0.47237   0.38647   0.32089   0.00000  Uiso   1.00
H190   H     0.44441   0.19502   0.02593   0.00000  Uiso   1.00
H191   H     0.57572   0.28412   0.47657   0.00000  Uiso   1.00
H192   H     0.55660   0.30327   0.13044   0.00000  Uiso   1.00
N193   N     0.50000   0.24999   0.12624   0.00000  Uiso   1.00
N194   N     0.50000   0.25001   0.37377   0.00000  Uiso   1.00
O195   O     0.50000   0.18454   0.28974   0.00000  Uiso   1.00
O196   O     0.52530   0.04175   0.12464   0.00000  Uiso   1.00
O197   O     0.45664   0.45602   0.36909   0.00000  Uiso   1.00
O198   O     0.41599   0.00954   0.32038   0.00000  Uiso   1.00
O199   O     0.50000   0.31546   0.21026   0.00000  Uiso   1.00
O200   O     0.50000   0.18453   0.21026   0.00000  Uiso   1.00
O201   O     0.50000   0.31547   0.28974   0.00000  Uiso   1.00
O202   O     0.42392   0.25000   0.28045   0.00000  Uiso   1.00
O203   O     0.57608   0.25000   0.21956   0.00000  Uiso   1.00
O204   O     0.42392   0.24999   0.20097   0.00000  Uiso   1.00
O205   O     0.57608   0.25001   0.29904   0.00000  Uiso   1.00
O206   O     0.56330   0.49027   0.17751   0.00000  Uiso   1.00
Zn207  Zn    0.50000   0.25001   0.30307   0.00000  Uiso   1.00
Zn208  Zn    0.50000   0.25000   0.19693   0.00000  Uiso   1.00
C209   C     0.83759   0.16386   0.25087   0.00000  Uiso   1.00
C210   C     0.79066   0.23115   0.44083   0.00000  Uiso   1.00
C211   C     0.83350   0.25069   0.02665   0.00000  Uiso   1.00
C212   C     0.83298   0.25034   0.47329   0.00000  Uiso   1.00
C213   C     0.73365   0.24992   0.23742   0.00000  Uiso   1.00
C214   C     0.93301   0.24973   0.26256   0.00000  Uiso   1.00
C215   C     0.67845   0.25076   0.23073   0.00000  Uiso   1.00
C216   C     0.98815   0.24814   0.26908   0.00000  Uiso   1.00
C217   C     0.84816   0.04526   0.29481   0.00000  Uiso   1.00
C218   C     0.80159   0.45330   0.20501   0.00000  Uiso   1.00
C219   C     0.85226   0.09178   0.29662   0.00000  Uiso   1.00
C220   C     0.82791   0.33588   0.24908   0.00000  Uiso   1.00
C221   C     0.80230   0.40663   0.20337   0.00000  Uiso   1.00
C222   C     0.84645   0.11563   0.25324   0.00000  Uiso   1.00
C223   C     0.81435   0.38323   0.24688   0.00000  Uiso   1.00
C224   C     0.85146   0.09251   0.21159   0.00000  Uiso   1.00
C225   C     0.80908   0.40543   0.28912   0.00000  Uiso   1.00
C226   C     0.84970   0.04578   0.21054   0.00000  Uiso   1.00
C227   C     0.80461   0.45187   0.28971   0.00000  Uiso   1.00
C228   C     0.83669   0.02265   0.25096   0.00000  Uiso   1.00
C229   C     0.81377   0.47596   0.24875   0.00000  Uiso   1.00
C230   C     0.86536   0.11333   0.34414   0.00000  Uiso   1.00
C231   C     0.80197   0.22001   0.04745   0.00000  Uiso   1.00
C232   C     0.91442   0.13559   0.35745   0.00000  Uiso   1.00
C233   C     0.92836   0.15337   0.40336   0.00000  Uiso   1.00
C234   C     0.89331   0.14951   0.43605   0.00000  Uiso   1.00
C235   C     0.84434   0.12758   0.42297   0.00000  Uiso   1.00
C236   C     0.83042   0.10935   0.37724   0.00000  Uiso   1.00
C237   C     0.78685   0.38417   0.15648   0.00000  Uiso   1.00
C238   C     0.81413   0.39407   0.11859   0.00000  Uiso   1.00
C239   C     0.79730   0.37486   0.07368   0.00000  Uiso   1.00
C240   C     0.75307   0.34587   0.06620   0.00000  Uiso   1.00
C241   C     0.72546   0.33619   0.10359   0.00000  Uiso   1.00
C242   C     0.87519   0.26927   0.45383   0.00000  Uiso   1.00
C243   C     0.74224   0.35516   0.14861   0.00000  Uiso   1.00
C244   C     0.86936   0.02354   0.17035   0.00000  Uiso   1.00
C245   C     0.78180   0.47236   0.32923   0.00000  Uiso   1.00
C246   C     0.76413   0.18871   0.11434   0.00000  Uiso   1.00
C247   C     0.71335   0.20221   0.11978   0.00000  Uiso   1.00
C248   C     0.67668   0.17102   0.13277   0.00000  Uiso   1.00
C249   C     0.68979   0.12582   0.13863   0.00000  Uiso   1.00
C250   C     0.73912   0.11166   0.13040   0.00000  Uiso   1.00
C251   C     0.77577   0.14288   0.11740   0.00000  Uiso   1.00
C252   C     0.91608   0.29720   0.38710   0.00000  Uiso   1.00
C253   C     0.80113   0.22062   0.09664   0.00000  Uiso   1.00
C254   C     0.90655   0.34199   0.37384   0.00000  Uiso   1.00
C255   C     0.94667   0.36920   0.36031   0.00000  Uiso   1.00
C256   C     0.99733   0.35238   0.36192   0.00000  Uiso   1.00
C257   C     0.67462   0.30859   0.37772   0.00000  Uiso   1.00
C258   C     0.96761   0.28110   0.39062   0.00000  Uiso   1.00
C259   C     0.87424   0.27021   0.40437   0.00000  Uiso   1.00
C260   C     0.86517   0.27978   0.10726   0.00000  Uiso   1.00
C261   C     0.79226   0.23041   0.39162   0.00000  Uiso   1.00
C262   C     0.86538   0.28112   0.05781   0.00000  Uiso   1.00
H263   H     0.99084   0.25422   0.19456   0.00000  Uiso   1.00
H264   H     0.75988   0.21486   0.36761   0.00000  Uiso   1.00
H265   H     0.88981   0.30663   0.04456   0.00000  Uiso   1.00
H266   H     0.75590   0.21701   0.45269   0.00000  Uiso   1.00
H267   H     0.94209   0.13847   0.33254   0.00000  Uiso   1.00
H268   H     0.96661   0.16964   0.41379   0.00000  Uiso   1.00
H269   H     0.90413   0.16343   0.47153   0.00000  Uiso   1.00
H270   H     0.81723   0.12464   0.44832   0.00000  Uiso   1.00
H271   H     0.79255   0.09217   0.36761   0.00000  Uiso   1.00
H272   H     0.84829   0.41664   0.12382   0.00000  Uiso   1.00
H273   H     0.81858   0.38241   0.04466   0.00000  Uiso   1.00
H274   H     0.67579   0.24433   0.30514   0.00000  Uiso   1.00
H275   H     0.74012   0.33103   0.03142   0.00000  Uiso   1.00
H276   H     0.69065   0.31444   0.09754   0.00000  Uiso   1.00
H277   H     0.72011   0.34779   0.17714   0.00000  Uiso   1.00
H278   H     0.87465   0.02388   0.10040   0.00000  Uiso   1.00
H279   H     0.73539   0.02002   0.34982   0.00000  Uiso   1.00
H280   H     0.70222   0.23684   0.11410   0.00000  Uiso   1.00
H281   H     0.97128   0.18182   0.13786   0.00000  Uiso   1.00
H282   H     0.99470   0.10166   0.14857   0.00000  Uiso   1.00
H283   H     0.74873   0.07644   0.13352   0.00000  Uiso   1.00
H284   H     0.81294   0.13140   0.10901   0.00000  Uiso   1.00
H285   H     0.85405   0.02724   0.32804   0.00000  Uiso   1.00
H286   H     0.86826   0.35592   0.37493   0.00000  Uiso   1.00
H287   H     0.93867   0.40351   0.34932   0.00000  Uiso   1.00
H288   H     0.69521   0.37349   0.35175   0.00000  Uiso   1.00
H289   H     0.71414   0.29602   0.37994   0.00000  Uiso   1.00
H290   H     0.97655   0.24748   0.40327   0.00000  Uiso   1.00
H291   H     0.79248   0.47160   0.17205   0.00000  Uiso   1.00
H292   H     0.85905   0.11092   0.18064   0.00000  Uiso   1.00
H293   H     0.80570   0.38647   0.32089   0.00000  Uiso   1.00
H294   H     0.77775   0.19502   0.02593   0.00000  Uiso   1.00
H295   H     0.90905   0.28412   0.47657   0.00000  Uiso   1.00
H296   H     0.88993   0.30327   0.13044   0.00000  Uiso   1.00
N297   N     0.83333   0.24999   0.12624   0.00000  Uiso   1.00
N298   N     0.83333   0.25001   0.37377   0.00000  Uiso   1.00
O299   O     0.83334   0.18454   0.28974   0.00000  Uiso   1.00
O300   O     0.85864   0.04175   0.12464   0.00000  Uiso   1.00
O301   O     0.78997   0.45602   0.36909   0.00000  Uiso   1.00
O302   O     0.74932   0.00954   0.32038   0.00000  Uiso   1.00
O303   O     0.83333   0.31546   0.21026   0.00000  Uiso   1.00
O304   O     0.83334   0.18453   0.21026   0.00000  Uiso   1.00
O305   O     0.83333   0.31547   0.28974   0.00000  Uiso   1.00
O306   O     0.75725   0.25000   0.28045   0.00000  Uiso   1.00
O307   O     0.90942   0.25000   0.21956   0.00000  Uiso   1.00
O308   O     0.75725   0.24999   0.20097   0.00000  Uiso   1.00
O309   O     0.90942   0.25001   0.29904   0.00000  Uiso   1.00
O310   O     0.89663   0.49027   0.17751   0.00000  Uiso   1.00
Zn311  Zn    0.83333   0.25001   0.30307   0.00000  Uiso   1.00
Zn312  Zn    0.83333   0.25000   0.19693   0.00000  Uiso   1.00
C313   C     0.17092   0.66386   0.25087   0.00000  Uiso   1.00
C314   C     0.12399   0.73115   0.44083   0.00000  Uiso   1.00
C315   C     0.16683   0.75069   0.02665   0.00000  Uiso   1.00
C316   C     0.16631   0.75034   0.47329   0.00000  Uiso   1.00
C317   C     0.06698   0.74992   0.23742   0.00000  Uiso   1.00
C318   C     0.26634   0.74973   0.26256   0.00000  Uiso   1.00
C319   C     0.01179   0.75076   0.23073   0.00000  Uiso   1.00
C320   C     0.32149   0.74814   0.26908   0.00000  Uiso   1.00
C321   C     0.18150   0.54526   0.29481   0.00000  Uiso   1.00
C322   C     0.13493   0.95330   0.20501   0.00000  Uiso   1.00
C323   C     0.18559   0.59178   0.29662   0.00000  Uiso   1.00
C324   C     0.16124   0.83588   0.24908   0.00000  Uiso   1.00
C325   C     0.13563   0.90663   0.20337   0.00000  Uiso   1.00
C326   C     0.17979   0.61563   0.25324   0.00000  Uiso   1.00
C327   C     0.14769   0.88323   0.24688   0.00000  Uiso   1.00
C328   C     0.18479   0.59251   0.21159   0.00000  Uiso   1.00
C329   C     0.14241   0.90543   0.28912   0.00000  Uiso   1.00
C330   C     0.18303   0.54578   0.21054   0.00000  Uiso   1.00
C331   C     0.13794   0.95187   0.28971   0.00000  Uiso   1.00
C332   C     0.17002   0.52265   0.25096   0.00000  Uiso   1.00
C333   C     0.14710   0.97596   0.24875   0.00000  Uiso   1.00
C334   C     0.19870   0.61333   0.34414   0.00000  Uiso   1.00
C335   C     0.13530   0.72001   0.04745   0.00000  Uiso   1.00
C336   C     0.24775   0.63559   0.35745   0.00000  Uiso   1.00
C337   C     0.26170   0.65337   0.40336   0.00000  Uiso   1.00
C338   C     0.22665   0.64951   0.43605   0.00000  Uiso   1.00
C339   C     0.17768   0.62758   0.42297   0.00000  Uiso   1.00
C340   C     0.16376   0.60935   0.37724   0.00000  Uiso   1.00
C341   C     0.12018   0.88417   0.15648   0.00000  Uiso   1.00
C342   C     0.14746   0.89407   0.11859   0.00000  Uiso   1.00
C343   C     0.13064   0.87486   0.07368   0.00000  Uiso   1.00
C344   C     0.08640   0.84587   0.06620   0.00000  Uiso   1.00
C345   C     0.05879   0.83619   0.10359   0.00000  Uiso   1.00
C346   C     0.20853   0.76927   0.45383   0.00000  Uiso   1.00
C347   C     0.07558   0.85516   0.14861   0.00000  Uiso   1.00
C348   C     0.20270   0.52354   0.17035   0.00000  Uiso   1.00
C349   C     0.11514   0.97236   0.32923   0.00000  Uiso   1.00
C350   C     0.09746   0.68871   0.11434   0.00000  Uiso   1.00
C351   C     0.04669   0.70221   0.11978   0.00000  Uiso   1.00
C352   C     0.01001   0.67102   0.13277   0.00000  Uiso   1.00
C353   C     0.02313   0.62582   0.13863   0.00000  Uiso   1.00
C354   C     0.07246   0.61166   0.13040   0.00000  Uiso   1.00
C355   C     0.10910   0.64288   0.11740   0.00000  Uiso   1.00
C356   C     0.24941   0.79720   0.38710   0.00000  Uiso   1.00
C357   C     0.13447   0.72062   0.09664   0.00000  Uiso   1.00
C358   C     0.23988   0.84199   0.37384   0.00000  Uiso   1.00
C359   C     0.28000   0.86920   0.36031   0.00000  Uiso   1.00
C360   C     0.33066   0.85238   0.36192   0.00000  Uiso   1.00
C361   C     0.00795   0.80859   0.37772   0.00000  Uiso   1.00
C362   C     0.30095   0.78110   0.39062   0.00000  Uiso   1.00
C363   C     0.20757   0.77021   0.40437   0.00000  Uiso   1.00
C364   C     0.19851   0.77978   0.10726   0.00000  Uiso   1.00
C365   C     0.12559   0.73041   0.39162   0.00000  Uiso   1.00
C366   C     0.19872   0.78112   0.05781   0.00000  Uiso   1.00
H367   H     0.32417   0.75422   0.19456   0.00000  Uiso   1.00
H368   H     0.09322   0.71486   0.36761   0.00000  Uiso   1.00
H369   H     0.22314   0.80663   0.04456   0.00000  Uiso   1.00
H370   H     0.08923   0.71701   0.45269   0.00000  Uiso   1.00
H371   H     0.27542   0.63847   0.33254   0.00000  Uiso   1.00
H372   H     0.29994   0.66964   0.41379   0.00000  Uiso   1.00
H373   H     0.23746   0.66343   0.47153   0.00000  Uiso   1.00
H374   H     0.15056   0.62464   0.44832   0.00000  Uiso   1.00
H375   H     0.12588   0.59217   0.36761   0.00000  Uiso   1.00
H376   H     0.18162   0.91664   0.12382   0.00000  Uiso   1.00
H377   H     0.15192   0.88241   0.04466   0.00000  Uiso   1.00
H378   H     0.00913   0.74433   0.30514   0.00000  Uiso   1.00
H379   H     0.07345   0.83103   0.03142   0.00000  Uiso   1.00
H380   H     0.02398   0.81444   0.09754   0.00000  Uiso   1.00
H381   H     0.05344   0.84779   0.17714   0.00000  Uiso   1.00
H382   H     0.20798   0.52388   0.10040   0.00000  Uiso   1.00
H383   H     0.06872   0.52002   0.34982   0.00000  Uiso   1.00
H384   H     0.03555   0.73684   0.11410   0.00000  Uiso   1.00
H385   H     0.30461   0.68182   0.13786   0.00000  Uiso   1.00
H386   H     0.32804   0.60166   0.14857   0.00000  Uiso   1.00
H387   H     0.08206   0.57644   0.13352   0.00000  Uiso   1.00
H388   H     0.14628   0.63140   0.10901   0.00000  Uiso   1.00
H389   H     0.18738   0.52724   0.32804   0.00000  Uiso   1.00
H390   H     0.20159   0.85592   0.37493   0.00000  Uiso   1.00
H391   H     0.27201   0.90351   0.34932   0.00000  Uiso   1.00
H392   H     0.02854   0.87349   0.35175   0.00000  Uiso   1.00
H393   H     0.04747   0.79602   0.37994   0.00000  Uiso   1.00
H394   H     0.30988   0.74748   0.40327   0.00000  Uiso   1.00
H395   H     0.12581   0.97160   0.17205   0.00000  Uiso   1.00
H396   H     0.19239   0.61092   0.18064   0.00000  Uiso   1.00
H397   H     0.13903   0.88647   0.32089   0.00000  Uiso   1.00
H398   H     0.11108   0.69502   0.02593   0.00000  Uiso   1.00
H399   H     0.24239   0.78412   0.47657   0.00000  Uiso   1.00
H400   H     0.22326   0.80327   0.13044   0.00000  Uiso   1.00
N401   N     0.16667   0.74999   0.12624   0.00000  Uiso   1.00
N402   N     0.16667   0.75001   0.37377   0.00000  Uiso   1.00
O403   O     0.16667   0.68454   0.28974   0.00000  Uiso   1.00
O404   O     0.19197   0.54175   0.12464   0.00000  Uiso   1.00
O405   O     0.12331   0.95602   0.36909   0.00000  Uiso   1.00
O406   O     0.08265   0.50954   0.32038   0.00000  Uiso   1.00
O407   O     0.16666   0.81546   0.21026   0.00000  Uiso   1.00
O408   O     0.16667   0.68453   0.21026   0.00000  Uiso   1.00
O409   O     0.16666   0.81547   0.28974   0.00000  Uiso   1.00
O410   O     0.09058   0.75000   0.28045   0.00000  Uiso   1.00
O411   O     0.24275   0.75000   0.21956   0.00000  Uiso   1.00
O412   O     0.09058   0.74999   0.20097   0.00000  Uiso   1.00
O413   O     0.24275   0.75001   0.29904   0.00000  Uiso   1.00
O414   O     0.22997   0.99027   0.17751   0.00000  Uiso   1.00
Zn415  Zn    0.16667   0.75001   0.30307   0.00000  Uiso   1.00
Zn416  Zn    0.16667   0.75000   0.19693   0.00000  Uiso   1.00
C417   C     0.50425   0.66386   0.25087   0.00000  Uiso   1.00
C418   C     0.45732   0.73115   0.44083   0.00000  Uiso   1.00
C419   C     0.50017   0.75069   0.02665   0.00000  Uiso   1.00
C420   C     0.49964   0.75034   0.47329   0.00000  Uiso   1.00
C421   C     0.40031   0.74992   0.23742   0.00000  Uiso   1.00
C422   C     0.59967   0.74973   0.26256   0.00000  Uiso   1.00
C423   C     0.34512   0.75076   0.23073   0.00000  Uiso   1.00
C424   C     0.65482   0.74814   0.26908   0.00000  Uiso   1.00
C425   C     0.51483   0.54526   0.29481   0.00000  Uiso   1.00
C426   C     0.46826   0.95330   0.20501   0.00000  Uiso   1.00
C427   C     0.51892   0.59178   0.29662   0.00000  Uiso   1.00
C428   C     0.49458   0.83588   0.24908   0.00000  Uiso   1.00
C429   C     0.46896   0.90663   0.20337   0.00000  Uiso   1.00
C430   C     0.51312   0.61563   0.25324   0.00000  Uiso   1.00
C431   C     0.48102   0.88323   0.24688   0.00000  Uiso   1.00
C432   C     0.51812   0.59251   0.21159   0.00000  Uiso   1.00
C433   C     0.47575   0.90543   0.28912   0.00000  Uiso   1.00
C434   C     0.51636   0.54578   0.21054   0.00000  Uiso   1.00
C435   C     0.47128   0.95187   0.28971   0.00000  Uiso   1.00
C436   C     0.50336   0.52265   0.25096   0.00000  Uiso   1.00
C437   C     0.48044   0.97596   0.24875   0.00000  Uiso   1.00
C438   C     0.53203   0.61333   0.34414   0.00000  Uiso   1.00
C439   C     0.46863   0.72001   0.04745   0.00000  Uiso   1.00
C440   C     0.58109   0.63559   0.35745   0.00000  Uiso   1.00
C441   C     0.59503   0.65337   0.40336   0.00000  Uiso   1.00
C442   C     0.55998   0.64951   0.43605   0.00000  Uiso   1.00
C443   C     0.51101   0.62758   0.42297   0.00000  Uiso   1.00
C444   C     0.49709   0.60935   0.37724   0.00000  Uiso   1.00
C445   C     0.45352   0.88417   0.15648   0.00000  Uiso   1.00
C446   C     0.48079   0.89407   0.11859   0.00000  Uiso   1.00
C447   C     0.46397   0.87486   0.07368   0.00000  Uiso   1.00
C448   C     0.41974   0.84587   0.06620   0.00000  Uiso   1.00
C449   C     0.39213   0.83619   0.10359   0.00000  Uiso   1.00
C450   C     0.54186   0.76927   0.45383   0.00000  Uiso   1.00
C451   C     0.40891   0.85516   0.14861   0.00000  Uiso   1.00
C452   C     0.53603   0.52354   0.17035   0.00000  Uiso   1.00
C453   C     0.44847   0.97236   0.32923   0.00000  Uiso   1.00
C454   C     0.43080   0.68871   0.11434   0.00000  Uiso   1.00
C455   C     0.38002   0.70221   0.11978   0.00000  Uiso   1.00
C456   C     0.34334   0.67102   0.13277   0.00000  Uiso   1.00
C457   C     0.35646   0.62582   0.13863   0.00000  Uiso   1.00
C458   C     0.40579   0.61166   0.13040   0.00000  Uiso   1.00
C459   C     0.44244   0.64288   0.11740   0.00000  Uiso   1.00
C460   C     0.58275   0.79720   0.38710   0.00000  Uiso   1.00
C461   C     0.46780   0.72062   0.09664   0.00000  Uiso   1.00
C462   C     0.57321   0.84199   0.37384   0.00000  Uiso   1.00
C463   C     0.61333   0.86920   0.36031   0.00000  Uiso   1.00
C464   C     0.66399   0.85238   0.36192   0.00000  Uiso   1.00
C465   C     0.34129   0.80859   0.37772   0.00000  Uiso   1.00
C466   C     0.63428   0.78110   0.39062   0.00000  Uiso   1.00
C467   C     0.54091   0.77021   0.40437   0.00000  Uiso   1.00
C468   C     0.53184   0.77978   0.10726   0.00000  Uiso   1.00
C469   C     0.45893   0.73041   0.39162   0.00000  Uiso   1.00
C470   C     0.53205   0.78112   0.05781   0.00000  Uiso   1.00
H471   H     0.65751   0.75422   0.19456   0.00000  Uiso   1.00
H472   H     0.42655   0.71486   0.36761   0.00000  Uiso   1.00
H473   H     0.55647   0.80663   0.04456   0.00000  Uiso   1.00
H474   H     0.42256   0.71701   0.45269   0.00000  Uiso   1.00
H475   H     0.60876   0.63847   0.33254   0.00000  Uiso   1.00
H476   H     0.63328   0.66964   0.41379   0.00000  Uiso   1.00
H477   H     0.57079   0.66343   0.47153   0.00000  Uiso   1.00
H478   H     0.48389   0.62464   0.44832   0.00000  Uiso   1.00
H479   H     0.45922   0.59217   0.36761   0.00000  Uiso   1.00
H480   H     0.51496   0.91664   0.12382   0.00000  Uiso   1.00
H481   H     0.48525   0.88241   0.04466   0.00000  Uiso   1.00
H482   H     0.34246   0.74433   0.30514   0.00000  Uiso   1.00
H483   H     0.40679   0.83103   0.03142   0.00000  Uiso   1.00
H484   H     0.35732   0.81444   0.09754   0.00000  Uiso   1.00
H485   H     0.38678   0.84779   0.17714   0.00000  Uiso   1.00
H486   H     0.54131   0.52388   0.10040   0.00000  Uiso   1.00
H487   H     0.40206   0.52002   0.34982   0.00000  Uiso   1.00
H488   H     0.36889   0.73684   0.11410   0.00000  Uiso   1.00
H489   H     0.63794   0.68182   0.13786   0.00000  Uiso   1.00
H490   H     0.66137   0.60166   0.14857   0.00000  Uiso   1.00
H491   H     0.41539   0.57644   0.13352   0.00000  Uiso   1.00
H492   H     0.47961   0.63140   0.10901   0.00000  Uiso   1.00
H493   H     0.52072   0.52724   0.32804   0.00000  Uiso   1.00
H494   H     0.53493   0.85592   0.37493   0.00000  Uiso   1.00
H495   H     0.60534   0.90351   0.34932   0.00000  Uiso   1.00
H496   H     0.36187   0.87349   0.35175   0.00000  Uiso   1.00
H497   H     0.38080   0.79602   0.37994   0.00000  Uiso   1.00
H498   H     0.64321   0.74748   0.40327   0.00000  Uiso   1.00
H499   H     0.45915   0.97160   0.17205   0.00000  Uiso   1.00
H500   H     0.52572   0.61092   0.18064   0.00000  Uiso   1.00
H501   H     0.47237   0.88647   0.32089   0.00000  Uiso   1.00
H502   H     0.44441   0.69502   0.02593   0.00000  Uiso   1.00
H503   H     0.57572   0.78412   0.47657   0.00000  Uiso   1.00
H504   H     0.55660   0.80327   0.13044   0.00000  Uiso   1.00
N505   N     0.50000   0.74999   0.12624   0.00000  Uiso   1.00
N506   N     0.50000   0.75001   0.37377   0.00000  Uiso   1.00
O507   O     0.50000   0.68454   0.28974   0.00000  Uiso   1.00
O508   O     0.52530   0.54175   0.12464   0.00000  Uiso   1.00
O509   O     0.45664   0.95602   0.36909   0.00000  Uiso   1.00
O510   O     0.41599   0.50954   0.32038   0.00000  Uiso   1.00
O511   O     0.50000   0.81546   0.21026   0.00000  Uiso   1.00
O512   O     0.50000   0.68453   0.21026   0.00000  Uiso   1.00
O513   O     0.50000   0.81547   0.28974   0.00000  Uiso   1.00
O514   O     0.42392   0.75000   0.28045   0.00000  Uiso   1.00
O515   O     0.57608   0.75000   0.21956   0.00000  Uiso   1.00
O516   O     0.42392   0.74999   0.20097   0.00000  Uiso   1.00
O517   O     0.57608   0.75001   0.29904   0.00000  Uiso   1.00
O518   O     0.56330   0.99027   0.17751   0.00000  Uiso   1.00
Zn519  Zn    0.50000   0.75001   0.30307   0.00000  Uiso   1.00
Zn520  Zn    0.50000   0.75000   0.19693   0.00000  Uiso   1.00
C521   C     0.83759   0.66386   0.25087   0.00000  Uiso   1.00
C522   C     0.79066   0.73115   0.44083   0.00000  Uiso   1.00
C523   C     0.83350   0.75069   0.02665   0.00000  Uiso   1.00
C524   C     0.83298   0.75034   0.47329   0.00000  Uiso   1.00
C525   C     0.73365   0.74992   0.23742   0.00000  Uiso   1.00
C526   C     0.93301   0.74973   0.26256   0.00000  Uiso   1.00
C527   C     0.67845   0.75076   0.23073   0.00000  Uiso   1.00
C528   C     0.98815   0.74814   0.26908   0.00000  Uiso   1.00
C529   C     0.84816   0.54526   0.29481   0.00000  Uiso   1.00
C530   C     0.80159   0.95330   0.20501   0.00000  Uiso   1.00
C531   C     0.85226   0.59178   0.29662   0.00000  Uiso   1.00
C532   C     0.82791   0.83588   0.24908   0.00000  Uiso   1.00
C533   C     0.80230   0.90663   0.20337   0.00000  Uiso   1.00
C534   C     0.84645   0.61563   0.25324   0.00000  Uiso   1.00
C535   C     0.81435   0.88323   0.24688   0.00000  Uiso   1.00
C536   C     0.85146   0.59251   0.21159   0.00000  Uiso   1.00
C537   C     0.80908   0.90543   0.28912   0.00000  Uiso   1.00
C538   C     0.84970   0.54578   0.21054   0.00000  Uiso   1.00
C539   C     0.80461   0.95187   0.28971   0.00000  Uiso   1.00
C540   C     0.83669   0.52265   0.25096   0.00000  Uiso   1.00
C541   C     0.81377   0.97596   0.24875   0.00000  Uiso   1.00
C542   C     0.86536   0.61333   0.34414   0.00000  Uiso   1.00
C543   C     0.80197   0.72001   0.04745   0.00000  Uiso   1.00
C544   C     0.91442   0.63559   0.35745   0.00000  Uiso   1.00
C545   C     0.92836   0.65337   0.40336   0.00000  Uiso   1.00
C546   C     0.89331   0.64951   0.43605   0.00000  Uiso   1.00
C547   C     0.84434   0.62758   0.42297   0.00000  Uiso   1.00
C548   C     0.83042   0.60935   0.37724   0.00000  Uiso   1.00
C549   C     0.78685   0.88417   0.15648   0.00000  Uiso   1.00
C550   C     0.81413   0.89407   0.11859   0.00000  Uiso   1.00
C551   C     0.79730   0.87486   0.07368   0.00000  Uiso   1.00
C552   C     0.75307   0.84587   0.06620   0.00000  Uiso   1.00
C553   C     0.72546   0.83619   0.10359   0.00000  Uiso   1.00
C554   C     0.87519   0.76927   0.45383   0.00000  Uiso   1.00
C555   C     0.74224   0.85516   0.14861   0.00000  Uiso   1.00
C556   C     0.86936   0.52354   0.17035   0.00000  Uiso   1.00
C557   C     0.78180   0.97236   0.32923   0.00000  Uiso   1.00
C558   C     0.76413   0.68871   0.11434   0.00000  Uiso   1.00
C559   C     0.71335   0.70221   0.11978   0.00000  Uiso   1.00
C560   C     0.67668   0.67102   0.13277   0.00000  Uiso   1.00
C561   C     0.68979   0.62582   0.13863   0.00000  Uiso   1.00
C562   C     0.73912   0.61166   0.13040   0.00000  Uiso   1.00
C563   C     0.77577   0.64288   0.11740   0.00000  Uiso   1.00
C564   C     0.91608   0.79720   0.38710   0.00000  Uiso   1.00
C565   C     0.80113   0.72062   0.09664   0.00000  Uiso   1.00
C566   C     0.90655   0.84199   0.37384   0.00000  Uiso   1.00
C567   C     0.94667   0.86920   0.36031   0.00000  Uiso   1.00
C568   C     0.99733   0.85238   0.36192   0.00000  Uiso   1.00
C569   C     0.67462   0.80859   0.37772   0.00000  Uiso   1.00
C570   C     0.96761   0.78110   0.39062   0.00000  Uiso   1.00
C571   C     0.87424   0.77021   0.40437   0.00000  Uiso   1.00
C572   C     0.86517   0.77978   0.10726   0.00000  Uiso   1.00
C573   C     0.79226   0.73041   0.39162   0.00000  Uiso   1.00
C574   C     0.86538   0.78112   0.05781   0.00000  Uiso   1.00
H575   H     0.99084   0.75422   0.19456   0.00000  Uiso   1.00
H576   H     0.75988   0.71486   0.36761   0.00000  Uiso   1.00
H577   H     0.88981   0.80663   0.04456   0.00000  Uiso   1.00
H578   H     0.75590   0.71701   0.45269   0.00000  Uiso   1.00
H579   H     0.94209   0.63847   0.33254   0.00000  Uiso   1.00
H580   H     0.96661   0.66964   0.41379   0.00000  Uiso   1.00
H581   H     0.90413   0.66343   0.47153   0.00000  Uiso   1.00
H582   H     0.81723   0.62464   0.44832   0.00000  Uiso   1.00
H583   H     0.79255   0.59217   0.36761   0.00000  Uiso   1.00
H584   H     0.84829   0.91664   0.12382   0.00000  Uiso   1.00
H585   H     0.81858   0.88241   0.04466   0.00000  Uiso   1.00
H586   H     0.67579   0.74433   0.30514   0.00000  Uiso   1.00
H587   H     0.74012   0.83103   0.03142   0.00000  Uiso   1.00
H588   H     0.69065   0.81444   0.09754   0.00000  Uiso   1.00
H589   H     0.72011   0.84779   0.17714   0.00000  Uiso   1.00
H590   H     0.87465   0.52388   0.10040   0.00000  Uiso   1.00
H591   H     0.73539   0.52002   0.34982   0.00000  Uiso   1.00
H592   H     0.70222   0.73684   0.11410   0.00000  Uiso   1.00
H593   H     0.97128   0.68182   0.13786   0.00000  Uiso   1.00
H594   H     0.99470   0.60166   0.14857   0.00000  Uiso   1.00
H595   H     0.74873   0.57644   0.13352   0.00000  Uiso   1.00
H596   H     0.81294   0.63140   0.10901   0.00000  Uiso   1.00
H597   H     0.85405   0.52724   0.32804   0.00000  Uiso   1.00
H598   H     0.86826   0.85592   0.37493   0.00000  Uiso   1.00
H599   H     0.93867   0.90351   0.34932   0.00000  Uiso   1.00
H600   H     0.69521   0.87349   0.35175   0.00000  Uiso   1.00
H601   H     0.71414   0.79602   0.37994   0.00000  Uiso   1.00
H602   H     0.97655   0.74748   0.40327   0.00000  Uiso   1.00
H603   H     0.79248   0.97160   0.17205   0.00000  Uiso   1.00
H604   H     0.85905   0.61092   0.18064   0.00000  Uiso   1.00
H605   H     0.80570   0.88647   0.32089   0.00000  Uiso   1.00
H606   H     0.77775   0.69502   0.02593   0.00000  Uiso   1.00
H607   H     0.90905   0.78412   0.47657   0.00000  Uiso   1.00
H608   H     0.88993   0.80327   0.13044   0.00000  Uiso   1.00
N609   N     0.83333   0.74999   0.12624   0.00000  Uiso   1.00
N610   N     0.83333   0.75001   0.37377   0.00000  Uiso   1.00
O611   O     0.83334   0.68454   0.28974   0.00000  Uiso   1.00
O612   O     0.85864   0.54175   0.12464   0.00000  Uiso   1.00
O613   O     0.78997   0.95602   0.36909   0.00000  Uiso   1.00
O614   O     0.74932   0.50954   0.32038   0.00000  Uiso   1.00
O615   O     0.83333   0.81546   0.21026   0.00000  Uiso   1.00
O616   O     0.83334   0.68453   0.21026   0.00000  Uiso   1.00
O617   O     0.83333   0.81547   0.28974   0.00000  Uiso   1.00
O618   O     0.75725   0.75000   0.28045   0.00000  Uiso   1.00
O619   O     0.90942   0.75000   0.21956   0.00000  Uiso   1.00
O620   O     0.75725   0.74999   0.20097   0.00000  Uiso   1.00
O621   O     0.90942   0.75001   0.29904   0.00000  Uiso   1.00
O622   O     0.89663   0.99027   0.17751   0.00000  Uiso   1.00
Zn623  Zn    0.83333   0.75001   0.30307   0.00000  Uiso   1.00
Zn624  Zn    0.83333   0.75000   0.19693   0.00000  Uiso   1.00
C625   C     0.17092   0.16386   0.75087   0.00000  Uiso   1.00
C626   C     0.12399   0.23115   0.94083   0.00000  Uiso   1.00
C627   C     0.16683   0.25069   0.52665   0.00000  Uiso   1.00
C628   C     0.16631   0.25034   0.97329   0.00000  Uiso   1.00
C629   C     0.06698   0.24992   0.73742   0.00000  Uiso   1.00
C630   C     0.26634   0.24973   0.76256   0.00000  Uiso   1.00
C631   C     0.01179   0.25076   0.73073   0.00000  Uiso   1.00
C632   C     0.32149   0.24814   0.76908   0.00000  Uiso   1.00
C633   C     0.18150   0.04526   0.79481   0.00000  Uiso   1.00
C634   C     0.13493   0.45330   0.70501   0.00000  Uiso   1.00
C635   C     0.18559   0.09178   0.79662   0.00000  Uiso   1.00
C636   C     0.16124   0.33588   0.74908   0.00000  Uiso   1.00
C637   C     0.13563   0.40663   0.70337   0.00000  Uiso   1.00
C638   C     0.17979   0.11563   0.75324   0.00000  Uiso   1.00
C639   C     0.14769   0.38323   0.74688   0.00000  Uiso   1.00
C640   C     0.18479   0.09251   0.71159   0.00000  Uiso   1.00
C641   C     0.14241   0.40543   0.78912   0.00000  Uiso   1.00
C642   C     0.18303   0.04578   0.71054   0.00000  Uiso   1.00
C643   C     0.13794   0.45187   0.78971   0.00000  Uiso   1.00
C644   C     0.17002   0.02265   0.75096   0.00000  Uiso   1.00
C645   C     0.14710   0.47596   0.74875   0.00000  Uiso   1.00
C646   C     0.19870   0.11333   0.84414   0.00000  Uiso   1.00
C647   C     0.13530   0.22001   0.54745   0.00000  Uiso   1.00
C648   C     0.24775   0.13559   0.85745   0.00000  Uiso   1.00
C649   C     0.26170   0.15337   0.90336   0.00000  Uiso   1.00
C650   C     0.22665   0.14951   0.93605   0.00000  Uiso   1.00
C651   C     0.17768   0.12758   0.92297   0.00000  Uiso   1.00
C652   C     0.16376   0.10935   0.87724   0.00000  Uiso   1.00
C653   C     0.12018   0.38417   0.65648   0.00000  Uiso   1.00
C654   C     0.14746   0.39407   0.61859   0.00000  Uiso   1.00
C655   C     0.13064   0.37486   0.57368   0.00000  Uiso   1.00
C656   C     0.08640   0.34587   0.56620   0.00000  Uiso   1.00
C657   C     0.05879   0.33619   0.60359   0.00000  Uiso   1.00
C658   C     0.20853   0.26927   0.95383   0.00000  Uiso   1.00
C659   C     0.07558   0.35516   0.64861   0.00000  Uiso   1.00
C660   C     0.20270   0.02354   0.67035   0.00000  Uiso   1.00
C661   C     0.11514   0.47236   0.82923   0.00000  Uiso   1.00
C662   C     0.09746   0.18871   0.61434   0.00000  Uiso   1.00
C663   C     0.04669   0.20221   0.61978   0.00000  Uiso   1.00
C664   C     0.01001   0.17102   0.63277   0.00000  Uiso   1.00
C665   C     0.02313   0.12582   0.63863   0.00000  Uiso   1.00
C666   C     0.07246   0.11166   0.63040   0.00000  Uiso   1.00
C667   C     0.10910   0.14288   0.61740   0.00000  Uiso   1.00
C668   C     0.24941   0.29720   0.88710   0.00000  Uiso   1.00
C669   C     0.13447   0.22062   0.59664   0.00000  Uiso   1.00
C670   C     0.23988   0.34199   0.87384   0.00000  Uiso   1.00
C671   C     0.28000   0.36920   0.86031   0.00000  Uiso   1.00
C672   C     0.33066   0.35238   0.86192   0.00000  Uiso   1.00
C673   C     0.00795   0.30859   0.87772   0.00000  Uiso   1.00
C674   C     0.30095   0.28110   0.89062   0.00000  Uiso   1.00
C675   C     0.20757   0.27021   0.90437   0.00000  Uiso   1.00
C676   C     0.19851   0.27978   0.60726   0.00000  Uiso   1.00
C677   C     0.12559   0.23041   0.89162   0.00000  Uiso   1.00
C678   C     0.19872   0.28112   0.55781   0.00000  Uiso   1.00
H679   H     0.32417   0.25422   0.69456   0.00000  Uiso   1.00
H680   H     0.09322   0.21486   0.86761   0.00000  Uiso   1.00
H681   H     0.22314   0.30663   0.54456   0.00000  Uiso   1.00
H682   H     0.08923   0.21701   0.95269   0.00000  Uiso   1.00
H683   H     0.27542   0.13847   0.83254   0.00000  Uiso   1.00
H684   H     0.29994   0.16964   0.91379   0.00000  Uiso   1.00
H685   H     0.23746   0.16343   0.97153   0.00000  Uiso   1.00
H686   H     0.15056   0.12464   0.94832   0.00000  Uiso   1.00
H687   H     0.12588   0.09217   0.86761   0.00000  Uiso   1.00
H688   H     0.18162   0.41664   0.62382   0.00000  Uiso   1.00
H689   H     0.15192   0.38241   0.54466   0.00000  Uiso   1.00
H690   H     0.00913   0.24433   0.80514   0.00000  Uiso   1.00
H691   H     0.07345   0.33103   0.53142   0.00000  Uiso   1.00
H692   H     0.02398   0.31444   0.59754   0.00000  Uiso   1.00
H693   H     0.05344   0.34779   0.67714   0.00000  Uiso   1.00
H694   H     0.20798   0.02388   0.60040   0.00000  Uiso   1.00
H695   H     0.06872   0.02002   0.84982   0.00000  Uiso   1.00
H696   H     0.03555   0.23684   0.61410   0.00000  Uiso   1.00
H697   H     0.30461   0.18182   0.63786   0.00000  Uiso   1.00
H698   H     0.32804   0.10166   0.64857   0.00000  Uiso   1.00
H699   H     0.08206   0.07644   0.63352   0.00000  Uiso   1.00
H700   H     0.14628   0.13140   0.60901   0.00000  Uiso   1.00
H701   H     0.18738   0.02724   0.82804   0.00000  Uiso   1.00
H702   H     0.20159   0.35592   0.87493   0.00000  Uiso   1.00
H703   H     0.27201   0.40351   0.84932   0.00000  Uiso   1.00
H704   H     0.02854   0.37349   0.85175   0.00000  Uiso   1.00
H705   H     0.04747   0.29602   0.87994   0.00000  Uiso   1.00
H706   H     0.30988   0.24748   0.90327   0.00000  Uiso   1.00
H707   H     0.12581   0.47160   0.67205   0.00000  Uiso   1.00
H708   H     0.19239   0.11092   0.68064   0.00000  Uiso   1.00
H709   H     0.13903   0.38647   0.82089   0.00000  Uiso   1.00
H710   H     0.11108   0.19502   0.52593   0.00000  Uiso   1.00
H711   H     0.24239   0.28412   0.97657   0.00000  Uiso   1.00
H712   H     0.22326   0.30327   0.63044   0.00000  Uiso   1.00
N713   N     0.16667   0.24999   0.62624   0.00000  Uiso   1.00
N714   N     0.16667   0.25001   0.87377   0.00000  Uiso   1.00
O715   O     0.16667   0.18454   0.78974   0.00000  Uiso   1.00
O716   O     0.19197   0.04175   0.62464   0.00000  Uiso   1.00
O717   O     0.12331   0.45602   0.86909   0.00000  Uiso   1.00
O718   O     0.08265   0.00954   0.82038   0.00000  Uiso   1.00
O719   O     0.16666   0.31546   0.71026   0.00000  Uiso   1.00
O720   O     0.16667   0.18453   0.71026   0.00000  Uiso   1.00
O721   O     0.16666   0.31547   0.78974   0.00000  Uiso   1.00
O722   O     0.09058   0.25000   0.78045   0.00000  Uiso   1.00
O723   O     0.24275   0.25000   0.71956   0.00000  Uiso   1.00
O724   O     0.09058   0.24999   0.70097   0.00000  Uiso   1.00
O725   O     0.24275   0.25001   0.79904   0.00000  Uiso   1.00
O726   O     0.22997   0.49027   0.67751   0.00000  Uiso   1.00
Zn727  Zn    0.16667   0.25001   0.80307   0.00000  Uiso   1.00
Zn728  Zn    0.16667   0.25000   0.69693   0.00000  Uiso   1.00
C729   C     0.50425   0.16386   0.75087   0.00000  Uiso   1.00
C730   C     0.45732   0.23115   0.94083   0.00000  Uiso   1.00
C731   C     0.50017   0.25069   0.52665   0.00000  Uiso   1.00
C732   C     0.49964   0.25034   0.97329   0.00000  Uiso   1.00
C733   C     0.40031   0.24992   0.73742   0.00000  Uiso   1.00
C734   C     0.59967   0.24973   0.76256   0.00000  Uiso   1.00
C735   C     0.34512   0.25076   0.73073   0.00000  Uiso   1.00
C736   C     0.65482   0.24814   0.76908   0.00000  Uiso   1.00
C737   C     0.51483   0.04526   0.79481   0.00000  Uiso   1.00
C738   C     0.46826   0.45330   0.70501   0.00000  Uiso   1.00
C739   C     0.51892   0.09178   0.79662   0.00000  Uiso   1.00
C740   C     0.49458   0.33588   0.74908   0.00000  Uiso   1.00
C741   C     0.46896   0.40663   0.70337   0.00000  Uiso   1.00
C742   C     0.51312   0.11563   0.75324   0.00000  Uiso   1.00
C743   C     0.48102   0.38323   0.74688   0.00000  Uiso   1.00
C744   C     0.51812   0.09251   0.71159   0.00000  Uiso   1.00
C745   C     0.47575   0.40543   0.78912   0.00000  Uiso   1.00
C746   C     0.51636   0.04578   0.71054   0.00000  Uiso   1.00
C747   C     0.47128   0.45187   0.78971   0.00000  Uiso   1.00
C748   C     0.50336   0.02265   0.75096   0.00000  Uiso   1.00
C749   C     0.48044   0.47596   0.74875   0.00000  Uiso   1.00
C750   C     0.53203   0.11333   0.84414   0.00000  Uiso   1.00
C751   C     0.46863   0.22001   0.54745   0.00000  Uiso   1.00
C752   C     0.58109   0.13559   0.85745   0.00000  Uiso   1.00
C753   C     0.59503   0.15337   0.90336   0.00000  Uiso   1.00
C754   C     0.55998   0.14951   0.93605   0.00000  Uiso   1.00
C755   C     0.51101   0.12758   0.92297   0.00000  Uiso   1.00
C756   C     0.49709   0.10935   0.87724   0.00000  Uiso   1.00
C757   C     0.45352   0.38417   0.65648   0.00000  Uiso   1.00
C758   C     0.48079   0.39407   0.61859   0.00000  Uiso   1.00
C759   C     0.46397   0.37486   0.57368   0.00000  Uiso   1.00
C760   C     0.41974   0.34587   0.56620   0.00000  Uiso   1.00
C761   C     0.39213   0.33619   0.60359   0.00000  Uiso   1.00
C762   C     0.54186   0.26927   0.95383   0.00000  Uiso   1.00
C763   C     0.40891   0.35516   0.64861   0.00000  Uiso   1.00
C764   C     0.53603   0.02354   0.67035   0.00000  Uiso   1.00
C765   C     0.44847   0.47236   0.82923   0.00000  Uiso   1.00
C766   C     0.43080   0.18871   0.61434   0.00000  Uiso   1.00
C767   C     0.38002   0.20221   0.61978   0.00000  Uiso   1.00
C768   C     0.34334   0.17102   0.63277   0.00000  Uiso   1.00
C769   C     0.35646   0.12582   0.63863   0.00000  Uiso   1.00
C770   C     0.40579   0.11166   0.63040   0.00000  Uiso   1.00
C771   C     0.44244   0.14288   0.61740   0.00000  Uiso   1.00
C772   C     0.58275   0.29720   0.88710   0.00000  Uiso   1.00
C773   C     0.46780   0.22062   0.59664   0.00000  Uiso   1.00
C774   C     0.57321   0.34199   0.87384   0.00000  Uiso   1.00
C775   C     0.61333   0.36920   0.86031   0.00000  Uiso   1.00
C776   C     0.66399   0.35238   0.86192   0.00000  Uiso   1.00
C777   C     0.34129   0.30859   0.87772   0.00000  Uiso   1.00
C778   C     0.63428   0.28110   0.89062   0.00000  Uiso   1.00
C779   C     0.54091   0.27021   0.90437   0.00000  Uiso   1.00
C780   C     0.53184   0.27978   0.60726   0.00000  Uiso   1.00
C781   C     0.45893   0.23041   0.89162   0.00000  Uiso   1.00
C782   C     0.53205   0.28112   0.55781   0.00000  Uiso   1.00
H783   H     0.65751   0.25422   0.69456   0.00000  Uiso   1.00
H784   H     0.42655   0.21486   0.86761   0.00000  Uiso   1.00
H785   H     0.55647   0.30663   0.54456   0.00000  Uiso   1.00
H786   H     0.42256   0.21701   0.95269   0.00000  Uiso   1.00
H787   H     0.60876   0.13847   0.83254   0.00000  Uiso   1.00
H788   H     0.63328   0.16964   0.91379   0.00000  Uiso   1.00
H789   H     0.57079   0.16343   0.97153   0.00000  Uiso   1.00
H790   H     0.48389   0.12464   0.94832   0.00000  Uiso   1.00
H791   H     0.45922   0.09217   0.86761   0.00000  Uiso   1.00
H792   H     0.51496   0.41664   0.62382   0.00000  Uiso   1.00
H793   H     0.48525   0.38241   0.54466   0.00000  Uiso   1.00
H794   H     0.34246   0.24433   0.80514   0.00000  Uiso   1.00
H795   H     0.40679   0.33103   0.53142   0.00000  Uiso   1.00
H796   H     0.35732   0.31444   0.59754   0.00000  Uiso   1.00
H797   H     0.38678   0.34779   0.67714   0.00000  Uiso   1.00
H798   H     0.54131   0.02388   0.60040   0.00000  Uiso   1.00
H799   H     0.40206   0.02002   0.84982   0.00000  Uiso   1.00
H800   H     0.36889   0.23684   0.61410   0.00000  Uiso   1.00
H801   H     0.63794   0.18182   0.63786   0.00000  Uiso   1.00
H802   H     0.66137   0.10166   0.64857   0.00000  Uiso   1.00
H803   H     0.41539   0.07644   0.63352   0.00000  Uiso   1.00
H804   H     0.47961   0.13140   0.60901   0.00000  Uiso   1.00
H805   H     0.52072   0.02724   0.82804   0.00000  Uiso   1.00
H806   H     0.53493   0.35592   0.87493   0.00000  Uiso   1.00
H807   H     0.60534   0.40351   0.84932   0.00000  Uiso   1.00
H808   H     0.36187   0.37349   0.85175   0.00000  Uiso   1.00
H809   H     0.38080   0.29602   0.87994   0.00000  Uiso   1.00
H810   H     0.64321   0.24748   0.90327   0.00000  Uiso   1.00
H811   H     0.45915   0.47160   0.67205   0.00000  Uiso   1.00
H812   H     0.52572   0.11092   0.68064   0.00000  Uiso   1.00
H813   H     0.47237   0.38647   0.82089   0.00000  Uiso   1.00
H814   H     0.44441   0.19502   0.52593   0.00000  Uiso   1.00
H815   H     0.57572   0.28412   0.97657   0.00000  Uiso   1.00
H816   H     0.55660   0.30327   0.63044   0.00000  Uiso   1.00
N817   N     0.50000   0.24999   0.62624   0.00000  Uiso   1.00
N818   N     0.50000   0.25001   0.87377   0.00000  Uiso   1.00
O819   O     0.50000   0.18454   0.78974   0.00000  Uiso   1.00
O820   O     0.52530   0.04175   0.62464   0.00000  Uiso   1.00
O821   O     0.45664   0.45602   0.86909   0.00000  Uiso   1.00
O822   O     0.41599   0.00954   0.82038   0.00000  Uiso   1.00
O823   O     0.50000   0.31546   0.71026   0.00000  Uiso   1.00
O824   O     0.50000   0.18453   0.71026   0.00000  Uiso   1.00
O825   O     0.50000   0.31547   0.78974   0.00000  Uiso   1.00
O826   O     0.42392   0.25000   0.78045   0.00000  Uiso   1.00
O827   O     0.57608   0.25000   0.71956   0.00000  Uiso   1.00
O828   O     0.42392   0.24999   0.70097   0.00000  Uiso   1.00
O829   O     0.57608   0.25001   0.79904   0.00000  Uiso   1.00
O830   O     0.56330   0.49027   0.67751   0.00000  Uiso   1.00
Zn831  Zn    0.50000   0.25001   0.80307   0.00000  Uiso   1.00
Zn832  Zn    0.50000   0.25000   0.69693   0.00000  Uiso   1.00
C833   C     0.83759   0.16386   0.75087   0.00000  Uiso   1.00
C834   C     0.79066   0.23115   0.94083   0.00000  Uiso   1.00
C835   C     0.83350   0.25069   0.52665   0.00000  Uiso   1.00
C836   C     0.83298   0.25034   0.97329   0.00000  Uiso   1.00
C837   C     0.73365   0.24992   0.73742   0.00000  Uiso   1.00
C838   C     0.93301   0.24973   0.76256   0.00000  Uiso   1.00
C839   C     0.67845   0.25076   0.73073   0.00000  Uiso   1.00
C840   C     0.98815   0.24814   0.76908   0.00000  Uiso   1.00
C841   C     0.84816   0.04526   0.79481   0.00000  Uiso   1.00
C842   C     0.80159   0.45330   0.70501   0.00000  Uiso   1.00
C843   C     0.85226   0.09178   0.79662   0.00000  Uiso   1.00
C844   C     0.82791   0.33588   0.74908   0.00000  Uiso   1.00
C845   C     0.80230   0.40663   0.70337   0.00000  Uiso   1.00
C846   C     0.84645   0.11563   0.75324   0.00000  Uiso   1.00
C847   C     0.81435   0.38323   0.74688   0.00000  Uiso   1.00
C848   C     0.85146   0.09251   0.71159   0.00000  Uiso   1.00
C849   C     0.80908   0.40543   0.78912   0.00000  Uiso   1.00
C850   C     0.84970   0.04578   0.71054   0.00000  Uiso   1.00
C851   C     0.80461   0.45187   0.78971   0.00000  Uiso   1.00
C852   C     0.83669   0.02265   0.75096   0.00000  Uiso   1.00
C853   C     0.81377   0.47596   0.74875   0.00000  Uiso   1.00
C854   C     0.86536   0.11333   0.84414   0.00000  Uiso   1.00
C855   C     0.80197   0.22001   0.54745   0.00000  Uiso   1.00
C856   C     0.91442   0.13559   0.85745   0.00000  Uiso   1.00
C857   C     0.92836   0.15337   0.90336   0.00000  Uiso   1.00
C858   C     0.89331   0.14951   0.93605   0.00000  Uiso   1.00
C859   C     0.84434   0.12758   0.92297   0.00000  Uiso   1.00
C860   C     0.83042   0.10935   0.87724   0.00000  Uiso   1.00
C861   C     0.78685   0.38417   0.65648   0.00000  Uiso   1.00
C862   C     0.81413   0.39407   0.61859   0.00000  Uiso   1.00
C863   C     0.79730   0.37486   0.57368   0.00000  Uiso   1.00
C864   C     0.75307   0.34587   0.56620   0.00000  Uiso   1.00
C865   C     0.72546   0.33619   0.60359   0.00000  Uiso   1.00
C866   C     0.87519   0.26927   0.95383   0.00000  Uiso   1.00
C867   C     0.74224   0.35516   0.64861   0.00000  Uiso   1.00
C868   C     0.86936   0.02354   0.67035   0.00000  Uiso   1.00
C869   C     0.78180   0.47236   0.82923   0.00000  Uiso   1.00
C870   C     0.76413   0.18871   0.61434   0.00000  Uiso   1.00
C871   C     0.71335   0.20221   0.61978   0.00000  Uiso   1.00
C872   C     0.67668   0.17102   0.63277   0.00000  Uiso   1.00
C873   C     0.68979   0.12582   0.63863   0.00000  Uiso   1.00
C874   C     0.73912   0.11166   0.63040   0.00000  Uiso   1.00
C875   C     0.77577   0.14288   0.61740   0.00000  Uiso   1.00
C876   C     0.91608   0.29720   0.88710   0.00000  Uiso   1.00
C877   C     0.80113   0.22062   0.59664   0.00000  Uiso   1.00
C878   C     0.90655   0.34199   0.87384   0.00000  Uiso   1.00
C879   C     0.94667   0.36920   0.86031   0.00000  Uiso   1.00
C880   C     0.99733   0.35238   0.86192   0.00000  Uiso   1.00
C881   C     0.67462   0.30859   0.87772   0.00000  Uiso   1.00
C882   C     0.96761   0.28110   0.89062   0.00000  Uiso   1.00
C883   C     0.87424   0.27021   0.90437   0.00000  Uiso   1.00
C884   C     0.86517   0.27978   0.60726   0.00000  Uiso   1.00
C885   C     0.79226   0.23041   0.89162   0.00000  Uiso   1.00
C886   C     0.86538   0.28112   0.55781   0.00000  Uiso   1.00
H887   H     0.99084   0.25422   0.69456   0.00000  Uiso   1.00
H888   H     0.75988   0.21486   0.86761   0.00000  Uiso   1.00
H889   H     0.88981   0.30663   0.54456   0.00000  Uiso   1.00
H890   H     0.75590   0.21701   0.95269   0.00000  Uiso   1.00
H891   H     0.94209   0.13847   0.83254   0.00000  Uiso   1.00
H892   H     0.96661   0.16964   0.91379   0.00000  Uiso   1.00
H893   H     0.90413   0.16343   0.97153   0.00000  Uiso   1.00
H894   H     0.81723   0.12464   0.94832   0.00000  Uiso   1.00
H895   H     0.79255   0.09217   0.86761   0.00000  Uiso   1.00
H896   H     0.84829   0.41664   0.62382   0.00000  Uiso   1.00
H897   H     0.81858   0.38241   0.54466   0.00000  Uiso   1.00
H898   H     0.67579   0.24433   0.80514   0.00000  Uiso   1.00
H899   H     0.74012   0.33103   0.53142   0.00000  Uiso   1.00
H900   H     0.69065   0.31444   0.59754   0.00000  Uiso   1.00
H901   H     0.72011   0.34779   0.67714   0.00000  Uiso   1.00
H902   H     0.87465   0.02388   0.60040   0.00000  Uiso   1.00
H903   H     0.73539   0.02002   0.84982   0.00000  Uiso   1.00
H904   H     0.70222   0.23684   0.61410   0.00000  Uiso   1.00
H905   H     0.97128   0.18182   0.63786   0.00000  Uiso   1.00
H906   H     0.99470   0.10166   0.64857   0.00000  Uiso   1.00
H907   H     0.74873   0.07644   0.63352   0.00000  Uiso   1.00
H908   H     0.81294   0.13140   0.60901   0.00000  Uiso   1.00
H909   H     0.85405   0.02724   0.82804   0.00000  Uiso   1.00
H910   H     0.86826   0.35592   0.87493   0.00000  Uiso   1.00
H911   H     0.93867   0.40351   0.84932   0.00000  Uiso   1.00
H912   H     0.69521   0.37349   0.85175   0.00000  Uiso   1.00
H913   H     0.71414   0.29602   0.87994   0.00000  Uiso   1.00
H914   H     0.97655   0.24748   0.90327   0.00000  Uiso   1.00
H915   H     0.79248   0.47160   0.67205   0.00000  Uiso   1.00
H916   H     0.85905   0.11092   0.68064   0.00000  Uiso   1.00
H917   H     0.80570   0.38647   0.82089   0.00000  Uiso   1.00
H918   H     0.77775   0.19502   0.52593   0.00000  Uiso   1.00
H919   H     0.90905   0.28412   0.97657   0.00000  Uiso   1.00
H920   H     0.88993   0.30327   0.63044   0.00000  Uiso   1.00
N921   N     0.83333   0.24999   0.62624   0.00000  Uiso   1.00
N922   N     0.83333   0.25001   0.87377   0.00000  Uiso   1.00
O923   O     0.83334   0.18454   0.78974   0.00000  Uiso   1.00
O924   O     0.85864   0.04175   0.62464   0.00000  Uiso   1.00
O925   O     0.78997   0.45602   0.86909   0.00000  Uiso   1.00
O926   O     0.74932   0.00954   0.82038   0.00000  Uiso   1.00
O927   O     0.83333   0.31546   0.71026   0.00000  Uiso   1.00
O928   O     0.83334   0.18453   0.71026   0.00000  Uiso   1.00
O929   O     0.83333   0.31547   0.78974   0.00000  Uiso   1.00
O930   O     0.75725   0.25000   0.78045   0.00000  Uiso   1.00
O931   O     0.90942   0.25000   0.71956   0.00000  Uiso   1.00
O932   O     0.75725   0.24999   0.70097   0.00000  Uiso   1.00
O933   O     0.90942   0.25001   0.79904   0.00000  Uiso   1.00
O934   O     0.89663   0.49027   0.67751   0.00000  Uiso   1.00
Zn935  Zn    0.83333   0.25001   0.80307   0.00000  Uiso   1.00
Zn936  Zn    0.83333   0.25000   0.69693   0.00000  Uiso   1.00
C937   C     0.17092   0.66386   0.75087   0.00000  Uiso   1.00
C938   C     0.12399   0.73115   0.94083   0.00000  Uiso   1.00
C939   C     0.16683   0.75069   0.52665   0.00000  Uiso   1.00
C940   C     0.16631   0.75034   0.97329   0.00000  Uiso   1.00
C941   C     0.06698   0.74992   0.73742   0.00000  Uiso   1.00
C942   C     0.26634   0.74973   0.76256   0.00000  Uiso   1.00
C943   C     0.01179   0.75076   0.73073   0.00000  Uiso   1.00
C944   C     0.32149   0.74814   0.76908   0.00000  Uiso   1.00
C945   C     0.18150   0.54526   0.79481   0.00000  Uiso   1.00
C946   C     0.13493   0.95330   0.70501   0.00000  Uiso   1.00
C947   C     0.18559   0.59178   0.79662   0.00000  Uiso   1.00
C948   C     0.16124   0.83588   0.74908   0.00000  Uiso   1.00
C949   C     0.13563   0.90663   0.70337   0.00000  Uiso   1.00
C950   C     0.17979   0.61563   0.75324   0.00000  Uiso   1.00
C951   C     0.14769   0.88323   0.74688   0.00000  Uiso   1.00
C952   C     0.18479   0.59251   0.71159   0.00000  Uiso   1.00
C953   C     0.14241   0.90543   0.78912   0.00000  Uiso   1.00
C954   C     0.18303   0.54578   0.71054   0.00000  Uiso   1.00
C955   C     0.13794   0.95187   0.78971   0.00000  Uiso   1.00
C956   C     0.17002   0.52265   0.75096   0.00000  Uiso   1.00
C957   C     0.14710   0.97596   0.74875   0.00000  Uiso   1.00
C958   C     0.19870   0.61333   0.84414   0.00000  Uiso   1.00
C959   C     0.13530   0.72001   0.54745   0.00000  Uiso   1.00
C960   C     0.24775   0.63559   0.85745   0.00000  Uiso   1.00
C961   C     0.26170   0.65337   0.90336   0.00000  Uiso   1.00
C962   C     0.22665   0.64951   0.93605   0.00000  Uiso   1.00
C963   C     0.17768   0.62758   0.92297   0.00000  Uiso   1.00
C964   C     0.16376   0.60935   0.87724   0.00000  Uiso   1.00
C965   C     0.12018   0.88417   0.65648   0.00000  Uiso   1.00
C966   C     0.14746   0.89407   0.61859   0.00000  Uiso   1.00
C967   C     0.13064   0.87486   0.57368   0.00000  Uiso   1.00
C968   C     0.08640   0.84587   0.56620   0.00000  Uiso   1.00
C969   C     0.05879   0.83619   0.60359   0.00000  Uiso   1.00
C970   C     0.20853   0.76927   0.95383   0.00000  Uiso   1.00
C971   C     0.07558   0.85516   0.64861   0.00000  Uiso   1.00
C972   C     0.20270   0.52354   0.67035   0.00000  Uiso   1.00
C973   C     0.11514   0.97236   0.82923   0.00000  Uiso   1.00
C974   C     0.09746   0.68871   0.61434   0.00000  Uiso   1.00
C975   C     0.04669   0.70221   0.61978   0.00000  Uiso   1.00
C976   C     0.01001   0.67102   0.63277   0.00000  Uiso   1.00
C977   C     0.02313   0.62582   0.63863   0.00000  Uiso   1.00
C978   C     0.07246   0.61166   0.63040   0.00000  Uiso   1.00
C979   C     0.10910   0.64288   0.61740   0.00000  Uiso   1.00
C980   C     0.24941   0.79720   0.88710   0.00000  Uiso   1.00
C981   C     0.13447   0.72062   0.59664   0.00000  Uiso   1.00
C982   C     0.23988   0.84199   0.87384   0.00000  Uiso   1.00
C983   C     0.28000   0.86920   0.86031   0.00000  Uiso   1.00
C984   C     0.33066   0.85238   0.86192   0.00000  Uiso   1.00
C985   C     0.00795   0.80859   0.87772   0.00000  Uiso   1.00
C986   C     0.30095   0.78110   0.89062   0.00000  Uiso   1.00
C987   C     0.20757   0.77021   0.90437   0.00000  Uiso   1.00
C988   C     0.19851   0.77978   0.60726   0.00000  Uiso   1.00
C989   C     0.12559   0.73041   0.89162   0.00000  Uiso   1.00
C990   C     0.19872   0.78112   0.55781   0.00000  Uiso   1.00
H991   H     0.32417   0.75422   0.69456   0.00000  Uiso   1.00
H992   H     0.09322   0.71486   0.86761   0.00000  Uiso   1.00
H993   H     0.22314   0.80663   0.54456   0.00000  Uiso   1.00
H994   H     0.08923   0.71701   0.95269   0.00000  Uiso   1.00
H995   H     0.27542   0.63847   0.83254   0.00000  Uiso   1.00
H996   H     0.29994   0.66964   0.91379   0.00000  Uiso   1.00
H997   H     0.23746   0.66343   0.97153   0.00000  Uiso   1.00
H998   H     0.15056   0.62464   0.94832   0.00000  Uiso   1.00
H999   H     0.12588   0.59217   0.86761   0.00000  Uiso   1.00
H1000  H     0.18162   0.91664   0.62382   0.00000  Uiso   1.00
H1001  H     0.15192   0.88241   0.54466   0.00000  Uiso   1.00
H1002  H     0.00913   0.74433   0.80514   0.00000  Uiso   1.00
H1003  H     0.07345   0.83103   0.53142   0.00000  Uiso   1.00
H1004  H     0.02398   0.81444   0.59754   0.00000  Uiso   1.00
H1005  H     0.05344   0.84779   0.67714   0.00000  Uiso   1.00
H1006  H     0.20798   0.52388   0.60040   0.00000  Uiso   1.00
H1007  H     0.06872   0.52002   0.84982   0.00000  Uiso   1.00
H1008  H     0.03555   0.73684   0.61410   0.00000  Uiso   1.00
H1009  H     0.30461   0.68182   0.63786   0.00000  Uiso   1.00
H1010  H     0.32804   0.60166   0.64857   0.00000  Uiso   1.00
H1011  H     0.08206   0.57644   0.63352   0.00000  Uiso   1.00
H1012  H     0.14628   0.63140   0.60901   0.00000  Uiso   1.00
H1013  H     0.18738   0.52724   0.82804   0.00000  Uiso   1.00
H1014  H     0.20159   0.85592   0.87493   0.00000  Uiso   1.00
H1015  H     0.27201   0.90351   0.84932   0.00000  Uiso   1.00
H1016  H     0.02854   0.87349   0.85175   0.00000  Uiso   1.00
H1017  H     0.04747   0.79602   0.87994   0.00000  Uiso   1.00
H1018  H     0.30988   0.74748   0.90327   0.00000  Uiso   1.00
H1019  H     0.12581   0.97160   0.67205   0.00000  Uiso   1.00
H1020  H     0.19239   0.61092   0.68064   0.00000  Uiso   1.00
H1021  H     0.13903   0.88647   0.82089   0.00000  Uiso   1.00
H1022  H     0.11108   0.69502   0.52593   0.00000  Uiso   1.00
H1023  H     0.24239   0.78412   0.97657   0.00000  Uiso   1.00
H1024  H     0.22326   0.80327   0.63044   0.00000  Uiso   1.00
N1025  N     0.16667   0.74999   0.62624   0.00000  Uiso   1.00
N1026  N     0.16667   0.75001   0.87377   0.00000  Uiso   1.00
O1027  O     0.16667   0.68454   0.78974   0.00000  Uiso   1.00
O1028  O     0.19197   0.54175   0.62464   0.00000  Uiso   1.00
O1029  O     0.12331   0.95602   0.86909   0.00000  Uiso   1.00
O1030  O     0.08265   0.50954   0.82038   0.00000  Uiso   1.00
O1031  O     0.16666   0.81546   0.71026   0.00000  Uiso   1.00
O1032  O     0.16667   0.68453   0.71026   0.00000  Uiso   1.00
O1033  O     0.16666   0.81547   0.78974   0.00000  Uiso   1.00
O1034  O     0.09058   0.75000   0.78045   0.00000  Uiso   1.00
O1035  O     0.24275   0.75000   0.71956   0.00000  Uiso   1.00
O1036  O     0.09058   0.74999   0.70097   0.00000  Uiso   1.00
O1037  O     0.24275   0.75001   0.79904   0.00000  Uiso   1.00
O1038  O     0.22997   0.99027   0.67751   0.00000  Uiso   1.00
Zn1039 Zn    0.16667   0.75001   0.80307   0.00000  Uiso   1.00
Zn1040 Zn    0.16667   0.75000   0.69693   0.00000  Uiso   1.00
C1041  C     0.50425   0.66386   0.75087   0.00000  Uiso   1.00
C1042  C     0.45732   0.73115   0.94083   0.00000  Uiso   1.00
C1043  C     0.50017   0.75069   0.52665   0.00000  Uiso   1.00
C1044  C     0.49964   0.75034   0.97329   0.00000  Uiso   1.00
C1045  C     0.40031   0.74992   0.73742   0.00000  Uiso   1.00
C1046  C     0.59967   0.74973   0.76256   0.00000  Uiso   1.00
C1047  C     0.34512   0.75076   0.73073   0.00000  Uiso   1.00
C1048  C     0.65482   0.74814   0.76908   0.00000  Uiso   1.00
C1049  C     0.51483   0.54526   0.79481   0.00000  Uiso   1.00
C1050  C     0.46826   0.95330   0.70501   0.00000  Uiso   1.00
C1051  C     0.51892   0.59178   0.79662   0.00000  Uiso   1.00
C1052  C     0.49458   0.83588   0.74908   0.00000  Uiso   1.00
C1053  C     0.46896   0.90663   0.70337   0.00000  Uiso   1.00
C1054  C     0.51312   0.61563   0.75324   0.00000  Uiso   1.00
C1055  C     0.48102   0.88323   0.74688   0.00000  Uiso   1.00
C1056  C     0.51812   0.59251   0.71159   0.00000  Uiso   1.00
C1057  C     0.47575   0.90543   0.78912   0.00000  Uiso   1.00
C1058  C     0.51636   0.54578   0.71054   0.00000  Uiso   1.00
C1059  C     0.47128   0.95187   0.78971   0.00000  Uiso   1.00
C1060  C     0.50336   0.52265   0.75096   0.00000  Uiso   1.00
C1061  C     0.48044   0.97596   0.74875   0.00000  Uiso   1.00
C1062  C     0.53203   0.61333   0.84414   0.00000  Uiso   1.00
C1063  C     0.46863   0.72001   0.54745   0.00000  Uiso   1.00
C1064  C     0.58109   0.63559   0.85745   0.00000  Uiso   1.00
C1065  C     0.59503   0.65337   0.90336   0.00000  Uiso   1.00
C1066  C     0.55998   0.64951   0.93605   0.00000  Uiso   1.00
C1067  C     0.51101   0.62758   0.92297   0.00000  Uiso   1.00
C1068  C     0.49709   0.60935   0.87724   0.00000  Uiso   1.00
C1069  C     0.45352   0.88417   0.65648   0.00000  Uiso   1.00
C1070  C     0.48079   0.89407   0.61859   0.00000  Uiso   1.00
C1071  C     0.46397   0.87486   0.57368   0.00000  Uiso   1.00
C1072  C     0.41974   0.84587   0.56620   0.00000  Uiso   1.00
C1073  C     0.39213   0.83619   0.60359   0.00000  Uiso   1.00
C1074  C     0.54186   0.76927   0.95383   0.00000  Uiso   1.00
C1075  C     0.40891   0.85516   0.64861   0.00000  Uiso   1.00
C1076  C     0.53603   0.52354   0.67035   0.00000  Uiso   1.00
C1077  C     0.44847   0.97236   0.82923   0.00000  Uiso   1.00
C1078  C     0.43080   0.68871   0.61434   0.00000  Uiso   1.00
C1079  C     0.38002   0.70221   0.61978   0.00000  Uiso   1.00
C1080  C     0.34334   0.67102   0.63277   0.00000  Uiso   1.00
C1081  C     0.35646   0.62582   0.63863   0.00000  Uiso   1.00
C1082  C     0.40579   0.61166   0.63040   0.00000  Uiso   1.00
C1083  C     0.44244   0.64288   0.61740   0.00000  Uiso   1.00
C1084  C     0.58275   0.79720   0.88710   0.00000  Uiso   1.00
C1085  C     0.46780   0.72062   0.59664   0.00000  Uiso   1.00
C1086  C     0.57321   0.84199   0.87384   0.00000  Uiso   1.00
C1087  C     0.61333   0.86920   0.86031   0.00000  Uiso   1.00
C1088  C     0.66399   0.85238   0.86192   0.00000  Uiso   1.00
C1089  C     0.34129   0.80859   0.87772   0.00000  Uiso   1.00
C1090  C     0.63428   0.78110   0.89062   0.00000  Uiso   1.00
C1091  C     0.54091   0.77021   0.90437   0.00000  Uiso   1.00
C1092  C     0.53184   0.77978   0.60726   0.00000  Uiso   1.00
C1093  C     0.45893   0.73041   0.89162   0.00000  Uiso   1.00
C1094  C     0.53205   0.78112   0.55781   0.00000  Uiso   1.00
H1095  H     0.65751   0.75422   0.69456   0.00000  Uiso   1.00
H1096  H     0.42655   0.71486   0.86761   0.00000  Uiso   1.00
H1097  H     0.55647   0.80663   0.54456   0.00000  Uiso   1.00
H1098  H     0.42256   0.71701   0.95269   0.00000  Uiso   1.00
H1099  H     0.60876   0.63847   0.83254   0.00000  Uiso   1.00
H1100  H     0.63328   0.66964   0.91379   0.00000  Uiso   1.00
H1101  H     0.57079   0.66343   0.97153   0.00000  Uiso   1.00
H1102  H     0.48389   0.62464   0.94832   0.00000  Uiso   1.00
H1103  H     0.45922   0.59217   0.86761   0.00000  Uiso   1.00
H1104  H     0.51496   0.91664   0.62382   0.00000  Uiso   1.00
H1105  H     0.48525   0.88241   0.54466   0.00000  Uiso   1.00
H1106  H     0.34246   0.74433   0.80514   0.00000  Uiso   1.00
H1107  H     0.40679   0.83103   0.53142   0.00000  Uiso   1.00
H1108  H     0.35732   0.81444   0.59754   0.00000  Uiso   1.00
H1109  H     0.38678   0.84779   0.67714   0.00000  Uiso   1.00
H1110  H     0.54131   0.52388   0.60040   0.00000  Uiso   1.00
H1111  H     0.40206   0.52002   0.84982   0.00000  Uiso   1.00
H1112  H     0.36889   0.73684   0.61410   0.00000  Uiso   1.00
H1113  H     0.63794   0.68182   0.63786   0.00000  Uiso   1.00
H1114  H     0.66137   0.60166   0.64857   0.00000  Uiso   1.00
H1115  H     0.41539   0.57644   0.63352   0.00000  Uiso   1.00
H1116  H     0.47961   0.63140   0.60901   0.00000  Uiso   1.00
H1117  H     0.52072   0.52724   0.82804   0.00000  Uiso   1.00
H1118  H     0.53493   0.85592   0.87493   0.00000  Uiso   1.00
H1119  H     0.60534   0.90351   0.84932   0.00000  Uiso   1.00
H1120  H     0.36187   0.87349   0.85175   0.00000  Uiso   1.00
H1121  H     0.38080   0.79602   0.87994   0.00000  Uiso   1.00
H1122  H     0.64321   0.74748   0.90327   0.00000  Uiso   1.00
H1123  H     0.45915   0.97160   0.67205   0.00000  Uiso   1.00
H1124  H     0.52572   0.61092   0.68064   0.00000  Uiso   1.00
H1125  H     0.47237   0.88647   0.82089   0.00000  Uiso   1.00
H1126  H     0.44441   0.69502   0.52593   0.00000  Uiso   1.00
H1127  H     0.57572   0.78412   0.97657   0.00000  Uiso   1.00
H1128  H     0.55660   0.80327   0.63044   0.00000  Uiso   1.00
N1129  N     0.50000   0.74999   0.62624   0.00000  Uiso   1.00
N1130  N     0.50000   0.75001   0.87377   0.00000  Uiso   1.00
O1131  O     0.50000   0.68454   0.78974   0.00000  Uiso   1.00
O1132  O     0.52530   0.54175   0.62464   0.00000  Uiso   1.00
O1133  O     0.45664   0.95602   0.86909   0.00000  Uiso   1.00
O1134  O     0.41599   0.50954   0.82038   0.00000  Uiso   1.00
O1135  O     0.50000   0.81546   0.71026   0.00000  Uiso   1.00
O1136  O     0.50000   0.68453   0.71026   0.00000  Uiso   1.00
O1137  O     0.50000   0.81547   0.78974   0.00000  Uiso   1.00
O1138  O     0.42392   0.75000   0.78045   0.00000  Uiso   1.00
O1139  O     0.57608   0.75000   0.71956   0.00000  Uiso   1.00
O1140  O     0.42392   0.74999   0.70097   0.00000  Uiso   1.00
O1141  O     0.57608   0.75001   0.79904   0.00000  Uiso   1.00
O1142  O     0.56330   0.99027   0.67751   0.00000  Uiso   1.00
Zn1143 Zn    0.50000   0.75001   0.80307   0.00000  Uiso   1.00
Zn1144 Zn    0.50000   0.75000   0.69693   0.00000  Uiso   1.00
C1145  C     0.83759   0.66386   0.75087   0.00000  Uiso   1.00
C1146  C     0.79066   0.73115   0.94083   0.00000  Uiso   1.00
C1147  C     0.83350   0.75069   0.52665   0.00000  Uiso   1.00
C1148  C     0.83298   0.75034   0.97329   0.00000  Uiso   1.00
C1149  C     0.73365   0.74992   0.73742   0.00000  Uiso   1.00
C1150  C     0.93301   0.74973   0.76256   0.00000  Uiso   1.00
C1151  C     0.67845   0.75076   0.73073   0.00000  Uiso   1.00
C1152  C     0.98815   0.74814   0.76908   0.00000  Uiso   1.00
C1153  C     0.84816   0.54526   0.79481   0.00000  Uiso   1.00
C1154  C     0.80159   0.95330   0.70501   0.00000  Uiso   1.00
C1155  C     0.85226   0.59178   0.79662   0.00000  Uiso   1.00
C1156  C     0.82791   0.83588   0.74908   0.00000  Uiso   1.00
C1157  C     0.80230   0.90663   0.70337   0.00000  Uiso   1.00
C1158  C     0.84645   0.61563   0.75324   0.00000  Uiso   1.00
C1159  C     0.81435   0.88323   0.74688   0.00000  Uiso   1.00
C1160  C     0.85146   0.59251   0.71159   0.00000  Uiso   1.00
C1161  C     0.80908   0.90543   0.78912   0.00000  Uiso   1.00
C1162  C     0.84970   0.54578   0.71054   0.00000  Uiso   1.00
C1163  C     0.80461   0.95187   0.78971   0.00000  Uiso   1.00
C1164  C     0.83669   0.52265   0.75096   0.00000  Uiso   1.00
C1165  C     0.81377   0.97596   0.74875   0.00000  Uiso   1.00
C1166  C     0.86536   0.61333   0.84414   0.00000  Uiso   1.00
C1167  C     0.80197   0.72001   0.54745   0.00000  Uiso   1.00
C1168  C     0.91442   0.63559   0.85745   0.00000  Uiso   1.00
C1169  C     0.92836   0.65337   0.90336   0.00000  Uiso   1.00
C1170  C     0.89331   0.64951   0.93605   0.00000  Uiso   1.00
C1171  C     0.84434   0.62758   0.92297   0.00000  Uiso   1.00
C1172  C     0.83042   0.60935   0.87724   0.00000  Uiso   1.00
C1173  C     0.78685   0.88417   0.65648   0.00000  Uiso   1.00
C1174  C     0.81413   0.89407   0.61859   0.00000  Uiso   1.00
C1175  C     0.79730   0.87486   0.57368   0.00000  Uiso   1.00
C1176  C     0.75307   0.84587   0.56620   0.00000  Uiso   1.00
C1177  C     0.72546   0.83619   0.60359   0.00000  Uiso   1.00
C1178  C     0.87519   0.76927   0.95383   0.00000  Uiso   1.00
C1179  C     0.74224   0.85516   0.64861   0.00000  Uiso   1.00
C1180  C     0.86936   0.52354   0.67035   0.00000  Uiso   1.00
C1181  C     0.78180   0.97236   0.82923   0.00000  Uiso   1.00
C1182  C     0.76413   0.68871   0.61434   0.00000  Uiso   1.00
C1183  C     0.71335   0.70221   0.61978   0.00000  Uiso   1.00
C1184  C     0.67668   0.67102   0.63277   0.00000  Uiso   1.00
C1185  C     0.68979   0.62582   0.63863   0.00000  Uiso   1.00
C1186  C     0.73912   0.61166   0.63040   0.00000  Uiso   1.00
C1187  C     0.77577   0.64288   0.61740   0.00000  Uiso   1.00
C1188  C     0.91608   0.79720   0.88710   0.00000  Uiso   1.00
C1189  C     0.80113   0.72062   0.59664   0.00000  Uiso   1.00
C1190  C     0.90655   0.84199   0.87384   0.00000  Uiso   1.00
C1191  C     0.94667   0.86920   0.86031   0.00000  Uiso   1.00
C1192  C     0.99733   0.85238   0.86192   0.00000  Uiso   1.00
C1193  C     0.67462   0.80859   0.87772   0.00000  Uiso   1.00
C1194  C     0.96761   0.78110   0.89062   0.00000  Uiso   1.00
C1195  C     0.87424   0.77021   0.90437   0.00000  Uiso   1.00
C1196  C     0.86517   0.77978   0.60726   0.00000  Uiso   1.00
C1197  C     0.79226   0.73041   0.89162   0.00000  Uiso   1.00
C1198  C     0.86538   0.78112   0.55781   0.00000  Uiso   1.00
H1199  H     0.99084   0.75422   0.69456   0.00000  Uiso   1.00
H1200  H     0.75988   0.71486   0.86761   0.00000  Uiso   1.00
H1201  H     0.88981   0.80663   0.54456   0.00000  Uiso   1.00
H1202  H     0.75590   0.71701   0.95269   0.00000  Uiso   1.00
H1203  H     0.94209   0.63847   0.83254   0.00000  Uiso   1.00
H1204  H     0.96661   0.66964   0.91379   0.00000  Uiso   1.00
H1205  H     0.90413   0.66343   0.97153   0.00000  Uiso   1.00
H1206  H     0.81723   0.62464   0.94832   0.00000  Uiso   1.00
H1207  H     0.79255   0.59217   0.86761   0.00000  Uiso   1.00
H1208  H     0.84829   0.91664   0.62382   0.00000  Uiso   1.00
H1209  H     0.81858   0.88241   0.54466   0.00000  Uiso   1.00
H1210  H     0.67579   0.74433   0.80514   0.00000  Uiso   1.00
H1211  H     0.74012   0.83103   0.53142   0.00000  Uiso   1.00
H1212  H     0.69065   0.81444   0.59754   0.00000  Uiso   1.00
H1213  H     0.72011   0.84779   0.67714   0.00000  Uiso   1.00
H1214  H     0.87465   0.52388   0.60040   0.00000  Uiso   1.00
H1215  H     0.73539   0.52002   0.84982   0.00000  Uiso   1.00
H1216  H     0.70222   0.73684   0.61410   0.00000  Uiso   1.00
H1217  H     0.97128   0.68182   0.63786   0.00000  Uiso   1.00
H1218  H     0.99470   0.60166   0.64857   0.00000  Uiso   1.00
H1219  H     0.74873   0.57644   0.63352   0.00000  Uiso   1.00
H1220  H     0.81294   0.63140   0.60901   0.00000  Uiso   1.00
H1221  H     0.85405   0.52724   0.82804   0.00000  Uiso   1.00
H1222  H     0.86826   0.85592   0.87493   0.00000  Uiso   1.00
H1223  H     0.93867   0.90351   0.84932   0.00000  Uiso   1.00
H1224  H     0.69521   0.87349   0.85175   0.00000  Uiso   1.00
H1225  H     0.71414   0.79602   0.87994   0.00000  Uiso   1.00
H1226  H     0.97655   0.74748   0.90327   0.00000  Uiso   1.00
H1227  H     0.79248   0.97160   0.67205   0.00000  Uiso   1.00
H1228  H     0.85905   0.61092   0.68064   0.00000  Uiso   1.00
H1229  H     0.80570   0.88647   0.82089   0.00000  Uiso   1.00
H1230  H     0.77775   0.69502   0.52593   0.00000  Uiso   1.00
H1231  H     0.90905   0.78412   0.97657   0.00000  Uiso   1.00
H1232  H     0.88993   0.80327   0.63044   0.00000  Uiso   1.00
N1233  N     0.83333   0.74999   0.62624   0.00000  Uiso   1.00
N1234  N     0.83333   0.75001   0.87377   0.00000  Uiso   1.00
O1235  O     0.83334   0.68454   0.78974   0.00000  Uiso   1.00
O1236  O     0.85864   0.54175   0.62464   0.00000  Uiso   1.00
O1237  O     0.78997   0.95602   0.86909   0.00000  Uiso   1.00
O1238  O     0.74932   0.50954   0.82038   0.00000  Uiso   1.00
O1239  O     0.83333   0.81546   0.71026   0.00000  Uiso   1.00
O1240  O     0.83334   0.68453   0.71026   0.00000  Uiso   1.00
O1241  O     0.83333   0.81547   0.78974   0.00000  Uiso   1.00
O1242  O     0.75725   0.75000   0.78045   0.00000  Uiso   1.00
O1243  O     0.90942   0.75000   0.71956   0.00000  Uiso   1.00
O1244  O     0.75725   0.74999   0.70097   0.00000  Uiso   1.00
O1245  O     0.90942   0.75001   0.79904   0.00000  Uiso   1.00
O1246  O     0.89663   0.99027   0.67751   0.00000  Uiso   1.00
Zn1247 Zn    0.83333   0.75001   0.80307   0.00000  Uiso   1.00
Zn1248 Zn    0.83333   0.75000   0.69693   0.00000  Uiso   1.00
loop_
_geom_bond_atom_site_label_1
_geom_bond_atom_site_label_2
_geom_bond_distance
_geom_bond_site_symmetry_2
_ccdc_geom_bond_type
C1     O96     1.300   .     A
C1     O91     1.286   .     A
C1     C14     1.458   .     S
C2     C53     1.408   .     A
C2     C4      1.416   .     A
C2     H58     1.080   .     S
C3     C23     1.400   .     A
C3     C54     1.416   .     A
C3     C628    1.517   1_554 S
C4     C34     1.401   .     A
C4     C627    1.517   .     S
C5     O100    1.283   .     A
C5     C7      1.399   .     S
C5     O98     1.276   .     A
C6     O101    1.283   .     A
C6     C8      1.399   .     S
C6     O99     1.275   .     A
C7     C216    1.333   1_455 S
C7     H263    1.088   1_455 S
C8     C111    1.333   .     S
C8     H170    1.086   .     S
C9     C20     1.402   .     A
C9     H77     1.079   .     S
C9     C11     1.386   .     A
C10    H83     1.081   .     S
C10    C21     1.401   .     A
C10    C13     1.390   .     A
C11    C14     1.414   .     A
C11    C22     1.481   .     S
C12    O95     1.289   .     A
C12    C15     1.458   .     S
C12    O97     1.297   .     A
C13    C29     1.483   .     S
C13    C15     1.415   .     A
C14    C16     1.395   .     A
C15    C17     1.398   .     A
C16    H84     1.080   .     S
C16    C18     1.390   .     A
C17    H85     1.081   .     S
C17    C19     1.389   .     A
C18    C20     1.423   .     A
C18    C36     1.483   .     S
C19    C21     1.418   .     A
C19    C37     1.485   .     S
C20    C333    1.494   1_545 S
C21    C332    1.494   .     S
C22    C24     1.405   .     A
C22    C28     1.405   .     A
C23    C45     1.404   .     A
C23    H86     1.081   .     S
C24    C25     1.398   .     A
C24    H59     1.083   .     S
C25    H60     1.081   .     S
C25    C26     1.397   .     A
C26    H61     1.082   .     S
C26    C27     1.398   .     A
C27    H62     1.082   .     S
C27    C28     1.398   .     A
C28    H63     1.082   .     S
C29    C30     1.405   .     A
C29    C35     1.406   .     A
C30    H64     1.083   .     S
C30    C31     1.399   .     A
C31    C32     1.398   .     A
C31    H65     1.082   .     S
C32    H67     1.083   .     S
C32    C33     1.397   .     A
C33    C35     1.398   .     A
C33    H68     1.082   .     S
C34    C51     1.404   .     A
C34    H87     1.081   .     S
C35    H69     1.083   .     S
C36    O92     1.398   .     S
C36    O414    1.223   1_545 S
C37    O93     1.223   .     D
C37    O406    1.399   .     S
C38    C45     1.473   .     S
C38    C43     1.402   .     A
C38    C39     1.404   .     A
C39    H72     1.081   .     S
C39    C40     1.399   .     A
C40    C41     1.397   .     A
C40    H281    1.083   1_455 S
C41    C42     1.398   .     A
C41    H282    1.083   1_455 S
C42    H75     1.082   .     S
C42    C43     1.399   .     A
C43    H76     1.082   .     S
C44    C46     1.402   .     A
C44    C51     1.473   .     S
C44    C50     1.405   .     A
C45    N89     1.377   .     A
C46    H78     1.080   .     S
C46    C47     1.398   .     A
C47    C48     1.397   .     A
C47    H79     1.082   .     S
C48    C153    1.397   .     S
C48    H184    1.083   .     S
C49    H81     1.081   .     S
C49    C256    1.397   1_455 S
C49    C258    1.400   1_455 S
C50    H82     1.080   .     S
C50    C153    1.400   .     S
C51    N90     1.377   .     A
C52    N89     1.362   .     A
C52    C54     1.409   .     A
C52    H88     1.082   .     S
C53    H56     1.081   .     S
C53    N90     1.362   .     A
C54    H57     1.080   .     S
H55    C111    1.088   .     S
H66    C216    1.086   1_455 S
H70    O92     1.014   .     S
H71    O94     1.014   .     S
H73    C144    1.083   .     S
H74    C145    1.083   .     S
H80    C256    1.083   1_455 S
N89    Zn104   2.012   .     S
N90    Zn103   2.012   .     S
O91    Zn103   1.984   .     S
O94    C349    1.399   1_545 S
O95    Zn104   1.984   .     S
O96    Zn104   1.985   .     S
O97    Zn103   1.985   .     S
O98    Zn103   1.954   .     S
O99    Zn104   1.954   .     S
O100   Zn104   1.973   .     S
O101   Zn103   1.973   .     S
O102   C348    1.223   .     S
C105   O200    1.300   .     A
C105   O195    1.286   .     A
C105   C118    1.458   .     S
C106   C157    1.408   .     A
C106   C108    1.416   .     A
C106   H162    1.080   .     S
C107   C127    1.400   .     A
C107   C158    1.416   .     A
C107   C732    1.517   1_554 S
C108   C138    1.401   .     A
C108   C731    1.517   .     S
C109   O204    1.283   .     A
C109   C111    1.399   .     S
C109   O202    1.276   .     A
C110   O205    1.283   .     A
C110   C112    1.399   .     S
C110   O203    1.275   .     A
C112   C215    1.333   .     S
C112   H274    1.086   .     S
C113   C124    1.402   .     A
C113   H181    1.079   .     S
C113   C115    1.386   .     A
C114   H187    1.081   .     S
C114   C125    1.401   .     A
C114   C117    1.390   .     A
C115   C118    1.414   .     A
C115   C126    1.481   .     S
C116   O199    1.289   .     A
C116   C119    1.458   .     S
C116   O201    1.297   .     A
C117   C133    1.483   .     S
C117   C119    1.415   .     A
C118   C120    1.395   .     A
C119   C121    1.398   .     A
C120   H188    1.080   .     S
C120   C122    1.390   .     A
C121   H189    1.081   .     S
C121   C123    1.389   .     A
C122   C124    1.423   .     A
C122   C140    1.483   .     S
C123   C125    1.418   .     A
C123   C141    1.485   .     S
C124   C437    1.494   1_545 S
C125   C436    1.494   .     S
C126   C128    1.405   .     A
C126   C132    1.405   .     A
C127   C149    1.404   .     A
C127   H190    1.081   .     S
C128   C129    1.398   .     A
C128   H163    1.083   .     S
C129   H164    1.081   .     S
C129   C130    1.397   .     A
C130   H165    1.082   .     S
C130   C131    1.398   .     A
C131   H166    1.082   .     S
C131   C132    1.398   .     A
C132   H167    1.082   .     S
C133   C134    1.405   .     A
C133   C139    1.406   .     A
C134   H168    1.083   .     S
C134   C135    1.399   .     A
C135   C136    1.398   .     A
C135   H169    1.082   .     S
C136   H171    1.083   .     S
C136   C137    1.397   .     A
C137   C139    1.398   .     A
C137   H172    1.082   .     S
C138   C155    1.404   .     A
C138   H191    1.081   .     S
C139   H173    1.083   .     S
C140   O196    1.398   .     S
C140   O518    1.223   1_545 S
C141   O197    1.223   .     D
C141   O510    1.399   .     S
C142   C149    1.473   .     S
C142   C147    1.402   .     A
C142   C143    1.404   .     A
C143   H176    1.081   .     S
C143   C144    1.399   .     A
C144   C145    1.397   .     A
C145   C146    1.398   .     A
C146   H179    1.082   .     S
C146   C147    1.399   .     A
C147   H180    1.082   .     S
C148   C150    1.402   .     A
C148   C155    1.473   .     S
C148   C154    1.405   .     A
C149   N193    1.377   .     A
C150   H182    1.080   .     S
C150   C151    1.398   .     A
C151   C152    1.397   .     A
C151   H183    1.082   .     S
C152   C257    1.397   .     S
C152   H288    1.083   .     S
C153   H185    1.081   .     S
C154   H186    1.080   .     S
C154   C257    1.400   .     S
C155   N194    1.377   .     A
C156   N193    1.362   .     A
C156   C158    1.409   .     A
C156   H192    1.082   .     S
C157   H160    1.081   .     S
C157   N194    1.362   .     A
C158   H161    1.080   .     S
H159   C215    1.088   .     S
H174   O196    1.014   .     S
H175   O198    1.014   .     S
H177   C248    1.083   .     S
H178   C249    1.083   .     S
N193   Zn208   2.012   .     S
N194   Zn207   2.012   .     S
O195   Zn207   1.984   .     S
O198   C453    1.399   1_545 S
O199   Zn208   1.984   .     S
O200   Zn208   1.985   .     S
O201   Zn207   1.985   .     S
O202   Zn207   1.954   .     S
O203   Zn208   1.954   .     S
O204   Zn208   1.973   .     S
O205   Zn207   1.973   .     S
O206   C452    1.223   .     S
C209   O304    1.300   .     A
C209   O299    1.286   .     A
C209   C222    1.458   .     S
C210   C261    1.408   .     A
C210   C212    1.416   .     A
C210   H266    1.080   .     S
C211   C231    1.400   .     A
C211   C262    1.416   .     A
C211   C836    1.517   1_554 S
C212   C242    1.401   .     A
C212   C835    1.517   .     S
C213   O308    1.283   .     A
C213   C215    1.399   .     S
C213   O306    1.276   .     A
C214   O309    1.283   .     A
C214   C216    1.399   .     S
C214   O307    1.275   .     A
C216   C7      1.333   1_655 S
C216   H66     1.086   1_655 S
C217   C228    1.402   .     A
C217   H285    1.079   .     S
C217   C219    1.386   .     A
C218   H291    1.081   .     S
C218   C229    1.401   .     A
C218   C221    1.390   .     A
C219   C222    1.414   .     A
C219   C230    1.481   .     S
C220   O303    1.289   .     A
C220   C223    1.458   .     S
C220   O305    1.297   .     A
C221   C237    1.483   .     S
C221   C223    1.415   .     A
C222   C224    1.395   .     A
C223   C225    1.398   .     A
C224   H292    1.080   .     S
C224   C226    1.390   .     A
C225   H293    1.081   .     S
C225   C227    1.389   .     A
C226   C228    1.423   .     A
C226   C244    1.483   .     S
C227   C229    1.418   .     A
C227   C245    1.485   .     S
C228   C541    1.494   1_545 S
C229   C540    1.494   .     S
C230   C232    1.405   .     A
C230   C236    1.405   .     A
C231   C253    1.404   .     A
C231   H294    1.081   .     S
C232   C233    1.398   .     A
C232   H267    1.083   .     S
C233   H268    1.081   .     S
C233   C234    1.397   .     A
C234   H269    1.082   .     S
C234   C235    1.398   .     A
C235   H270    1.082   .     S
C235   C236    1.398   .     A
C236   H271    1.082   .     S
C237   C238    1.405   .     A
C237   C243    1.406   .     A
C238   H272    1.083   .     S
C238   C239    1.399   .     A
C239   C240    1.398   .     A
C239   H273    1.082   .     S
C240   H275    1.083   .     S
C240   C241    1.397   .     A
C241   C243    1.398   .     A
C241   H276    1.082   .     S
C242   C259    1.404   .     A
C242   H295    1.081   .     S
C243   H277    1.083   .     S
C244   O300    1.398   .     S
C244   O622    1.223   1_545 S
C245   O301    1.223   .     D
C245   O614    1.399   .     S
C246   C253    1.473   .     S
C246   C251    1.402   .     A
C246   C247    1.404   .     A
C247   H280    1.081   .     S
C247   C248    1.399   .     A
C248   C249    1.397   .     A
C249   C250    1.398   .     A
C250   H283    1.082   .     S
C250   C251    1.399   .     A
C251   H284    1.082   .     S
C252   C254    1.402   .     A
C252   C259    1.473   .     S
C252   C258    1.405   .     A
C253   N297    1.377   .     A
C254   H286    1.080   .     S
C254   C255    1.398   .     A
C255   C256    1.397   .     A
C255   H287    1.082   .     S
C256   C49     1.397   1_655 S
C256   H80     1.083   1_655 S
C257   H289    1.081   .     S
C258   H290    1.080   .     S
C258   C49     1.400   1_655 S
C259   N298    1.377   .     A
C260   N297    1.362   .     A
C260   C262    1.409   .     A
C260   H296    1.082   .     S
C261   H264    1.081   .     S
C261   N298    1.362   .     A
C262   H265    1.080   .     S
H263   C7      1.088   1_655 S
H278   O300    1.014   .     S
H279   O302    1.014   .     S
H281   C40     1.083   1_655 S
H282   C41     1.083   1_655 S
N297   Zn312   2.012   .     S
N298   Zn311   2.012   .     S
O299   Zn311   1.984   .     S
O302   C557    1.399   1_545 S
O303   Zn312   1.984   .     S
O304   Zn312   1.985   .     S
O305   Zn311   1.985   .     S
O306   Zn311   1.954   .     S
O307   Zn312   1.954   .     S
O308   Zn312   1.973   .     S
O309   Zn311   1.973   .     S
O310   C556    1.223   .     S
C313   O408    1.300   .     A
C313   O403    1.286   .     A
C313   C326    1.458   .     S
C314   C365    1.408   .     A
C314   C316    1.416   .     A
C314   H370    1.080   .     S
C315   C335    1.400   .     A
C315   C366    1.416   .     A
C315   C940    1.517   1_554 S
C316   C346    1.401   .     A
C316   C939    1.517   .     S
C317   O412    1.283   .     A
C317   C319    1.399   .     S
C317   O410    1.276   .     A
C318   O413    1.283   .     A
C318   C320    1.399   .     S
C318   O411    1.275   .     A
C319   C528    1.333   1_455 S
C319   H575    1.088   1_455 S
C320   C423    1.333   .     S
C320   H482    1.086   .     S
C321   C332    1.402   .     A
C321   H389    1.079   .     S
C321   C323    1.386   .     A
C322   H395    1.081   .     S
C322   C333    1.401   .     A
C322   C325    1.390   .     A
C323   C326    1.414   .     A
C323   C334    1.481   .     S
C324   O407    1.289   .     A
C324   C327    1.458   .     S
C324   O409    1.297   .     A
C325   C341    1.483   .     S
C325   C327    1.415   .     A
C326   C328    1.395   .     A
C327   C329    1.398   .     A
C328   H396    1.080   .     S
C328   C330    1.390   .     A
C329   H397    1.081   .     S
C329   C331    1.389   .     A
C330   C332    1.423   .     A
C330   C348    1.483   .     S
C331   C333    1.418   .     A
C331   C349    1.485   .     S
C333   C20     1.494   1_565 S
C334   C336    1.405   .     A
C334   C340    1.405   .     A
C335   C357    1.404   .     A
C335   H398    1.081   .     S
C336   C337    1.398   .     A
C336   H371    1.083   .     S
C337   H372    1.081   .     S
C337   C338    1.397   .     A
C338   H373    1.082   .     S
C338   C339    1.398   .     A
C339   H374    1.082   .     S
C339   C340    1.398   .     A
C340   H375    1.082   .     S
C341   C342    1.405   .     A
C341   C347    1.406   .     A
C342   H376    1.083   .     S
C342   C343    1.399   .     A
C343   C344    1.398   .     A
C343   H377    1.082   .     S
C344   H379    1.083   .     S
C344   C345    1.397   .     A
C345   C347    1.398   .     A
C345   H380    1.082   .     S
C346   C363    1.404   .     A
C346   H399    1.081   .     S
C347   H381    1.083   .     S
C348   O404    1.398   .     S
C349   O405    1.223   .     D
C349   O94     1.399   1_565 S
C350   C357    1.473   .     S
C350   C355    1.402   .     A
C350   C351    1.404   .     A
C351   H384    1.081   .     S
C351   C352    1.399   .     A
C352   C353    1.397   .     A
C352   H593    1.083   1_455 S
C353   C354    1.398   .     A
C353   H594    1.083   1_455 S
C354   H387    1.082   .     S
C354   C355    1.399   .     A
C355   H388    1.082   .     S
C356   C358    1.402   .     A
C356   C363    1.473   .     S
C356   C362    1.405   .     A
C357   N401    1.377   .     A
C358   H390    1.080   .     S
C358   C359    1.398   .     A
C359   C360    1.397   .     A
C359   H391    1.082   .     S
C360   C465    1.397   .     S
C360   H496    1.083   .     S
C361   H393    1.081   .     S
C361   C568    1.397   1_455 S
C361   C570    1.400   1_455 S
C362   H394    1.080   .     S
C362   C465    1.400   .     S
C363   N402    1.377   .     A
C364   N401    1.362   .     A
C364   C366    1.409   .     A
C364   H400    1.082   .     S
C365   H368    1.081   .     S
C365   N402    1.362   .     A
C366   H369    1.080   .     S
H367   C423    1.088   .     S
H378   C528    1.086   1_455 S
H382   O404    1.014   .     S
H383   O406    1.014   .     S
H385   C456    1.083   .     S
H386   C457    1.083   .     S
H392   C568    1.083   1_455 S
N401   Zn416   2.012   .     S
N402   Zn415   2.012   .     S
O403   Zn415   1.984   .     S
O407   Zn416   1.984   .     S
O408   Zn416   1.985   .     S
O409   Zn415   1.985   .     S
O410   Zn415   1.954   .     S
O411   Zn416   1.954   .     S
O412   Zn416   1.973   .     S
O413   Zn415   1.973   .     S
O414   C36     1.223   1_565 S
C417   O512    1.300   .     A
C417   O507    1.286   .     A
C417   C430    1.458   .     S
C418   C469    1.408   .     A
C418   C420    1.416   .     A
C418   H474    1.080   .     S
C419   C439    1.400   .     A
C419   C470    1.416   .     A
C419   C1044   1.517   1_554 S
C420   C450    1.401   .     A
C420   C1043   1.517   .     S
C421   O516    1.283   .     A
C421   C423    1.399   .     S
C421   O514    1.276   .     A
C422   O517    1.283   .     A
C422   C424    1.399   .     S
C422   O515    1.275   .     A
C424   C527    1.333   .     S
C424   H586    1.086   .     S
C425   C436    1.402   .     A
C425   H493    1.079   .     S
C425   C427    1.386   .     A
C426   H499    1.081   .     S
C426   C437    1.401   .     A
C426   C429    1.390   .     A
C427   C430    1.414   .     A
C427   C438    1.481   .     S
C428   O511    1.289   .     A
C428   C431    1.458   .     S
C428   O513    1.297   .     A
C429   C445    1.483   .     S
C429   C431    1.415   .     A
C430   C432    1.395   .     A
C431   C433    1.398   .     A
C432   H500    1.080   .     S
C432   C434    1.390   .     A
C433   H501    1.081   .     S
C433   C435    1.389   .     A
C434   C436    1.423   .     A
C434   C452    1.483   .     S
C435   C437    1.418   .     A
C435   C453    1.485   .     S
C437   C124    1.494   1_565 S
C438   C440    1.405   .     A
C438   C444    1.405   .     A
C439   C461    1.404   .     A
C439   H502    1.081   .     S
C440   C441    1.398   .     A
C440   H475    1.083   .     S
C441   H476    1.081   .     S
C441   C442    1.397   .     A
C442   H477    1.082   .     S
C442   C443    1.398   .     A
C443   H478    1.082   .     S
C443   C444    1.398   .     A
C444   H479    1.082   .     S
C445   C446    1.405   .     A
C445   C451    1.406   .     A
C446   H480    1.083   .     S
C446   C447    1.399   .     A
C447   C448    1.398   .     A
C447   H481    1.082   .     S
C448   H483    1.083   .     S
C448   C449    1.397   .     A
C449   C451    1.398   .     A
C449   H484    1.082   .     S
C450   C467    1.404   .     A
C450   H503    1.081   .     S
C451   H485    1.083   .     S
C452   O508    1.398   .     S
C453   O509    1.223   .     D
C453   O198    1.399   1_565 S
C454   C461    1.473   .     S
C454   C459    1.402   .     A
C454   C455    1.404   .     A
C455   H488    1.081   .     S
C455   C456    1.399   .     A
C456   C457    1.397   .     A
C457   C458    1.398   .     A
C458   H491    1.082   .     S
C458   C459    1.399   .     A
C459   H492    1.082   .     S
C460   C462    1.402   .     A
C460   C467    1.473   .     S
C460   C466    1.405   .     A
C461   N505    1.377   .     A
C462   H494    1.080   .     S
C462   C463    1.398   .     A
C463   C464    1.397   .     A
C463   H495    1.082   .     S
C464   C569    1.397   .     S
C464   H600    1.083   .     S
C465   H497    1.081   .     S
C466   H498    1.080   .     S
C466   C569    1.400   .     S
C467   N506    1.377   .     A
C468   N505    1.362   .     A
C468   C470    1.409   .     A
C468   H504    1.082   .     S
C469   H472    1.081   .     S
C469   N506    1.362   .     A
C470   H473    1.080   .     S
H471   C527    1.088   .     S
H486   O508    1.014   .     S
H487   O510    1.014   .     S
H489   C560    1.083   .     S
H490   C561    1.083   .     S
N505   Zn520   2.012   .     S
N506   Zn519   2.012   .     S
O507   Zn519   1.984   .     S
O511   Zn520   1.984   .     S
O512   Zn520   1.985   .     S
O513   Zn519   1.985   .     S
O514   Zn519   1.954   .     S
O515   Zn520   1.954   .     S
O516   Zn520   1.973   .     S
O517   Zn519   1.973   .     S
O518   C140    1.223   1_565 S
C521   O616    1.300   .     A
C521   O611    1.286   .     A
C521   C534    1.458   .     S
C522   C573    1.408   .     A
C522   C524    1.416   .     A
C522   H578    1.080   .     S
C523   C543    1.400   .     A
C523   C574    1.416   .     A
C523   C1148   1.517   1_554 S
C524   C554    1.401   .     A
C524   C1147   1.517   .     S
C525   O620    1.283   .     A
C525   C527    1.399   .     S
C525   O618    1.276   .     A
C526   O621    1.283   .     A
C526   C528    1.399   .     S
C526   O619    1.275   .     A
C528   C319    1.333   1_655 S
C528   H378    1.086   1_655 S
C529   C540    1.402   .     A
C529   H597    1.079   .     S
C529   C531    1.386   .     A
C530   H603    1.081   .     S
C530   C541    1.401   .     A
C530   C533    1.390   .     A
C531   C534    1.414   .     A
C531   C542    1.481   .     S
C532   O615    1.289   .     A
C532   C535    1.458   .     S
C532   O617    1.297   .     A
C533   C549    1.483   .     S
C533   C535    1.415   .     A
C534   C536    1.395   .     A
C535   C537    1.398   .     A
C536   H604    1.080   .     S
C536   C538    1.390   .     A
C537   H605    1.081   .     S
C537   C539    1.389   .     A
C538   C540    1.423   .     A
C538   C556    1.483   .     S
C539   C541    1.418   .     A
C539   C557    1.485   .     S
C541   C228    1.494   1_565 S
C542   C544    1.405   .     A
C542   C548    1.405   .     A
C543   C565    1.404   .     A
C543   H606    1.081   .     S
C544   C545    1.398   .     A
C544   H579    1.083   .     S
C545   H580    1.081   .     S
C545   C546    1.397   .     A
C546   H581    1.082   .     S
C546   C547    1.398   .     A
C547   H582    1.082   .     S
C547   C548    1.398   .     A
C548   H583    1.082   .     S
C549   C550    1.405   .     A
C549   C555    1.406   .     A
C550   H584    1.083   .     S
C550   C551    1.399   .     A
C551   C552    1.398   .     A
C551   H585    1.082   .     S
C552   H587    1.083   .     S
C552   C553    1.397   .     A
C553   C555    1.398   .     A
C553   H588    1.082   .     S
C554   C571    1.404   .     A
C554   H607    1.081   .     S
C555   H589    1.083   .     S
C556   O612    1.398   .     S
C557   O613    1.223   .     D
C557   O302    1.399   1_565 S
C558   C565    1.473   .     S
C558   C563    1.402   .     A
C558   C559    1.404   .     A
C559   H592    1.081   .     S
C559   C560    1.399   .     A
C560   C561    1.397   .     A
C561   C562    1.398   .     A
C562   H595    1.082   .     S
C562   C563    1.399   .     A
C563   H596    1.082   .     S
C564   C566    1.402   .     A
C564   C571    1.473   .     S
C564   C570    1.405   .     A
C565   N609    1.377   .     A
C566   H598    1.080   .     S
C566   C567    1.398   .     A
C567   C568    1.397   .     A
C567   H599    1.082   .     S
C568   C361    1.397   1_655 S
C568   H392    1.083   1_655 S
C569   H601    1.081   .     S
C570   H602    1.080   .     S
C570   C361    1.400   1_655 S
C571   N610    1.377   .     A
C572   N609    1.362   .     A
C572   C574    1.409   .     A
C572   H608    1.082   .     S
C573   H576    1.081   .     S
C573   N610    1.362   .     A
C574   H577    1.080   .     S
H575   C319    1.088   1_655 S
H590   O612    1.014   .     S
H591   O614    1.014   .     S
H593   C352    1.083   1_655 S
H594   C353    1.083   1_655 S
N609   Zn624   2.012   .     S
N610   Zn623   2.012   .     S
O611   Zn623   1.984   .     S
O615   Zn624   1.984   .     S
O616   Zn624   1.985   .     S
O617   Zn623   1.985   .     S
O618   Zn623   1.954   .     S
O619   Zn624   1.954   .     S
O620   Zn624   1.973   .     S
O621   Zn623   1.973   .     S
O622   C244    1.223   1_565 S
C625   O720    1.300   .     A
C625   O715    1.286   .     A
C625   C638    1.458   .     S
C626   C677    1.408   .     A
C626   C628    1.416   .     A
C626   H682    1.080   .     S
C627   C647    1.400   .     A
C627   C678    1.416   .     A
C628   C658    1.401   .     A
C628   C3      1.517   1_556 S
C629   O724    1.283   .     A
C629   C631    1.399   .     S
C629   O722    1.276   .     A
C630   O725    1.283   .     A
C630   C632    1.399   .     S
C630   O723    1.275   .     A
C631   C840    1.333   1_455 S
C631   H887    1.088   1_455 S
C632   C735    1.333   .     S
C632   H794    1.086   .     S
C633   C644    1.402   .     A
C633   H701    1.079   .     S
C633   C635    1.386   .     A
C634   H707    1.081   .     S
C634   C645    1.401   .     A
C634   C637    1.390   .     A
C635   C638    1.414   .     A
C635   C646    1.481   .     S
C636   O719    1.289   .     A
C636   C639    1.458   .     S
C636   O721    1.297   .     A
C637   C653    1.483   .     S
C637   C639    1.415   .     A
C638   C640    1.395   .     A
C639   C641    1.398   .     A
C640   H708    1.080   .     S
C640   C642    1.390   .     A
C641   H709    1.081   .     S
C641   C643    1.389   .     A
C642   C644    1.423   .     A
C642   C660    1.483   .     S
C643   C645    1.418   .     A
C643   C661    1.485   .     S
C644   C957    1.494   1_545 S
C645   C956    1.494   .     S
C646   C648    1.405   .     A
C646   C652    1.405   .     A
C647   C669    1.404   .     A
C647   H710    1.081   .     S
C648   C649    1.398   .     A
C648   H683    1.083   .     S
C649   H684    1.081   .     S
C649   C650    1.397   .     A
C650   H685    1.082   .     S
C650   C651    1.398   .     A
C651   H686    1.082   .     S
C651   C652    1.398   .     A
C652   H687    1.082   .     S
C653   C654    1.405   .     A
C653   C659    1.406   .     A
C654   H688    1.083   .     S
C654   C655    1.399   .     A
C655   C656    1.398   .     A
C655   H689    1.082   .     S
C656   H691    1.083   .     S
C656   C657    1.397   .     A
C657   C659    1.398   .     A
C657   H692    1.082   .     S
C658   C675    1.404   .     A
C658   H711    1.081   .     S
C659   H693    1.083   .     S
C660   O716    1.398   .     S
C660   O1038   1.223   1_545 S
C661   O717    1.223   .     D
C661   O1030   1.399   .     S
C662   C669    1.473   .     S
C662   C667    1.402   .     A
C662   C663    1.404   .     A
C663   H696    1.081   .     S
C663   C664    1.399   .     A
C664   C665    1.397   .     A
C664   H905    1.083   1_455 S
C665   C666    1.398   .     A
C665   H906    1.083   1_455 S
C666   H699    1.082   .     S
C666   C667    1.399   .     A
C667   H700    1.082   .     S
C668   C670    1.402   .     A
C668   C675    1.473   .     S
C668   C674    1.405   .     A
C669   N713    1.377   .     A
C670   H702    1.080   .     S
C670   C671    1.398   .     A
C671   C672    1.397   .     A
C671   H703    1.082   .     S
C672   C777    1.397   .     S
C672   H808    1.083   .     S
C673   H705    1.081   .     S
C673   C880    1.397   1_455 S
C673   C882    1.400   1_455 S
C674   H706    1.080   .     S
C674   C777    1.400   .     S
C675   N714    1.377   .     A
C676   N713    1.362   .     A
C676   C678    1.409   .     A
C676   H712    1.082   .     S
C677   H680    1.081   .     S
C677   N714    1.362   .     A
C678   H681    1.080   .     S
H679   C735    1.088   .     S
H690   C840    1.086   1_455 S
H694   O716    1.014   .     S
H695   O718    1.014   .     S
H697   C768    1.083   .     S
H698   C769    1.083   .     S
H704   C880    1.083   1_455 S
N713   Zn728   2.012   .     S
N714   Zn727   2.012   .     S
O715   Zn727   1.984   .     S
O718   C973    1.399   1_545 S
O719   Zn728   1.984   .     S
O720   Zn728   1.985   .     S
O721   Zn727   1.985   .     S
O722   Zn727   1.954   .     S
O723   Zn728   1.954   .     S
O724   Zn728   1.973   .     S
O725   Zn727   1.973   .     S
O726   C972    1.223   .     S
C729   O824    1.300   .     A
C729   O819    1.286   .     A
C729   C742    1.458   .     S
C730   C781    1.408   .     A
C730   C732    1.416   .     A
C730   H786    1.080   .     S
C731   C751    1.400   .     A
C731   C782    1.416   .     A
C732   C762    1.401   .     A
C732   C107    1.517   1_556 S
C733   O828    1.283   .     A
C733   C735    1.399   .     S
C733   O826    1.276   .     A
C734   O829    1.283   .     A
C734   C736    1.399   .     S
C734   O827    1.275   .     A
C736   C839    1.333   .     S
C736   H898    1.086   .     S
C737   C748    1.402   .     A
C737   H805    1.079   .     S
C737   C739    1.386   .     A
C738   H811    1.081   .     S
C738   C749    1.401   .     A
C738   C741    1.390   .     A
C739   C742    1.414   .     A
C739   C750    1.481   .     S
C740   O823    1.289   .     A
C740   C743    1.458   .     S
C740   O825    1.297   .     A
C741   C757    1.483   .     S
C741   C743    1.415   .     A
C742   C744    1.395   .     A
C743   C745    1.398   .     A
C744   H812    1.080   .     S
C744   C746    1.390   .     A
C745   H813    1.081   .     S
C745   C747    1.389   .     A
C746   C748    1.423   .     A
C746   C764    1.483   .     S
C747   C749    1.418   .     A
C747   C765    1.485   .     S
C748   C1061   1.494   1_545 S
C749   C1060   1.494   .     S
C750   C752    1.405   .     A
C750   C756    1.405   .     A
C751   C773    1.404   .     A
C751   H814    1.081   .     S
C752   C753    1.398   .     A
C752   H787    1.083   .     S
C753   H788    1.081   .     S
C753   C754    1.397   .     A
C754   H789    1.082   .     S
C754   C755    1.398   .     A
C755   H790    1.082   .     S
C755   C756    1.398   .     A
C756   H791    1.082   .     S
C757   C758    1.405   .     A
C757   C763    1.406   .     A
C758   H792    1.083   .     S
C758   C759    1.399   .     A
C759   C760    1.398   .     A
C759   H793    1.082   .     S
C760   H795    1.083   .     S
C760   C761    1.397   .     A
C761   C763    1.398   .     A
C761   H796    1.082   .     S
C762   C779    1.404   .     A
C762   H815    1.081   .     S
C763   H797    1.083   .     S
C764   O820    1.398   .     S
C764   O1142   1.223   1_545 S
C765   O821    1.223   .     D
C765   O1134   1.399   .     S
C766   C773    1.473   .     S
C766   C771    1.402   .     A
C766   C767    1.404   .     A
C767   H800    1.081   .     S
C767   C768    1.399   .     A
C768   C769    1.397   .     A
C769   C770    1.398   .     A
C770   H803    1.082   .     S
C770   C771    1.399   .     A
C771   H804    1.082   .     S
C772   C774    1.402   .     A
C772   C779    1.473   .     S
C772   C778    1.405   .     A
C773   N817    1.377   .     A
C774   H806    1.080   .     S
C774   C775    1.398   .     A
C775   C776    1.397   .     A
C775   H807    1.082   .     S
C776   C881    1.397   .     S
C776   H912    1.083   .     S
C777   H809    1.081   .     S
C778   H810    1.080   .     S
C778   C881    1.400   .     S
C779   N818    1.377   .     A
C780   N817    1.362   .     A
C780   C782    1.409   .     A
C780   H816    1.082   .     S
C781   H784    1.081   .     S
C781   N818    1.362   .     A
C782   H785    1.080   .     S
H783   C839    1.088   .     S
H798   O820    1.014   .     S
H799   O822    1.014   .     S
H801   C872    1.083   .     S
H802   C873    1.083   .     S
N817   Zn832   2.012   .     S
N818   Zn831   2.012   .     S
O819   Zn831   1.984   .     S
O822   C1077   1.399   1_545 S
O823   Zn832   1.984   .     S
O824   Zn832   1.985   .     S
O825   Zn831   1.985   .     S
O826   Zn831   1.954   .     S
O827   Zn832   1.954   .     S
O828   Zn832   1.973   .     S
O829   Zn831   1.973   .     S
O830   C1076   1.223   .     S
C833   O928    1.300   .     A
C833   O923    1.286   .     A
C833   C846    1.458   .     S
C834   C885    1.408   .     A
C834   C836    1.416   .     A
C834   H890    1.080   .     S
C835   C855    1.400   .     A
C835   C886    1.416   .     A
C836   C866    1.401   .     A
C836   C211    1.517   1_556 S
C837   O932    1.283   .     A
C837   C839    1.399   .     S
C837   O930    1.276   .     A
C838   O933    1.283   .     A
C838   C840    1.399   .     S
C838   O931    1.275   .     A
C840   C631    1.333   1_655 S
C840   H690    1.086   1_655 S
C841   C852    1.402   .     A
C841   H909    1.079   .     S
C841   C843    1.386   .     A
C842   H915    1.081   .     S
C842   C853    1.401   .     A
C842   C845    1.390   .     A
C843   C846    1.414   .     A
C843   C854    1.481   .     S
C844   O927    1.289   .     A
C844   C847    1.458   .     S
C844   O929    1.297   .     A
C845   C861    1.483   .     S
C845   C847    1.415   .     A
C846   C848    1.395   .     A
C847   C849    1.398   .     A
C848   H916    1.080   .     S
C848   C850    1.390   .     A
C849   H917    1.081   .     S
C849   C851    1.389   .     A
C850   C852    1.423   .     A
C850   C868    1.483   .     S
C851   C853    1.418   .     A
C851   C869    1.485   .     S
C852   C1165   1.494   1_545 S
C853   C1164   1.494   .     S
C854   C856    1.405   .     A
C854   C860    1.405   .     A
C855   C877    1.404   .     A
C855   H918    1.081   .     S
C856   C857    1.398   .     A
C856   H891    1.083   .     S
C857   H892    1.081   .     S
C857   C858    1.397   .     A
C858   H893    1.082   .     S
C858   C859    1.398   .     A
C859   H894    1.082   .     S
C859   C860    1.398   .     A
C860   H895    1.082   .     S
C861   C862    1.405   .     A
C861   C867    1.406   .     A
C862   H896    1.083   .     S
C862   C863    1.399   .     A
C863   C864    1.398   .     A
C863   H897    1.082   .     S
C864   H899    1.083   .     S
C864   C865    1.397   .     A
C865   C867    1.398   .     A
C865   H900    1.082   .     S
C866   C883    1.404   .     A
C866   H919    1.081   .     S
C867   H901    1.083   .     S
C868   O924    1.398   .     S
C868   O1246   1.223   1_545 S
C869   O925    1.223   .     D
C869   O1238   1.399   .     S
C870   C877    1.473   .     S
C870   C875    1.402   .     A
C870   C871    1.404   .     A
C871   H904    1.081   .     S
C871   C872    1.399   .     A
C872   C873    1.397   .     A
C873   C874    1.398   .     A
C874   H907    1.082   .     S
C874   C875    1.399   .     A
C875   H908    1.082   .     S
C876   C878    1.402   .     A
C876   C883    1.473   .     S
C876   C882    1.405   .     A
C877   N921    1.377   .     A
C878   H910    1.080   .     S
C878   C879    1.398   .     A
C879   C880    1.397   .     A
C879   H911    1.082   .     S
C880   C673    1.397   1_655 S
C880   H704    1.083   1_655 S
C881   H913    1.081   .     S
C882   H914    1.080   .     S
C882   C673    1.400   1_655 S
C883   N922    1.377   .     A
C884   N921    1.362   .     A
C884   C886    1.409   .     A
C884   H920    1.082   .     S
C885   H888    1.081   .     S
C885   N922    1.362   .     A
C886   H889    1.080   .     S
H887   C631    1.088   1_655 S
H902   O924    1.014   .     S
H903   O926    1.014   .     S
H905   C664    1.083   1_655 S
H906   C665    1.083   1_655 S
N921   Zn936   2.012   .     S
N922   Zn935   2.012   .     S
O923   Zn935   1.984   .     S
O926   C1181   1.399   1_545 S
O927   Zn936   1.984   .     S
O928   Zn936   1.985   .     S
O929   Zn935   1.985   .     S
O930   Zn935   1.954   .     S
O931   Zn936   1.954   .     S
O932   Zn936   1.973   .     S
O933   Zn935   1.973   .     S
O934   C1180   1.223   .     S
C937   O1032   1.300   .     A
C937   O1027   1.286   .     A
C937   C950    1.458   .     S
C938   C989    1.408   .     A
C938   C940    1.416   .     A
C938   H994    1.080   .     S
C939   C959    1.400   .     A
C939   C990    1.416   .     A
C940   C970    1.401   .     A
C940   C315    1.517   1_556 S
C941   O1036   1.283   .     A
C941   C943    1.399   .     S
C941   O1034   1.276   .     A
C942   O1037   1.283   .     A
C942   C944    1.399   .     S
C942   O1035   1.275   .     A
C943   C1152   1.333   1_455 S
C943   H1199   1.088   1_455 S
C944   C1047   1.333   .     S
C944   H1106   1.086   .     S
C945   C956    1.402   .     A
C945   H1013   1.079   .     S
C945   C947    1.386   .     A
C946   H1019   1.081   .     S
C946   C957    1.401   .     A
C946   C949    1.390   .     A
C947   C950    1.414   .     A
C947   C958    1.481   .     S
C948   O1031   1.289   .     A
C948   C951    1.458   .     S
C948   O1033   1.297   .     A
C949   C965    1.483   .     S
C949   C951    1.415   .     A
C950   C952    1.395   .     A
C951   C953    1.398   .     A
C952   H1020   1.080   .     S
C952   C954    1.390   .     A
C953   H1021   1.081   .     S
C953   C955    1.389   .     A
C954   C956    1.423   .     A
C954   C972    1.483   .     S
C955   C957    1.418   .     A
C955   C973    1.485   .     S
C957   C644    1.494   1_565 S
C958   C960    1.405   .     A
C958   C964    1.405   .     A
C959   C981    1.404   .     A
C959   H1022   1.081   .     S
C960   C961    1.398   .     A
C960   H995    1.083   .     S
C961   H996    1.081   .     S
C961   C962    1.397   .     A
C962   H997    1.082   .     S
C962   C963    1.398   .     A
C963   H998    1.082   .     S
C963   C964    1.398   .     A
C964   H999    1.082   .     S
C965   C966    1.405   .     A
C965   C971    1.406   .     A
C966   H1000   1.083   .     S
C966   C967    1.399   .     A
C967   C968    1.398   .     A
C967   H1001   1.082   .     S
C968   H1003   1.083   .     S
C968   C969    1.397   .     A
C969   C971    1.398   .     A
C969   H1004   1.082   .     S
C970   C987    1.404   .     A
C970   H1023   1.081   .     S
C971   H1005   1.083   .     S
C972   O1028   1.398   .     S
C973   O1029   1.223   .     D
C973   O718    1.399   1_565 S
C974   C981    1.473   .     S
C974   C979    1.402   .     A
C974   C975    1.404   .     A
C975   H1008   1.081   .     S
C975   C976    1.399   .     A
C976   C977    1.397   .     A
C976   H1217   1.083   1_455 S
C977   C978    1.398   .     A
C977   H1218   1.083   1_455 S
C978   H1011   1.082   .     S
C978   C979    1.399   .     A
C979   H1012   1.082   .     S
C980   C982    1.402   .     A
C980   C987    1.473   .     S
C980   C986    1.405   .     A
C981   N1025   1.377   .     A
C982   H1014   1.080   .     S
C982   C983    1.398   .     A
C983   C984    1.397   .     A
C983   H1015   1.082   .     S
C984   C1089   1.397   .     S
C984   H1120   1.083   .     S
C985   H1017   1.081   .     S
C985   C1192   1.397   1_455 S
C985   C1194   1.400   1_455 S
C986   H1018   1.080   .     S
C986   C1089   1.400   .     S
C987   N1026   1.377   .     A
C988   N1025   1.362   .     A
C988   C990    1.409   .     A
C988   H1024   1.082   .     S
C989   H992    1.081   .     S
C989   N1026   1.362   .     A
C990   H993    1.080   .     S
H991   C1047   1.088   .     S
H1002  C1152   1.086   1_455 S
H1006  O1028   1.014   .     S
H1007  O1030   1.014   .     S
H1009  C1080   1.083   .     S
H1010  C1081   1.083   .     S
H1016  C1192   1.083   1_455 S
N1025  Zn1040  2.012   .     S
N1026  Zn1039  2.012   .     S
O1027  Zn1039  1.984   .     S
O1031  Zn1040  1.984   .     S
O1032  Zn1040  1.985   .     S
O1033  Zn1039  1.985   .     S
O1034  Zn1039  1.954   .     S
O1035  Zn1040  1.954   .     S
O1036  Zn1040  1.973   .     S
O1037  Zn1039  1.973   .     S
O1038  C660    1.223   1_565 S
C1041  O1136   1.300   .     A
C1041  O1131   1.286   .     A
C1041  C1054   1.458   .     S
C1042  C1093   1.408   .     A
C1042  C1044   1.416   .     A
C1042  H1098   1.080   .     S
C1043  C1063   1.400   .     A
C1043  C1094   1.416   .     A
C1044  C1074   1.401   .     A
C1044  C419    1.517   1_556 S
C1045  O1140   1.283   .     A
C1045  C1047   1.399   .     S
C1045  O1138   1.276   .     A
C1046  O1141   1.283   .     A
C1046  C1048   1.399   .     S
C1046  O1139   1.275   .     A
C1048  C1151   1.333   .     S
C1048  H1210   1.086   .     S
C1049  C1060   1.402   .     A
C1049  H1117   1.079   .     S
C1049  C1051   1.386   .     A
C1050  H1123   1.081   .     S
C1050  C1061   1.401   .     A
C1050  C1053   1.390   .     A
C1051  C1054   1.414   .     A
C1051  C1062   1.481   .     S
C1052  O1135   1.289   .     A
C1052  C1055   1.458   .     S
C1052  O1137   1.297   .     A
C1053  C1069   1.483   .     S
C1053  C1055   1.415   .     A
C1054  C1056   1.395   .     A
C1055  C1057   1.398   .     A
C1056  H1124   1.080   .     S
C1056  C1058   1.390   .     A
C1057  H1125   1.081   .     S
C1057  C1059   1.389   .     A
C1058  C1060   1.423   .     A
C1058  C1076   1.483   .     S
C1059  C1061   1.418   .     A
C1059  C1077   1.485   .     S
C1061  C748    1.494   1_565 S
C1062  C1064   1.405   .     A
C1062  C1068   1.405   .     A
C1063  C1085   1.404   .     A
C1063  H1126   1.081   .     S
C1064  C1065   1.398   .     A
C1064  H1099   1.083   .     S
C1065  H1100   1.081   .     S
C1065  C1066   1.397   .     A
C1066  H1101   1.082   .     S
C1066  C1067   1.398   .     A
C1067  H1102   1.082   .     S
C1067  C1068   1.398   .     A
C1068  H1103   1.082   .     S
C1069  C1070   1.405   .     A
C1069  C1075   1.406   .     A
C1070  H1104   1.083   .     S
C1070  C1071   1.399   .     A
C1071  C1072   1.398   .     A
C1071  H1105   1.082   .     S
C1072  H1107   1.083   .     S
C1072  C1073   1.397   .     A
C1073  C1075   1.398   .     A
C1073  H1108   1.082   .     S
C1074  C1091   1.404   .     A
C1074  H1127   1.081   .     S
C1075  H1109   1.083   .     S
C1076  O1132   1.398   .     S
C1077  O1133   1.223   .     D
C1077  O822    1.399   1_565 S
C1078  C1085   1.473   .     S
C1078  C1083   1.402   .     A
C1078  C1079   1.404   .     A
C1079  H1112   1.081   .     S
C1079  C1080   1.399   .     A
C1080  C1081   1.397   .     A
C1081  C1082   1.398   .     A
C1082  H1115   1.082   .     S
C1082  C1083   1.399   .     A
C1083  H1116   1.082   .     S
C1084  C1086   1.402   .     A
C1084  C1091   1.473   .     S
C1084  C1090   1.405   .     A
C1085  N1129   1.377   .     A
C1086  H1118   1.080   .     S
C1086  C1087   1.398   .     A
C1087  C1088   1.397   .     A
C1087  H1119   1.082   .     S
C1088  C1193   1.397   .     S
C1088  H1224   1.083   .     S
C1089  H1121   1.081   .     S
C1090  H1122   1.080   .     S
C1090  C1193   1.400   .     S
C1091  N1130   1.377   .     A
C1092  N1129   1.362   .     A
C1092  C1094   1.409   .     A
C1092  H1128   1.082   .     S
C1093  H1096   1.081   .     S
C1093  N1130   1.362   .     A
C1094  H1097   1.080   .     S
H1095  C1151   1.088   .     S
H1110  O1132   1.014   .     S
H1111  O1134   1.014   .     S
H1113  C1184   1.083   .     S
H1114  C1185   1.083   .     S
N1129  Zn1144  2.012   .     S
N1130  Zn1143  2.012   .     S
O1131  Zn1143  1.984   .     S
O1135  Zn1144  1.984   .     S
O1136  Zn1144  1.985   .     S
O1137  Zn1143  1.985   .     S
O1138  Zn1143  1.954   .     S
O1139  Zn1144  1.954   .     S
O1140  Zn1144  1.973   .     S
O1141  Zn1143  1.973   .     S
O1142  C764    1.223   1_565 S
C1145  O1240   1.300   .     A
C1145  O1235   1.286   .     A
C1145  C1158   1.458   .     S
C1146  C1197   1.408   .     A
C1146  C1148   1.416   .     A
C1146  H1202   1.080   .     S
C1147  C1167   1.400   .     A
C1147  C1198   1.416   .     A
C1148  C1178   1.401   .     A
C1148  C523    1.517   1_556 S
C1149  O1244   1.283   .     A
C1149  C1151   1.399   .     S
C1149  O1242   1.276   .     A
C1150  O1245   1.283   .     A
C1150  C1152   1.399   .     S
C1150  O1243   1.275   .     A
C1152  C943    1.333   1_655 S
C1152  H1002   1.086   1_655 S
C1153  C1164   1.402   .     A
C1153  H1221   1.079   .     S
C1153  C1155   1.386   .     A
C1154  H1227   1.081   .     S
C1154  C1165   1.401   .     A
C1154  C1157   1.390   .     A
C1155  C1158   1.414   .     A
C1155  C1166   1.481   .     S
C1156  O1239   1.289   .     A
C1156  C1159   1.458   .     S
C1156  O1241   1.297   .     A
C1157  C1173   1.483   .     S
C1157  C1159   1.415   .     A
C1158  C1160   1.395   .     A
C1159  C1161   1.398   .     A
C1160  H1228   1.080   .     S
C1160  C1162   1.390   .     A
C1161  H1229   1.081   .     S
C1161  C1163   1.389   .     A
C1162  C1164   1.423   .     A
C1162  C1180   1.483   .     S
C1163  C1165   1.418   .     A
C1163  C1181   1.485   .     S
C1165  C852    1.494   1_565 S
C1166  C1168   1.405   .     A
C1166  C1172   1.405   .     A
C1167  C1189   1.404   .     A
C1167  H1230   1.081   .     S
C1168  C1169   1.398   .     A
C1168  H1203   1.083   .     S
C1169  H1204   1.081   .     S
C1169  C1170   1.397   .     A
C1170  H1205   1.082   .     S
C1170  C1171   1.398   .     A
C1171  H1206   1.082   .     S
C1171  C1172   1.398   .     A
C1172  H1207   1.082   .     S
C1173  C1174   1.405   .     A
C1173  C1179   1.406   .     A
C1174  H1208   1.083   .     S
C1174  C1175   1.399   .     A
C1175  C1176   1.398   .     A
C1175  H1209   1.082   .     S
C1176  H1211   1.083   .     S
C1176  C1177   1.397   .     A
C1177  C1179   1.398   .     A
C1177  H1212   1.082   .     S
C1178  C1195   1.404   .     A
C1178  H1231   1.081   .     S
C1179  H1213   1.083   .     S
C1180  O1236   1.398   .     S
C1181  O1237   1.223   .     D
C1181  O926    1.399   1_565 S
C1182  C1189   1.473   .     S
C1182  C1187   1.402   .     A
C1182  C1183   1.404   .     A
C1183  H1216   1.081   .     S
C1183  C1184   1.399   .     A
C1184  C1185   1.397   .     A
C1185  C1186   1.398   .     A
C1186  H1219   1.082   .     S
C1186  C1187   1.399   .     A
C1187  H1220   1.082   .     S
C1188  C1190   1.402   .     A
C1188  C1195   1.473   .     S
C1188  C1194   1.405   .     A
C1189  N1233   1.377   .     A
C1190  H1222   1.080   .     S
C1190  C1191   1.398   .     A
C1191  C1192   1.397   .     A
C1191  H1223   1.082   .     S
C1192  C985    1.397   1_655 S
C1192  H1016   1.083   1_655 S
C1193  H1225   1.081   .     S
C1194  H1226   1.080   .     S
C1194  C985    1.400   1_655 S
C1195  N1234   1.377   .     A
C1196  N1233   1.362   .     A
C1196  C1198   1.409   .     A
C1196  H1232   1.082   .     S
C1197  H1200   1.081   .     S
C1197  N1234   1.362   .     A
C1198  H1201   1.080   .     S
H1199  C943    1.088   1_655 S
H1214  O1236   1.014   .     S
H1215  O1238   1.014   .     S
H1217  C976    1.083   1_655 S
H1218  C977    1.083   1_655 S
N1233  Zn1248  2.012   .     S
N1234  Zn1247  2.012   .     S
O1235  Zn1247  1.984   .     S
O1239  Zn1248  1.984   .     S
O1240  Zn1248  1.985   .     S
O1241  Zn1247  1.985   .     S
O1242  Zn1247  1.954   .     S
O1243  Zn1248  1.954   .     S
O1244  Zn1248  1.973   .     S
O1245  Zn1247  1.973   .     S
O1246  C868    1.223   1_565 S
