data_str_m3_o1_o10_pcu_sym.69
_audit_creation_date              2020-01-03
_audit_creation_method            'Materials Studio'
_symmetry_space_group_name_H-M    'P1'
_symmetry_Int_Tables_number       1
_symmetry_cell_setting            triclinic
loop_
_symmetry_equiv_pos_as_xyz
  x,y,z
_cell_length_a                    25.8857
_cell_length_b                    32.2458
_cell_length_c                    29.5692
_cell_angle_alpha                 90.4140
_cell_angle_beta                  97.2903
_cell_angle_gamma                 89.5923
loop_
_atom_site_label
_atom_site_type_symbol
_atom_site_fract_x
_atom_site_fract_y
_atom_site_fract_z
_atom_site_U_iso_or_equiv
_atom_site_adp_type
_atom_site_occupancy
C1     C     0.16838   0.08669   0.16665   0.00000  Uiso   1.00
C2     C     0.16030   0.02238   0.20620   0.00000  Uiso   1.00
C3     C     0.16959   0.29096   0.16839   0.00000  Uiso   1.00
C4     C     0.17057   0.04255   0.16675   0.00000  Uiso   1.00
C5     C     0.20739   0.18368   0.02871   0.00000  Uiso   1.00
C6     C     0.12600   0.14946   0.30454   0.00000  Uiso   1.00
C7     C     0.20736   0.18294   0.31380   0.00000  Uiso   1.00
C8     C     0.12583   0.15059   0.01949   0.00000  Uiso   1.00
C9     C     0.32698   0.12908   0.11507   0.00000  Uiso   1.00
C10    C     0.00564   0.20309   0.21830   0.00000  Uiso   1.00
C11    C     0.17386   0.03814   0.05305   0.00000  Uiso   1.00
C12    C     0.16754   0.24672   0.16714   0.00000  Uiso   1.00
C13    C     0.20257   0.05606   0.01590   0.00000  Uiso   1.00
C14    C     0.11273   0.30201   0.26785   0.00000  Uiso   1.00
C15    C     0.10935   0.27333   0.30801   0.00000  Uiso   1.00
C16    C     0.26480   0.23797   0.04541   0.00000  Uiso   1.00
C17    C     0.30005   0.25681   0.08529   0.00000  Uiso   1.00
C18    C     0.06403   0.09694   0.28885   0.00000  Uiso   1.00
C19    C     0.00859   0.10293   0.30007   0.00000  Uiso   1.00
C20    C     0.06741   0.16577   0.15523   0.00000  Uiso   1.00
C21    C     0.26589   0.16694   0.17807   0.00000  Uiso   1.00
C22    C     0.01369   0.15852   0.15057   0.00000  Uiso   1.00
C23    C     0.31955   0.17371   0.18274   0.00000  Uiso   1.00
C24    C     0.18367   0.02056   0.12866   0.00000  Uiso   1.00
C25    C     0.16018   0.31306   0.20787   0.00000  Uiso   1.00
C26    C     0.18241   0.31120   0.12975   0.00000  Uiso   1.00
H27    H     0.19366   0.29386   0.10106   0.00000  Uiso   1.00
H28    H     0.07793   0.29707   0.24214   0.00000  Uiso   1.00
H29    H     0.11248   0.00099   0.28102   0.00000  Uiso   1.00
H30    H     0.07284   0.27956   0.32302   0.00000  Uiso   1.00
H31    H     0.10994   0.24052   0.29664   0.00000  Uiso   1.00
H32    H     0.14306   0.27827   0.00118   0.00000  Uiso   1.00
H33    H     0.23040   0.25880   0.03730   0.00000  Uiso   1.00
H34    H     0.28729   0.23635   0.01583   0.00000  Uiso   1.00
H35    H     0.00310   0.23819   0.09226   0.00000  Uiso   1.00
H36    H     0.31025   0.28904   0.07705   0.00000  Uiso   1.00
H37    H     0.28000   0.25730   0.11634   0.00000  Uiso   1.00
H38    H     0.15410   0.03986   0.23637   0.00000  Uiso   1.00
H39    H     0.08832   0.08152   0.31771   0.00000  Uiso   1.00
H40    H     0.06276   0.07509   0.25952   0.00000  Uiso   1.00
H41    H     0.31649   0.11447   0.26963   0.00000  Uiso   1.00
H42    H     0.32647   0.07292   0.31050   0.00000  Uiso   1.00
H43    H     0.00777   0.12571   0.32829   0.00000  Uiso   1.00
H44    H     0.24005   0.19485   0.29870   0.00000  Uiso   1.00
H45    H     0.09310   0.13871   0.03456   0.00000  Uiso   1.00
H46    H     0.13769   0.05655   0.05505   0.00000  Uiso   1.00
H47    H     0.16317   0.00573   0.04324   0.00000  Uiso   1.00
H48    H     0.23794   0.03722   0.01241   0.00000  Uiso   1.00
H49    H     0.17702   0.05583   0.31620   0.00000  Uiso   1.00
H50    H     0.21434   0.08848   0.02455   0.00000  Uiso   1.00
N51    N     0.16665   0.16666   0.28573   0.00000  Uiso   1.00
N52    N     0.16668   0.16668   0.04760   0.00000  Uiso   1.00
N53    N     0.31121   0.10565   0.08691   0.00000  Uiso   1.00
N54    N     0.02018   0.22651   0.24676   0.00000  Uiso   1.00
O55    O     0.16666   0.10558   0.20487   0.00000  Uiso   1.00
O56    O     0.15921   0.29305   0.24924   0.00000  Uiso   1.00
O57    O     0.25005   0.19788   0.05759   0.00000  Uiso   1.00
O58    O     0.08355   0.13520   0.27532   0.00000  Uiso   1.00
O59    O     0.16667   0.22775   0.12846   0.00000  Uiso   1.00
O60    O     0.16666   0.10559   0.12843   0.00000  Uiso   1.00
O61    O     0.16667   0.22774   0.20490   0.00000  Uiso   1.00
O62    O     0.09058   0.16666   0.19595   0.00000  Uiso   1.00
O63    O     0.24275   0.16667   0.13739   0.00000  Uiso   1.00
O64    O     0.09058   0.16667   0.11950   0.00000  Uiso   1.00
O65    O     0.24275   0.16666   0.21383   0.00000  Uiso   1.00
O66    O     0.20667   0.04029   0.09491   0.00000  Uiso   1.00
Zn67   Zn    0.16667   0.16666   0.21771   0.00000  Uiso   1.00
Zn68   Zn    0.16667   0.16667   0.11563   0.00000  Uiso   1.00
C69    C     0.50172   0.08669   0.16665   0.00000  Uiso   1.00
C70    C     0.49363   0.02238   0.20620   0.00000  Uiso   1.00
C71    C     0.50292   0.29096   0.16839   0.00000  Uiso   1.00
C72    C     0.50390   0.04255   0.16675   0.00000  Uiso   1.00
C73    C     0.54073   0.18368   0.02871   0.00000  Uiso   1.00
C74    C     0.45934   0.14946   0.30454   0.00000  Uiso   1.00
C75    C     0.54069   0.18294   0.31380   0.00000  Uiso   1.00
C76    C     0.45917   0.15059   0.01949   0.00000  Uiso   1.00
C77    C     0.66031   0.12908   0.11507   0.00000  Uiso   1.00
C78    C     0.33898   0.20309   0.21830   0.00000  Uiso   1.00
C79    C     0.50719   0.03814   0.05305   0.00000  Uiso   1.00
C80    C     0.50087   0.24672   0.16714   0.00000  Uiso   1.00
C81    C     0.53590   0.05606   0.01590   0.00000  Uiso   1.00
C82    C     0.44606   0.30201   0.26785   0.00000  Uiso   1.00
C83    C     0.44268   0.27333   0.30801   0.00000  Uiso   1.00
C84    C     0.59814   0.23797   0.04541   0.00000  Uiso   1.00
C85    C     0.63339   0.25681   0.08529   0.00000  Uiso   1.00
C86    C     0.39736   0.09694   0.28885   0.00000  Uiso   1.00
C87    C     0.34192   0.10293   0.30007   0.00000  Uiso   1.00
C88    C     0.40074   0.16577   0.15523   0.00000  Uiso   1.00
C89    C     0.59922   0.16694   0.17807   0.00000  Uiso   1.00
C90    C     0.34703   0.15852   0.15057   0.00000  Uiso   1.00
C91    C     0.65288   0.17371   0.18274   0.00000  Uiso   1.00
C92    C     0.51700   0.02056   0.12866   0.00000  Uiso   1.00
C93    C     0.49351   0.31306   0.20787   0.00000  Uiso   1.00
C94    C     0.51575   0.31120   0.12975   0.00000  Uiso   1.00
H95    H     0.52699   0.29386   0.10106   0.00000  Uiso   1.00
H96    H     0.41126   0.29707   0.24214   0.00000  Uiso   1.00
H97    H     0.44581   0.00099   0.28102   0.00000  Uiso   1.00
H98    H     0.40617   0.27956   0.32302   0.00000  Uiso   1.00
H99    H     0.44327   0.24052   0.29664   0.00000  Uiso   1.00
H100   H     0.47640   0.27827   0.00118   0.00000  Uiso   1.00
H101   H     0.56373   0.25880   0.03730   0.00000  Uiso   1.00
H102   H     0.62063   0.23635   0.01583   0.00000  Uiso   1.00
H103   H     0.33643   0.23819   0.09226   0.00000  Uiso   1.00
H104   H     0.64358   0.28904   0.07705   0.00000  Uiso   1.00
H105   H     0.61333   0.25730   0.11634   0.00000  Uiso   1.00
H106   H     0.48744   0.03986   0.23637   0.00000  Uiso   1.00
H107   H     0.42165   0.08152   0.31771   0.00000  Uiso   1.00
H108   H     0.39610   0.07509   0.25952   0.00000  Uiso   1.00
H109   H     0.64982   0.11447   0.26963   0.00000  Uiso   1.00
H110   H     0.65980   0.07292   0.31050   0.00000  Uiso   1.00
H111   H     0.34110   0.12571   0.32829   0.00000  Uiso   1.00
H112   H     0.57338   0.19485   0.29870   0.00000  Uiso   1.00
H113   H     0.42643   0.13871   0.03456   0.00000  Uiso   1.00
H114   H     0.47103   0.05655   0.05505   0.00000  Uiso   1.00
H115   H     0.49650   0.00573   0.04324   0.00000  Uiso   1.00
H116   H     0.57127   0.03722   0.01241   0.00000  Uiso   1.00
H117   H     0.51036   0.05583   0.31620   0.00000  Uiso   1.00
H118   H     0.54767   0.08848   0.02455   0.00000  Uiso   1.00
N119   N     0.49999   0.16666   0.28573   0.00000  Uiso   1.00
N120   N     0.50001   0.16668   0.04760   0.00000  Uiso   1.00
N121   N     0.64454   0.10565   0.08691   0.00000  Uiso   1.00
N122   N     0.35351   0.22651   0.24676   0.00000  Uiso   1.00
O123   O     0.50000   0.10558   0.20487   0.00000  Uiso   1.00
O124   O     0.49255   0.29305   0.24924   0.00000  Uiso   1.00
O125   O     0.58338   0.19788   0.05759   0.00000  Uiso   1.00
O126   O     0.41688   0.13520   0.27532   0.00000  Uiso   1.00
O127   O     0.50000   0.22775   0.12846   0.00000  Uiso   1.00
O128   O     0.50000   0.10559   0.12843   0.00000  Uiso   1.00
O129   O     0.50000   0.22774   0.20490   0.00000  Uiso   1.00
O130   O     0.42392   0.16666   0.19595   0.00000  Uiso   1.00
O131   O     0.57608   0.16667   0.13739   0.00000  Uiso   1.00
O132   O     0.42392   0.16667   0.11950   0.00000  Uiso   1.00
O133   O     0.57608   0.16666   0.21383   0.00000  Uiso   1.00
O134   O     0.54000   0.04029   0.09491   0.00000  Uiso   1.00
Zn135  Zn    0.50000   0.16666   0.21771   0.00000  Uiso   1.00
Zn136  Zn    0.50000   0.16667   0.11563   0.00000  Uiso   1.00
C137   C     0.83505   0.08669   0.16665   0.00000  Uiso   1.00
C138   C     0.82696   0.02238   0.20620   0.00000  Uiso   1.00
C139   C     0.83625   0.29096   0.16839   0.00000  Uiso   1.00
C140   C     0.83723   0.04255   0.16675   0.00000  Uiso   1.00
C141   C     0.87406   0.18368   0.02871   0.00000  Uiso   1.00
C142   C     0.79267   0.14946   0.30454   0.00000  Uiso   1.00
C143   C     0.87402   0.18294   0.31380   0.00000  Uiso   1.00
C144   C     0.79250   0.15059   0.01949   0.00000  Uiso   1.00
C145   C     0.99364   0.12908   0.11507   0.00000  Uiso   1.00
C146   C     0.67231   0.20309   0.21830   0.00000  Uiso   1.00
C147   C     0.84052   0.03814   0.05305   0.00000  Uiso   1.00
C148   C     0.83421   0.24672   0.16714   0.00000  Uiso   1.00
C149   C     0.86923   0.05606   0.01590   0.00000  Uiso   1.00
C150   C     0.77939   0.30201   0.26785   0.00000  Uiso   1.00
C151   C     0.77602   0.27333   0.30801   0.00000  Uiso   1.00
C152   C     0.93147   0.23797   0.04541   0.00000  Uiso   1.00
C153   C     0.96672   0.25681   0.08529   0.00000  Uiso   1.00
C154   C     0.73069   0.09694   0.28885   0.00000  Uiso   1.00
C155   C     0.67525   0.10293   0.30007   0.00000  Uiso   1.00
C156   C     0.73408   0.16577   0.15523   0.00000  Uiso   1.00
C157   C     0.93256   0.16694   0.17807   0.00000  Uiso   1.00
C158   C     0.68036   0.15852   0.15057   0.00000  Uiso   1.00
C159   C     0.98621   0.17371   0.18274   0.00000  Uiso   1.00
C160   C     0.85033   0.02056   0.12866   0.00000  Uiso   1.00
C161   C     0.82684   0.31306   0.20787   0.00000  Uiso   1.00
C162   C     0.84908   0.31120   0.12975   0.00000  Uiso   1.00
H163   H     0.86033   0.29386   0.10106   0.00000  Uiso   1.00
H164   H     0.74459   0.29707   0.24214   0.00000  Uiso   1.00
H165   H     0.77914   0.00099   0.28102   0.00000  Uiso   1.00
H166   H     0.73951   0.27956   0.32302   0.00000  Uiso   1.00
H167   H     0.77661   0.24052   0.29664   0.00000  Uiso   1.00
H168   H     0.80973   0.27827   0.00118   0.00000  Uiso   1.00
H169   H     0.89706   0.25880   0.03730   0.00000  Uiso   1.00
H170   H     0.95396   0.23635   0.01583   0.00000  Uiso   1.00
H171   H     0.66976   0.23819   0.09226   0.00000  Uiso   1.00
H172   H     0.97691   0.28904   0.07705   0.00000  Uiso   1.00
H173   H     0.94666   0.25730   0.11634   0.00000  Uiso   1.00
H174   H     0.82077   0.03986   0.23637   0.00000  Uiso   1.00
H175   H     0.75499   0.08152   0.31771   0.00000  Uiso   1.00
H176   H     0.72943   0.07509   0.25952   0.00000  Uiso   1.00
H177   H     0.98315   0.11447   0.26963   0.00000  Uiso   1.00
H178   H     0.99313   0.07292   0.31050   0.00000  Uiso   1.00
H179   H     0.67444   0.12571   0.32829   0.00000  Uiso   1.00
H180   H     0.90671   0.19485   0.29870   0.00000  Uiso   1.00
H181   H     0.75977   0.13871   0.03456   0.00000  Uiso   1.00
H182   H     0.80436   0.05655   0.05505   0.00000  Uiso   1.00
H183   H     0.82983   0.00573   0.04324   0.00000  Uiso   1.00
H184   H     0.90461   0.03722   0.01241   0.00000  Uiso   1.00
H185   H     0.84369   0.05583   0.31620   0.00000  Uiso   1.00
H186   H     0.88100   0.08848   0.02455   0.00000  Uiso   1.00
N187   N     0.83332   0.16666   0.28573   0.00000  Uiso   1.00
N188   N     0.83335   0.16668   0.04760   0.00000  Uiso   1.00
N189   N     0.97787   0.10565   0.08691   0.00000  Uiso   1.00
N190   N     0.68684   0.22651   0.24676   0.00000  Uiso   1.00
O191   O     0.83333   0.10558   0.20487   0.00000  Uiso   1.00
O192   O     0.82588   0.29305   0.24924   0.00000  Uiso   1.00
O193   O     0.91672   0.19788   0.05759   0.00000  Uiso   1.00
O194   O     0.75022   0.13520   0.27532   0.00000  Uiso   1.00
O195   O     0.83334   0.22775   0.12846   0.00000  Uiso   1.00
O196   O     0.83333   0.10559   0.12843   0.00000  Uiso   1.00
O197   O     0.83334   0.22774   0.20490   0.00000  Uiso   1.00
O198   O     0.75725   0.16666   0.19595   0.00000  Uiso   1.00
O199   O     0.90942   0.16667   0.13739   0.00000  Uiso   1.00
O200   O     0.75725   0.16667   0.11950   0.00000  Uiso   1.00
O201   O     0.90942   0.16666   0.21383   0.00000  Uiso   1.00
O202   O     0.87334   0.04029   0.09491   0.00000  Uiso   1.00
Zn203  Zn    0.83333   0.16666   0.21771   0.00000  Uiso   1.00
Zn204  Zn    0.83333   0.16667   0.11563   0.00000  Uiso   1.00
C205   C     0.16838   0.42003   0.16665   0.00000  Uiso   1.00
C206   C     0.16030   0.35572   0.20620   0.00000  Uiso   1.00
C207   C     0.16959   0.62429   0.16839   0.00000  Uiso   1.00
C208   C     0.17057   0.37589   0.16675   0.00000  Uiso   1.00
C209   C     0.20739   0.51701   0.02871   0.00000  Uiso   1.00
C210   C     0.12600   0.48280   0.30454   0.00000  Uiso   1.00
C211   C     0.20736   0.51627   0.31380   0.00000  Uiso   1.00
C212   C     0.12583   0.48393   0.01949   0.00000  Uiso   1.00
C213   C     0.32698   0.46241   0.11507   0.00000  Uiso   1.00
C214   C     0.00564   0.53642   0.21830   0.00000  Uiso   1.00
C215   C     0.17386   0.37148   0.05305   0.00000  Uiso   1.00
C216   C     0.16754   0.58006   0.16714   0.00000  Uiso   1.00
C217   C     0.20257   0.38940   0.01590   0.00000  Uiso   1.00
C218   C     0.11273   0.63534   0.26785   0.00000  Uiso   1.00
C219   C     0.10935   0.60666   0.30801   0.00000  Uiso   1.00
C220   C     0.26480   0.57131   0.04541   0.00000  Uiso   1.00
C221   C     0.30005   0.59014   0.08529   0.00000  Uiso   1.00
C222   C     0.06403   0.43028   0.28885   0.00000  Uiso   1.00
C223   C     0.00859   0.43627   0.30007   0.00000  Uiso   1.00
C224   C     0.06741   0.49911   0.15523   0.00000  Uiso   1.00
C225   C     0.26589   0.50028   0.17807   0.00000  Uiso   1.00
C226   C     0.01369   0.49185   0.15057   0.00000  Uiso   1.00
C227   C     0.31955   0.50704   0.18274   0.00000  Uiso   1.00
C228   C     0.18367   0.35389   0.12866   0.00000  Uiso   1.00
C229   C     0.16018   0.64639   0.20787   0.00000  Uiso   1.00
C230   C     0.18241   0.64453   0.12975   0.00000  Uiso   1.00
H231   H     0.19366   0.62720   0.10106   0.00000  Uiso   1.00
H232   H     0.07793   0.63040   0.24214   0.00000  Uiso   1.00
H233   H     0.11248   0.33433   0.28102   0.00000  Uiso   1.00
H234   H     0.07284   0.61289   0.32302   0.00000  Uiso   1.00
H235   H     0.10994   0.57386   0.29664   0.00000  Uiso   1.00
H236   H     0.14306   0.61160   0.00118   0.00000  Uiso   1.00
H237   H     0.23040   0.59213   0.03730   0.00000  Uiso   1.00
H238   H     0.28729   0.56968   0.01583   0.00000  Uiso   1.00
H239   H     0.00310   0.57152   0.09226   0.00000  Uiso   1.00
H240   H     0.31025   0.62237   0.07705   0.00000  Uiso   1.00
H241   H     0.28000   0.59063   0.11634   0.00000  Uiso   1.00
H242   H     0.15410   0.37320   0.23637   0.00000  Uiso   1.00
H243   H     0.08832   0.41486   0.31771   0.00000  Uiso   1.00
H244   H     0.06276   0.40842   0.25952   0.00000  Uiso   1.00
H245   H     0.31649   0.44781   0.26963   0.00000  Uiso   1.00
H246   H     0.32647   0.40625   0.31050   0.00000  Uiso   1.00
H247   H     0.00777   0.45904   0.32829   0.00000  Uiso   1.00
H248   H     0.24005   0.52819   0.29870   0.00000  Uiso   1.00
H249   H     0.09310   0.47204   0.03456   0.00000  Uiso   1.00
H250   H     0.13769   0.38989   0.05505   0.00000  Uiso   1.00
H251   H     0.16317   0.33907   0.04324   0.00000  Uiso   1.00
H252   H     0.23794   0.37055   0.01241   0.00000  Uiso   1.00
H253   H     0.17702   0.38916   0.31620   0.00000  Uiso   1.00
H254   H     0.21434   0.42181   0.02455   0.00000  Uiso   1.00
N255   N     0.16665   0.49999   0.28573   0.00000  Uiso   1.00
N256   N     0.16668   0.50001   0.04760   0.00000  Uiso   1.00
N257   N     0.31121   0.43899   0.08691   0.00000  Uiso   1.00
N258   N     0.02018   0.55984   0.24676   0.00000  Uiso   1.00
O259   O     0.16666   0.43892   0.20487   0.00000  Uiso   1.00
O260   O     0.15921   0.62639   0.24924   0.00000  Uiso   1.00
O261   O     0.25005   0.53122   0.05759   0.00000  Uiso   1.00
O262   O     0.08355   0.46854   0.27532   0.00000  Uiso   1.00
O263   O     0.16667   0.56108   0.12846   0.00000  Uiso   1.00
O264   O     0.16666   0.43893   0.12843   0.00000  Uiso   1.00
O265   O     0.16667   0.56107   0.20490   0.00000  Uiso   1.00
O266   O     0.09058   0.50000   0.19595   0.00000  Uiso   1.00
O267   O     0.24275   0.50000   0.13739   0.00000  Uiso   1.00
O268   O     0.09058   0.50000   0.11950   0.00000  Uiso   1.00
O269   O     0.24275   0.50000   0.21383   0.00000  Uiso   1.00
O270   O     0.20667   0.37362   0.09491   0.00000  Uiso   1.00
Zn271  Zn    0.16667   0.49999   0.21771   0.00000  Uiso   1.00
Zn272  Zn    0.16667   0.50001   0.11563   0.00000  Uiso   1.00
C273   C     0.50172   0.42003   0.16665   0.00000  Uiso   1.00
C274   C     0.49363   0.35572   0.20620   0.00000  Uiso   1.00
C275   C     0.50292   0.62429   0.16839   0.00000  Uiso   1.00
C276   C     0.50390   0.37589   0.16675   0.00000  Uiso   1.00
C277   C     0.54073   0.51701   0.02871   0.00000  Uiso   1.00
C278   C     0.45934   0.48280   0.30454   0.00000  Uiso   1.00
C279   C     0.54069   0.51627   0.31380   0.00000  Uiso   1.00
C280   C     0.45917   0.48393   0.01949   0.00000  Uiso   1.00
C281   C     0.66031   0.46241   0.11507   0.00000  Uiso   1.00
C282   C     0.33898   0.53642   0.21830   0.00000  Uiso   1.00
C283   C     0.50719   0.37148   0.05305   0.00000  Uiso   1.00
C284   C     0.50087   0.58006   0.16714   0.00000  Uiso   1.00
C285   C     0.53590   0.38940   0.01590   0.00000  Uiso   1.00
C286   C     0.44606   0.63534   0.26785   0.00000  Uiso   1.00
C287   C     0.44268   0.60666   0.30801   0.00000  Uiso   1.00
C288   C     0.59814   0.57131   0.04541   0.00000  Uiso   1.00
C289   C     0.63339   0.59014   0.08529   0.00000  Uiso   1.00
C290   C     0.39736   0.43028   0.28885   0.00000  Uiso   1.00
C291   C     0.34192   0.43627   0.30007   0.00000  Uiso   1.00
C292   C     0.40074   0.49911   0.15523   0.00000  Uiso   1.00
C293   C     0.59922   0.50028   0.17807   0.00000  Uiso   1.00
C294   C     0.34703   0.49185   0.15057   0.00000  Uiso   1.00
C295   C     0.65288   0.50704   0.18274   0.00000  Uiso   1.00
C296   C     0.51700   0.35389   0.12866   0.00000  Uiso   1.00
C297   C     0.49351   0.64639   0.20787   0.00000  Uiso   1.00
C298   C     0.51575   0.64453   0.12975   0.00000  Uiso   1.00
H299   H     0.52699   0.62720   0.10106   0.00000  Uiso   1.00
H300   H     0.41126   0.63040   0.24214   0.00000  Uiso   1.00
H301   H     0.44581   0.33433   0.28102   0.00000  Uiso   1.00
H302   H     0.40617   0.61289   0.32302   0.00000  Uiso   1.00
H303   H     0.44327   0.57386   0.29664   0.00000  Uiso   1.00
H304   H     0.47640   0.61160   0.00118   0.00000  Uiso   1.00
H305   H     0.56373   0.59213   0.03730   0.00000  Uiso   1.00
H306   H     0.62063   0.56968   0.01583   0.00000  Uiso   1.00
H307   H     0.33643   0.57152   0.09226   0.00000  Uiso   1.00
H308   H     0.64358   0.62237   0.07705   0.00000  Uiso   1.00
H309   H     0.61333   0.59063   0.11634   0.00000  Uiso   1.00
H310   H     0.48744   0.37320   0.23637   0.00000  Uiso   1.00
H311   H     0.42165   0.41486   0.31771   0.00000  Uiso   1.00
H312   H     0.39610   0.40842   0.25952   0.00000  Uiso   1.00
H313   H     0.64982   0.44781   0.26963   0.00000  Uiso   1.00
H314   H     0.65980   0.40625   0.31050   0.00000  Uiso   1.00
H315   H     0.34110   0.45904   0.32829   0.00000  Uiso   1.00
H316   H     0.57338   0.52819   0.29870   0.00000  Uiso   1.00
H317   H     0.42643   0.47204   0.03456   0.00000  Uiso   1.00
H318   H     0.47103   0.38989   0.05505   0.00000  Uiso   1.00
H319   H     0.49650   0.33907   0.04324   0.00000  Uiso   1.00
H320   H     0.57127   0.37055   0.01241   0.00000  Uiso   1.00
H321   H     0.51036   0.38916   0.31620   0.00000  Uiso   1.00
H322   H     0.54767   0.42181   0.02455   0.00000  Uiso   1.00
N323   N     0.49999   0.49999   0.28573   0.00000  Uiso   1.00
N324   N     0.50001   0.50001   0.04760   0.00000  Uiso   1.00
N325   N     0.64454   0.43899   0.08691   0.00000  Uiso   1.00
N326   N     0.35351   0.55984   0.24676   0.00000  Uiso   1.00
O327   O     0.50000   0.43892   0.20487   0.00000  Uiso   1.00
O328   O     0.49255   0.62639   0.24924   0.00000  Uiso   1.00
O329   O     0.58338   0.53122   0.05759   0.00000  Uiso   1.00
O330   O     0.41688   0.46854   0.27532   0.00000  Uiso   1.00
O331   O     0.50000   0.56108   0.12846   0.00000  Uiso   1.00
O332   O     0.50000   0.43893   0.12843   0.00000  Uiso   1.00
O333   O     0.50000   0.56107   0.20490   0.00000  Uiso   1.00
O334   O     0.42392   0.50000   0.19595   0.00000  Uiso   1.00
O335   O     0.57608   0.50000   0.13739   0.00000  Uiso   1.00
O336   O     0.42392   0.50000   0.11950   0.00000  Uiso   1.00
O337   O     0.57608   0.50000   0.21383   0.00000  Uiso   1.00
O338   O     0.54000   0.37362   0.09491   0.00000  Uiso   1.00
Zn339  Zn    0.50000   0.49999   0.21771   0.00000  Uiso   1.00
Zn340  Zn    0.50000   0.50001   0.11563   0.00000  Uiso   1.00
C341   C     0.83505   0.42003   0.16665   0.00000  Uiso   1.00
C342   C     0.82696   0.35572   0.20620   0.00000  Uiso   1.00
C343   C     0.83625   0.62429   0.16839   0.00000  Uiso   1.00
C344   C     0.83723   0.37589   0.16675   0.00000  Uiso   1.00
C345   C     0.87406   0.51701   0.02871   0.00000  Uiso   1.00
C346   C     0.79267   0.48280   0.30454   0.00000  Uiso   1.00
C347   C     0.87402   0.51627   0.31380   0.00000  Uiso   1.00
C348   C     0.79250   0.48393   0.01949   0.00000  Uiso   1.00
C349   C     0.99364   0.46241   0.11507   0.00000  Uiso   1.00
C350   C     0.67231   0.53642   0.21830   0.00000  Uiso   1.00
C351   C     0.84052   0.37148   0.05305   0.00000  Uiso   1.00
C352   C     0.83421   0.58006   0.16714   0.00000  Uiso   1.00
C353   C     0.86923   0.38940   0.01590   0.00000  Uiso   1.00
C354   C     0.77939   0.63534   0.26785   0.00000  Uiso   1.00
C355   C     0.77602   0.60666   0.30801   0.00000  Uiso   1.00
C356   C     0.93147   0.57131   0.04541   0.00000  Uiso   1.00
C357   C     0.96672   0.59014   0.08529   0.00000  Uiso   1.00
C358   C     0.73069   0.43028   0.28885   0.00000  Uiso   1.00
C359   C     0.67525   0.43627   0.30007   0.00000  Uiso   1.00
C360   C     0.73408   0.49911   0.15523   0.00000  Uiso   1.00
C361   C     0.93256   0.50028   0.17807   0.00000  Uiso   1.00
C362   C     0.68036   0.49185   0.15057   0.00000  Uiso   1.00
C363   C     0.98621   0.50704   0.18274   0.00000  Uiso   1.00
C364   C     0.85033   0.35389   0.12866   0.00000  Uiso   1.00
C365   C     0.82684   0.64639   0.20787   0.00000  Uiso   1.00
C366   C     0.84908   0.64453   0.12975   0.00000  Uiso   1.00
H367   H     0.86033   0.62720   0.10106   0.00000  Uiso   1.00
H368   H     0.74459   0.63040   0.24214   0.00000  Uiso   1.00
H369   H     0.77914   0.33433   0.28102   0.00000  Uiso   1.00
H370   H     0.73951   0.61289   0.32302   0.00000  Uiso   1.00
H371   H     0.77661   0.57386   0.29664   0.00000  Uiso   1.00
H372   H     0.80973   0.61160   0.00118   0.00000  Uiso   1.00
H373   H     0.89706   0.59213   0.03730   0.00000  Uiso   1.00
H374   H     0.95396   0.56968   0.01583   0.00000  Uiso   1.00
H375   H     0.66976   0.57152   0.09226   0.00000  Uiso   1.00
H376   H     0.97691   0.62237   0.07705   0.00000  Uiso   1.00
H377   H     0.94666   0.59063   0.11634   0.00000  Uiso   1.00
H378   H     0.82077   0.37320   0.23637   0.00000  Uiso   1.00
H379   H     0.75499   0.41486   0.31771   0.00000  Uiso   1.00
H380   H     0.72943   0.40842   0.25952   0.00000  Uiso   1.00
H381   H     0.98315   0.44781   0.26963   0.00000  Uiso   1.00
H382   H     0.99313   0.40625   0.31050   0.00000  Uiso   1.00
H383   H     0.67444   0.45904   0.32829   0.00000  Uiso   1.00
H384   H     0.90671   0.52819   0.29870   0.00000  Uiso   1.00
H385   H     0.75977   0.47204   0.03456   0.00000  Uiso   1.00
H386   H     0.80436   0.38989   0.05505   0.00000  Uiso   1.00
H387   H     0.82983   0.33907   0.04324   0.00000  Uiso   1.00
H388   H     0.90461   0.37055   0.01241   0.00000  Uiso   1.00
H389   H     0.84369   0.38916   0.31620   0.00000  Uiso   1.00
H390   H     0.88100   0.42181   0.02455   0.00000  Uiso   1.00
N391   N     0.83332   0.49999   0.28573   0.00000  Uiso   1.00
N392   N     0.83335   0.50001   0.04760   0.00000  Uiso   1.00
N393   N     0.97787   0.43899   0.08691   0.00000  Uiso   1.00
N394   N     0.68684   0.55984   0.24676   0.00000  Uiso   1.00
O395   O     0.83333   0.43892   0.20487   0.00000  Uiso   1.00
O396   O     0.82588   0.62639   0.24924   0.00000  Uiso   1.00
O397   O     0.91672   0.53122   0.05759   0.00000  Uiso   1.00
O398   O     0.75022   0.46854   0.27532   0.00000  Uiso   1.00
O399   O     0.83334   0.56108   0.12846   0.00000  Uiso   1.00
O400   O     0.83333   0.43893   0.12843   0.00000  Uiso   1.00
O401   O     0.83334   0.56107   0.20490   0.00000  Uiso   1.00
O402   O     0.75725   0.50000   0.19595   0.00000  Uiso   1.00
O403   O     0.90942   0.50000   0.13739   0.00000  Uiso   1.00
O404   O     0.75725   0.50000   0.11950   0.00000  Uiso   1.00
O405   O     0.90942   0.50000   0.21383   0.00000  Uiso   1.00
O406   O     0.87334   0.37362   0.09491   0.00000  Uiso   1.00
Zn407  Zn    0.83333   0.49999   0.21771   0.00000  Uiso   1.00
Zn408  Zn    0.83333   0.50001   0.11563   0.00000  Uiso   1.00
C409   C     0.16838   0.75336   0.16665   0.00000  Uiso   1.00
C410   C     0.16030   0.68905   0.20620   0.00000  Uiso   1.00
C411   C     0.16959   0.95763   0.16839   0.00000  Uiso   1.00
C412   C     0.17057   0.70922   0.16675   0.00000  Uiso   1.00
C413   C     0.20739   0.85035   0.02871   0.00000  Uiso   1.00
C414   C     0.12600   0.81613   0.30454   0.00000  Uiso   1.00
C415   C     0.20736   0.84961   0.31380   0.00000  Uiso   1.00
C416   C     0.12583   0.81726   0.01949   0.00000  Uiso   1.00
C417   C     0.32698   0.79574   0.11507   0.00000  Uiso   1.00
C418   C     0.00564   0.86975   0.21830   0.00000  Uiso   1.00
C419   C     0.17386   0.70481   0.05305   0.00000  Uiso   1.00
C420   C     0.16754   0.91339   0.16714   0.00000  Uiso   1.00
C421   C     0.20257   0.72273   0.01590   0.00000  Uiso   1.00
C422   C     0.11273   0.96867   0.26785   0.00000  Uiso   1.00
C423   C     0.10935   0.93999   0.30801   0.00000  Uiso   1.00
C424   C     0.26480   0.90464   0.04541   0.00000  Uiso   1.00
C425   C     0.30005   0.92347   0.08529   0.00000  Uiso   1.00
C426   C     0.06403   0.76361   0.28885   0.00000  Uiso   1.00
C427   C     0.00859   0.76960   0.30007   0.00000  Uiso   1.00
C428   C     0.06741   0.83244   0.15523   0.00000  Uiso   1.00
C429   C     0.26589   0.83361   0.17807   0.00000  Uiso   1.00
C430   C     0.01369   0.82519   0.15057   0.00000  Uiso   1.00
C431   C     0.31955   0.84038   0.18274   0.00000  Uiso   1.00
C432   C     0.18367   0.68722   0.12866   0.00000  Uiso   1.00
C433   C     0.16018   0.97972   0.20787   0.00000  Uiso   1.00
C434   C     0.18241   0.97786   0.12975   0.00000  Uiso   1.00
H435   H     0.19366   0.96053   0.10106   0.00000  Uiso   1.00
H436   H     0.07793   0.96374   0.24214   0.00000  Uiso   1.00
H437   H     0.11248   0.66766   0.28102   0.00000  Uiso   1.00
H438   H     0.07284   0.94622   0.32302   0.00000  Uiso   1.00
H439   H     0.10994   0.90719   0.29664   0.00000  Uiso   1.00
H440   H     0.14306   0.94493   0.00118   0.00000  Uiso   1.00
H441   H     0.23040   0.92546   0.03730   0.00000  Uiso   1.00
H442   H     0.28729   0.90301   0.01583   0.00000  Uiso   1.00
H443   H     0.00310   0.90486   0.09226   0.00000  Uiso   1.00
H444   H     0.31025   0.95571   0.07705   0.00000  Uiso   1.00
H445   H     0.28000   0.92396   0.11634   0.00000  Uiso   1.00
H446   H     0.15410   0.70653   0.23637   0.00000  Uiso   1.00
H447   H     0.08832   0.74819   0.31771   0.00000  Uiso   1.00
H448   H     0.06276   0.74176   0.25952   0.00000  Uiso   1.00
H449   H     0.31649   0.78114   0.26963   0.00000  Uiso   1.00
H450   H     0.32647   0.73958   0.31050   0.00000  Uiso   1.00
H451   H     0.00777   0.79238   0.32829   0.00000  Uiso   1.00
H452   H     0.24005   0.86152   0.29870   0.00000  Uiso   1.00
H453   H     0.09310   0.80538   0.03456   0.00000  Uiso   1.00
H454   H     0.13769   0.72322   0.05505   0.00000  Uiso   1.00
H455   H     0.16317   0.67240   0.04324   0.00000  Uiso   1.00
H456   H     0.23794   0.70388   0.01241   0.00000  Uiso   1.00
H457   H     0.17702   0.72249   0.31620   0.00000  Uiso   1.00
H458   H     0.21434   0.75514   0.02455   0.00000  Uiso   1.00
N459   N     0.16665   0.83332   0.28573   0.00000  Uiso   1.00
N460   N     0.16668   0.83334   0.04760   0.00000  Uiso   1.00
N461   N     0.31121   0.77232   0.08691   0.00000  Uiso   1.00
N462   N     0.02018   0.89317   0.24676   0.00000  Uiso   1.00
O463   O     0.16666   0.77225   0.20487   0.00000  Uiso   1.00
O464   O     0.15921   0.95972   0.24924   0.00000  Uiso   1.00
O465   O     0.25005   0.86455   0.05759   0.00000  Uiso   1.00
O466   O     0.08355   0.80187   0.27532   0.00000  Uiso   1.00
O467   O     0.16667   0.89442   0.12846   0.00000  Uiso   1.00
O468   O     0.16666   0.77226   0.12843   0.00000  Uiso   1.00
O469   O     0.16667   0.89441   0.20490   0.00000  Uiso   1.00
O470   O     0.09058   0.83333   0.19595   0.00000  Uiso   1.00
O471   O     0.24275   0.83334   0.13739   0.00000  Uiso   1.00
O472   O     0.09058   0.83334   0.11950   0.00000  Uiso   1.00
O473   O     0.24275   0.83333   0.21383   0.00000  Uiso   1.00
O474   O     0.20667   0.70696   0.09491   0.00000  Uiso   1.00
Zn475  Zn    0.16667   0.83333   0.21771   0.00000  Uiso   1.00
Zn476  Zn    0.16667   0.83334   0.11563   0.00000  Uiso   1.00
C477   C     0.50172   0.75336   0.16665   0.00000  Uiso   1.00
C478   C     0.49363   0.68905   0.20620   0.00000  Uiso   1.00
C479   C     0.50292   0.95763   0.16839   0.00000  Uiso   1.00
C480   C     0.50390   0.70922   0.16675   0.00000  Uiso   1.00
C481   C     0.54073   0.85035   0.02871   0.00000  Uiso   1.00
C482   C     0.45934   0.81613   0.30454   0.00000  Uiso   1.00
C483   C     0.54069   0.84961   0.31380   0.00000  Uiso   1.00
C484   C     0.45917   0.81726   0.01949   0.00000  Uiso   1.00
C485   C     0.66031   0.79574   0.11507   0.00000  Uiso   1.00
C486   C     0.33898   0.86975   0.21830   0.00000  Uiso   1.00
C487   C     0.50719   0.70481   0.05305   0.00000  Uiso   1.00
C488   C     0.50087   0.91339   0.16714   0.00000  Uiso   1.00
C489   C     0.53590   0.72273   0.01590   0.00000  Uiso   1.00
C490   C     0.44606   0.96867   0.26785   0.00000  Uiso   1.00
C491   C     0.44268   0.93999   0.30801   0.00000  Uiso   1.00
C492   C     0.59814   0.90464   0.04541   0.00000  Uiso   1.00
C493   C     0.63339   0.92347   0.08529   0.00000  Uiso   1.00
C494   C     0.39736   0.76361   0.28885   0.00000  Uiso   1.00
C495   C     0.34192   0.76960   0.30007   0.00000  Uiso   1.00
C496   C     0.40074   0.83244   0.15523   0.00000  Uiso   1.00
C497   C     0.59922   0.83361   0.17807   0.00000  Uiso   1.00
C498   C     0.34703   0.82519   0.15057   0.00000  Uiso   1.00
C499   C     0.65288   0.84038   0.18274   0.00000  Uiso   1.00
C500   C     0.51700   0.68722   0.12866   0.00000  Uiso   1.00
C501   C     0.49351   0.97972   0.20787   0.00000  Uiso   1.00
C502   C     0.51575   0.97786   0.12975   0.00000  Uiso   1.00
H503   H     0.52699   0.96053   0.10106   0.00000  Uiso   1.00
H504   H     0.41126   0.96374   0.24214   0.00000  Uiso   1.00
H505   H     0.44581   0.66766   0.28102   0.00000  Uiso   1.00
H506   H     0.40617   0.94622   0.32302   0.00000  Uiso   1.00
H507   H     0.44327   0.90719   0.29664   0.00000  Uiso   1.00
H508   H     0.47640   0.94493   0.00118   0.00000  Uiso   1.00
H509   H     0.56373   0.92546   0.03730   0.00000  Uiso   1.00
H510   H     0.62063   0.90301   0.01583   0.00000  Uiso   1.00
H511   H     0.33643   0.90486   0.09226   0.00000  Uiso   1.00
H512   H     0.64358   0.95571   0.07705   0.00000  Uiso   1.00
H513   H     0.61333   0.92396   0.11634   0.00000  Uiso   1.00
H514   H     0.48744   0.70653   0.23637   0.00000  Uiso   1.00
H515   H     0.42165   0.74819   0.31771   0.00000  Uiso   1.00
H516   H     0.39610   0.74176   0.25952   0.00000  Uiso   1.00
H517   H     0.64982   0.78114   0.26963   0.00000  Uiso   1.00
H518   H     0.65980   0.73958   0.31050   0.00000  Uiso   1.00
H519   H     0.34110   0.79238   0.32829   0.00000  Uiso   1.00
H520   H     0.57338   0.86152   0.29870   0.00000  Uiso   1.00
H521   H     0.42643   0.80538   0.03456   0.00000  Uiso   1.00
H522   H     0.47103   0.72322   0.05505   0.00000  Uiso   1.00
H523   H     0.49650   0.67240   0.04324   0.00000  Uiso   1.00
H524   H     0.57127   0.70388   0.01241   0.00000  Uiso   1.00
H525   H     0.51036   0.72249   0.31620   0.00000  Uiso   1.00
H526   H     0.54767   0.75514   0.02455   0.00000  Uiso   1.00
N527   N     0.49999   0.83332   0.28573   0.00000  Uiso   1.00
N528   N     0.50001   0.83334   0.04760   0.00000  Uiso   1.00
N529   N     0.64454   0.77232   0.08691   0.00000  Uiso   1.00
N530   N     0.35351   0.89317   0.24676   0.00000  Uiso   1.00
O531   O     0.50000   0.77225   0.20487   0.00000  Uiso   1.00
O532   O     0.49255   0.95972   0.24924   0.00000  Uiso   1.00
O533   O     0.58338   0.86455   0.05759   0.00000  Uiso   1.00
O534   O     0.41688   0.80187   0.27532   0.00000  Uiso   1.00
O535   O     0.50000   0.89442   0.12846   0.00000  Uiso   1.00
O536   O     0.50000   0.77226   0.12843   0.00000  Uiso   1.00
O537   O     0.50000   0.89441   0.20490   0.00000  Uiso   1.00
O538   O     0.42392   0.83333   0.19595   0.00000  Uiso   1.00
O539   O     0.57608   0.83334   0.13739   0.00000  Uiso   1.00
O540   O     0.42392   0.83334   0.11950   0.00000  Uiso   1.00
O541   O     0.57608   0.83333   0.21383   0.00000  Uiso   1.00
O542   O     0.54000   0.70696   0.09491   0.00000  Uiso   1.00
Zn543  Zn    0.50000   0.83333   0.21771   0.00000  Uiso   1.00
Zn544  Zn    0.50000   0.83334   0.11563   0.00000  Uiso   1.00
C545   C     0.83505   0.75336   0.16665   0.00000  Uiso   1.00
C546   C     0.82696   0.68905   0.20620   0.00000  Uiso   1.00
C547   C     0.83625   0.95763   0.16839   0.00000  Uiso   1.00
C548   C     0.83723   0.70922   0.16675   0.00000  Uiso   1.00
C549   C     0.87406   0.85035   0.02871   0.00000  Uiso   1.00
C550   C     0.79267   0.81613   0.30454   0.00000  Uiso   1.00
C551   C     0.87402   0.84961   0.31380   0.00000  Uiso   1.00
C552   C     0.79250   0.81726   0.01949   0.00000  Uiso   1.00
C553   C     0.99364   0.79574   0.11507   0.00000  Uiso   1.00
C554   C     0.67231   0.86975   0.21830   0.00000  Uiso   1.00
C555   C     0.84052   0.70481   0.05305   0.00000  Uiso   1.00
C556   C     0.83421   0.91339   0.16714   0.00000  Uiso   1.00
C557   C     0.86923   0.72273   0.01590   0.00000  Uiso   1.00
C558   C     0.77939   0.96867   0.26785   0.00000  Uiso   1.00
C559   C     0.77602   0.93999   0.30801   0.00000  Uiso   1.00
C560   C     0.93147   0.90464   0.04541   0.00000  Uiso   1.00
C561   C     0.96672   0.92347   0.08529   0.00000  Uiso   1.00
C562   C     0.73069   0.76361   0.28885   0.00000  Uiso   1.00
C563   C     0.67525   0.76960   0.30007   0.00000  Uiso   1.00
C564   C     0.73408   0.83244   0.15523   0.00000  Uiso   1.00
C565   C     0.93256   0.83361   0.17807   0.00000  Uiso   1.00
C566   C     0.68036   0.82519   0.15057   0.00000  Uiso   1.00
C567   C     0.98621   0.84038   0.18274   0.00000  Uiso   1.00
C568   C     0.85033   0.68722   0.12866   0.00000  Uiso   1.00
C569   C     0.82684   0.97972   0.20787   0.00000  Uiso   1.00
C570   C     0.84908   0.97786   0.12975   0.00000  Uiso   1.00
H571   H     0.86033   0.96053   0.10106   0.00000  Uiso   1.00
H572   H     0.74459   0.96374   0.24214   0.00000  Uiso   1.00
H573   H     0.77914   0.66766   0.28102   0.00000  Uiso   1.00
H574   H     0.73951   0.94622   0.32302   0.00000  Uiso   1.00
H575   H     0.77661   0.90719   0.29664   0.00000  Uiso   1.00
H576   H     0.80973   0.94493   0.00118   0.00000  Uiso   1.00
H577   H     0.89706   0.92546   0.03730   0.00000  Uiso   1.00
H578   H     0.95396   0.90301   0.01583   0.00000  Uiso   1.00
H579   H     0.66976   0.90486   0.09226   0.00000  Uiso   1.00
H580   H     0.97691   0.95571   0.07705   0.00000  Uiso   1.00
H581   H     0.94666   0.92396   0.11634   0.00000  Uiso   1.00
H582   H     0.82077   0.70653   0.23637   0.00000  Uiso   1.00
H583   H     0.75499   0.74819   0.31771   0.00000  Uiso   1.00
H584   H     0.72943   0.74176   0.25952   0.00000  Uiso   1.00
H585   H     0.98315   0.78114   0.26963   0.00000  Uiso   1.00
H586   H     0.99313   0.73958   0.31050   0.00000  Uiso   1.00
H587   H     0.67444   0.79238   0.32829   0.00000  Uiso   1.00
H588   H     0.90671   0.86152   0.29870   0.00000  Uiso   1.00
H589   H     0.75977   0.80538   0.03456   0.00000  Uiso   1.00
H590   H     0.80436   0.72322   0.05505   0.00000  Uiso   1.00
H591   H     0.82983   0.67240   0.04324   0.00000  Uiso   1.00
H592   H     0.90461   0.70388   0.01241   0.00000  Uiso   1.00
H593   H     0.84369   0.72249   0.31620   0.00000  Uiso   1.00
H594   H     0.88100   0.75514   0.02455   0.00000  Uiso   1.00
N595   N     0.83332   0.83332   0.28573   0.00000  Uiso   1.00
N596   N     0.83335   0.83334   0.04760   0.00000  Uiso   1.00
N597   N     0.97787   0.77232   0.08691   0.00000  Uiso   1.00
N598   N     0.68684   0.89317   0.24676   0.00000  Uiso   1.00
O599   O     0.83333   0.77225   0.20487   0.00000  Uiso   1.00
O600   O     0.82588   0.95972   0.24924   0.00000  Uiso   1.00
O601   O     0.91672   0.86455   0.05759   0.00000  Uiso   1.00
O602   O     0.75022   0.80187   0.27532   0.00000  Uiso   1.00
O603   O     0.83334   0.89442   0.12846   0.00000  Uiso   1.00
O604   O     0.83333   0.77226   0.12843   0.00000  Uiso   1.00
O605   O     0.83334   0.89441   0.20490   0.00000  Uiso   1.00
O606   O     0.75725   0.83333   0.19595   0.00000  Uiso   1.00
O607   O     0.90942   0.83334   0.13739   0.00000  Uiso   1.00
O608   O     0.75725   0.83334   0.11950   0.00000  Uiso   1.00
O609   O     0.90942   0.83333   0.21383   0.00000  Uiso   1.00
O610   O     0.87334   0.70696   0.09491   0.00000  Uiso   1.00
Zn611  Zn    0.83333   0.83333   0.21771   0.00000  Uiso   1.00
Zn612  Zn    0.83333   0.83334   0.11563   0.00000  Uiso   1.00
C613   C     0.16838   0.08669   0.49998   0.00000  Uiso   1.00
C614   C     0.16030   0.02238   0.53954   0.00000  Uiso   1.00
C615   C     0.16959   0.29096   0.50172   0.00000  Uiso   1.00
C616   C     0.17057   0.04255   0.50009   0.00000  Uiso   1.00
C617   C     0.20739   0.18368   0.36205   0.00000  Uiso   1.00
C618   C     0.12600   0.14946   0.63788   0.00000  Uiso   1.00
C619   C     0.20736   0.18294   0.64714   0.00000  Uiso   1.00
C620   C     0.12583   0.15059   0.35282   0.00000  Uiso   1.00
C621   C     0.32698   0.12908   0.44841   0.00000  Uiso   1.00
C622   C     0.00564   0.20309   0.55163   0.00000  Uiso   1.00
C623   C     0.17386   0.03814   0.38639   0.00000  Uiso   1.00
C624   C     0.16754   0.24672   0.50048   0.00000  Uiso   1.00
C625   C     0.20257   0.05606   0.34924   0.00000  Uiso   1.00
C626   C     0.11273   0.30201   0.60118   0.00000  Uiso   1.00
C627   C     0.10935   0.27333   0.64134   0.00000  Uiso   1.00
C628   C     0.26480   0.23797   0.37874   0.00000  Uiso   1.00
C629   C     0.30005   0.25681   0.41862   0.00000  Uiso   1.00
C630   C     0.06403   0.09694   0.62218   0.00000  Uiso   1.00
C631   C     0.00859   0.10293   0.63340   0.00000  Uiso   1.00
C632   C     0.06741   0.16577   0.48856   0.00000  Uiso   1.00
C633   C     0.26589   0.16694   0.51140   0.00000  Uiso   1.00
C634   C     0.01369   0.15852   0.48390   0.00000  Uiso   1.00
C635   C     0.31955   0.17371   0.51607   0.00000  Uiso   1.00
C636   C     0.18367   0.02056   0.46200   0.00000  Uiso   1.00
C637   C     0.16018   0.31306   0.54120   0.00000  Uiso   1.00
C638   C     0.18241   0.31120   0.46308   0.00000  Uiso   1.00
H639   H     0.19366   0.29386   0.43439   0.00000  Uiso   1.00
H640   H     0.07793   0.29707   0.57548   0.00000  Uiso   1.00
H641   H     0.11248   0.00099   0.61436   0.00000  Uiso   1.00
H642   H     0.07284   0.27956   0.65636   0.00000  Uiso   1.00
H643   H     0.10994   0.24052   0.62997   0.00000  Uiso   1.00
H644   H     0.14306   0.27827   0.33452   0.00000  Uiso   1.00
H645   H     0.23040   0.25880   0.37063   0.00000  Uiso   1.00
H646   H     0.28729   0.23635   0.34916   0.00000  Uiso   1.00
H647   H     0.00310   0.23819   0.42559   0.00000  Uiso   1.00
H648   H     0.31025   0.28904   0.41038   0.00000  Uiso   1.00
H649   H     0.28000   0.25730   0.44967   0.00000  Uiso   1.00
H650   H     0.15410   0.03986   0.56970   0.00000  Uiso   1.00
H651   H     0.08832   0.08152   0.65104   0.00000  Uiso   1.00
H652   H     0.06276   0.07509   0.59285   0.00000  Uiso   1.00
H653   H     0.31649   0.11447   0.60296   0.00000  Uiso   1.00
H654   H     0.32647   0.07292   0.64383   0.00000  Uiso   1.00
H655   H     0.00777   0.12571   0.66162   0.00000  Uiso   1.00
H656   H     0.24005   0.19485   0.63203   0.00000  Uiso   1.00
H657   H     0.09310   0.13871   0.36790   0.00000  Uiso   1.00
H658   H     0.13769   0.05655   0.38839   0.00000  Uiso   1.00
H659   H     0.16317   0.00573   0.37658   0.00000  Uiso   1.00
H660   H     0.23794   0.03722   0.34574   0.00000  Uiso   1.00
H661   H     0.17702   0.05583   0.64954   0.00000  Uiso   1.00
H662   H     0.21434   0.08848   0.35788   0.00000  Uiso   1.00
N663   N     0.16665   0.16666   0.61907   0.00000  Uiso   1.00
N664   N     0.16668   0.16668   0.38093   0.00000  Uiso   1.00
N665   N     0.31121   0.10565   0.42024   0.00000  Uiso   1.00
N666   N     0.02018   0.22651   0.58010   0.00000  Uiso   1.00
O667   O     0.16666   0.10558   0.53821   0.00000  Uiso   1.00
O668   O     0.15921   0.29305   0.58257   0.00000  Uiso   1.00
O669   O     0.25005   0.19788   0.39092   0.00000  Uiso   1.00
O670   O     0.08355   0.13520   0.60865   0.00000  Uiso   1.00
O671   O     0.16667   0.22775   0.46179   0.00000  Uiso   1.00
O672   O     0.16666   0.10559   0.46176   0.00000  Uiso   1.00
O673   O     0.16667   0.22774   0.53824   0.00000  Uiso   1.00
O674   O     0.09058   0.16666   0.52928   0.00000  Uiso   1.00
O675   O     0.24275   0.16667   0.47072   0.00000  Uiso   1.00
O676   O     0.09058   0.16667   0.45284   0.00000  Uiso   1.00
O677   O     0.24275   0.16666   0.54716   0.00000  Uiso   1.00
O678   O     0.20667   0.04029   0.42824   0.00000  Uiso   1.00
Zn679  Zn    0.16667   0.16666   0.55104   0.00000  Uiso   1.00
Zn680  Zn    0.16667   0.16667   0.44896   0.00000  Uiso   1.00
C681   C     0.50172   0.08669   0.49998   0.00000  Uiso   1.00
C682   C     0.49363   0.02238   0.53954   0.00000  Uiso   1.00
C683   C     0.50292   0.29096   0.50172   0.00000  Uiso   1.00
C684   C     0.50390   0.04255   0.50009   0.00000  Uiso   1.00
C685   C     0.54073   0.18368   0.36205   0.00000  Uiso   1.00
C686   C     0.45934   0.14946   0.63788   0.00000  Uiso   1.00
C687   C     0.54069   0.18294   0.64714   0.00000  Uiso   1.00
C688   C     0.45917   0.15059   0.35282   0.00000  Uiso   1.00
C689   C     0.66031   0.12908   0.44841   0.00000  Uiso   1.00
C690   C     0.33898   0.20309   0.55163   0.00000  Uiso   1.00
C691   C     0.50719   0.03814   0.38639   0.00000  Uiso   1.00
C692   C     0.50087   0.24672   0.50048   0.00000  Uiso   1.00
C693   C     0.53590   0.05606   0.34924   0.00000  Uiso   1.00
C694   C     0.44606   0.30201   0.60118   0.00000  Uiso   1.00
C695   C     0.44268   0.27333   0.64134   0.00000  Uiso   1.00
C696   C     0.59814   0.23797   0.37874   0.00000  Uiso   1.00
C697   C     0.63339   0.25681   0.41862   0.00000  Uiso   1.00
C698   C     0.39736   0.09694   0.62218   0.00000  Uiso   1.00
C699   C     0.34192   0.10293   0.63340   0.00000  Uiso   1.00
C700   C     0.40074   0.16577   0.48856   0.00000  Uiso   1.00
C701   C     0.59922   0.16694   0.51140   0.00000  Uiso   1.00
C702   C     0.34703   0.15852   0.48390   0.00000  Uiso   1.00
C703   C     0.65288   0.17371   0.51607   0.00000  Uiso   1.00
C704   C     0.51700   0.02056   0.46200   0.00000  Uiso   1.00
C705   C     0.49351   0.31306   0.54120   0.00000  Uiso   1.00
C706   C     0.51575   0.31120   0.46308   0.00000  Uiso   1.00
H707   H     0.52699   0.29386   0.43439   0.00000  Uiso   1.00
H708   H     0.41126   0.29707   0.57548   0.00000  Uiso   1.00
H709   H     0.44581   0.00099   0.61436   0.00000  Uiso   1.00
H710   H     0.40617   0.27956   0.65636   0.00000  Uiso   1.00
H711   H     0.44327   0.24052   0.62997   0.00000  Uiso   1.00
H712   H     0.47640   0.27827   0.33452   0.00000  Uiso   1.00
H713   H     0.56373   0.25880   0.37063   0.00000  Uiso   1.00
H714   H     0.62063   0.23635   0.34916   0.00000  Uiso   1.00
H715   H     0.33643   0.23819   0.42559   0.00000  Uiso   1.00
H716   H     0.64358   0.28904   0.41038   0.00000  Uiso   1.00
H717   H     0.61333   0.25730   0.44967   0.00000  Uiso   1.00
H718   H     0.48744   0.03986   0.56970   0.00000  Uiso   1.00
H719   H     0.42165   0.08152   0.65104   0.00000  Uiso   1.00
H720   H     0.39610   0.07509   0.59285   0.00000  Uiso   1.00
H721   H     0.64982   0.11447   0.60296   0.00000  Uiso   1.00
H722   H     0.65980   0.07292   0.64383   0.00000  Uiso   1.00
H723   H     0.34110   0.12571   0.66162   0.00000  Uiso   1.00
H724   H     0.57338   0.19485   0.63203   0.00000  Uiso   1.00
H725   H     0.42643   0.13871   0.36790   0.00000  Uiso   1.00
H726   H     0.47103   0.05655   0.38839   0.00000  Uiso   1.00
H727   H     0.49650   0.00573   0.37658   0.00000  Uiso   1.00
H728   H     0.57127   0.03722   0.34574   0.00000  Uiso   1.00
H729   H     0.51036   0.05583   0.64954   0.00000  Uiso   1.00
H730   H     0.54767   0.08848   0.35788   0.00000  Uiso   1.00
N731   N     0.49999   0.16666   0.61907   0.00000  Uiso   1.00
N732   N     0.50001   0.16668   0.38093   0.00000  Uiso   1.00
N733   N     0.64454   0.10565   0.42024   0.00000  Uiso   1.00
N734   N     0.35351   0.22651   0.58010   0.00000  Uiso   1.00
O735   O     0.50000   0.10558   0.53821   0.00000  Uiso   1.00
O736   O     0.49255   0.29305   0.58257   0.00000  Uiso   1.00
O737   O     0.58338   0.19788   0.39092   0.00000  Uiso   1.00
O738   O     0.41688   0.13520   0.60865   0.00000  Uiso   1.00
O739   O     0.50000   0.22775   0.46179   0.00000  Uiso   1.00
O740   O     0.50000   0.10559   0.46176   0.00000  Uiso   1.00
O741   O     0.50000   0.22774   0.53824   0.00000  Uiso   1.00
O742   O     0.42392   0.16666   0.52928   0.00000  Uiso   1.00
O743   O     0.57608   0.16667   0.47072   0.00000  Uiso   1.00
O744   O     0.42392   0.16667   0.45284   0.00000  Uiso   1.00
O745   O     0.57608   0.16666   0.54716   0.00000  Uiso   1.00
O746   O     0.54000   0.04029   0.42824   0.00000  Uiso   1.00
Zn747  Zn    0.50000   0.16666   0.55104   0.00000  Uiso   1.00
Zn748  Zn    0.50000   0.16667   0.44896   0.00000  Uiso   1.00
C749   C     0.83505   0.08669   0.49998   0.00000  Uiso   1.00
C750   C     0.82696   0.02238   0.53954   0.00000  Uiso   1.00
C751   C     0.83625   0.29096   0.50172   0.00000  Uiso   1.00
C752   C     0.83723   0.04255   0.50009   0.00000  Uiso   1.00
C753   C     0.87406   0.18368   0.36205   0.00000  Uiso   1.00
C754   C     0.79267   0.14946   0.63788   0.00000  Uiso   1.00
C755   C     0.87402   0.18294   0.64714   0.00000  Uiso   1.00
C756   C     0.79250   0.15059   0.35282   0.00000  Uiso   1.00
C757   C     0.99364   0.12908   0.44841   0.00000  Uiso   1.00
C758   C     0.67231   0.20309   0.55163   0.00000  Uiso   1.00
C759   C     0.84052   0.03814   0.38639   0.00000  Uiso   1.00
C760   C     0.83421   0.24672   0.50048   0.00000  Uiso   1.00
C761   C     0.86923   0.05606   0.34924   0.00000  Uiso   1.00
C762   C     0.77939   0.30201   0.60118   0.00000  Uiso   1.00
C763   C     0.77602   0.27333   0.64134   0.00000  Uiso   1.00
C764   C     0.93147   0.23797   0.37874   0.00000  Uiso   1.00
C765   C     0.96672   0.25681   0.41862   0.00000  Uiso   1.00
C766   C     0.73069   0.09694   0.62218   0.00000  Uiso   1.00
C767   C     0.67525   0.10293   0.63340   0.00000  Uiso   1.00
C768   C     0.73408   0.16577   0.48856   0.00000  Uiso   1.00
C769   C     0.93256   0.16694   0.51140   0.00000  Uiso   1.00
C770   C     0.68036   0.15852   0.48390   0.00000  Uiso   1.00
C771   C     0.98621   0.17371   0.51607   0.00000  Uiso   1.00
C772   C     0.85033   0.02056   0.46200   0.00000  Uiso   1.00
C773   C     0.82684   0.31306   0.54120   0.00000  Uiso   1.00
C774   C     0.84908   0.31120   0.46308   0.00000  Uiso   1.00
H775   H     0.86033   0.29386   0.43439   0.00000  Uiso   1.00
H776   H     0.74459   0.29707   0.57548   0.00000  Uiso   1.00
H777   H     0.77914   0.00099   0.61436   0.00000  Uiso   1.00
H778   H     0.73951   0.27956   0.65636   0.00000  Uiso   1.00
H779   H     0.77661   0.24052   0.62997   0.00000  Uiso   1.00
H780   H     0.80973   0.27827   0.33452   0.00000  Uiso   1.00
H781   H     0.89706   0.25880   0.37063   0.00000  Uiso   1.00
H782   H     0.95396   0.23635   0.34916   0.00000  Uiso   1.00
H783   H     0.66976   0.23819   0.42559   0.00000  Uiso   1.00
H784   H     0.97691   0.28904   0.41038   0.00000  Uiso   1.00
H785   H     0.94666   0.25730   0.44967   0.00000  Uiso   1.00
H786   H     0.82077   0.03986   0.56970   0.00000  Uiso   1.00
H787   H     0.75499   0.08152   0.65104   0.00000  Uiso   1.00
H788   H     0.72943   0.07509   0.59285   0.00000  Uiso   1.00
H789   H     0.98315   0.11447   0.60296   0.00000  Uiso   1.00
H790   H     0.99313   0.07292   0.64383   0.00000  Uiso   1.00
H791   H     0.67444   0.12571   0.66162   0.00000  Uiso   1.00
H792   H     0.90671   0.19485   0.63203   0.00000  Uiso   1.00
H793   H     0.75977   0.13871   0.36790   0.00000  Uiso   1.00
H794   H     0.80436   0.05655   0.38839   0.00000  Uiso   1.00
H795   H     0.82983   0.00573   0.37658   0.00000  Uiso   1.00
H796   H     0.90461   0.03722   0.34574   0.00000  Uiso   1.00
H797   H     0.84369   0.05583   0.64954   0.00000  Uiso   1.00
H798   H     0.88100   0.08848   0.35788   0.00000  Uiso   1.00
N799   N     0.83332   0.16666   0.61907   0.00000  Uiso   1.00
N800   N     0.83335   0.16668   0.38093   0.00000  Uiso   1.00
N801   N     0.97787   0.10565   0.42024   0.00000  Uiso   1.00
N802   N     0.68684   0.22651   0.58010   0.00000  Uiso   1.00
O803   O     0.83333   0.10558   0.53821   0.00000  Uiso   1.00
O804   O     0.82588   0.29305   0.58257   0.00000  Uiso   1.00
O805   O     0.91672   0.19788   0.39092   0.00000  Uiso   1.00
O806   O     0.75022   0.13520   0.60865   0.00000  Uiso   1.00
O807   O     0.83334   0.22775   0.46179   0.00000  Uiso   1.00
O808   O     0.83333   0.10559   0.46176   0.00000  Uiso   1.00
O809   O     0.83334   0.22774   0.53824   0.00000  Uiso   1.00
O810   O     0.75725   0.16666   0.52928   0.00000  Uiso   1.00
O811   O     0.90942   0.16667   0.47072   0.00000  Uiso   1.00
O812   O     0.75725   0.16667   0.45284   0.00000  Uiso   1.00
O813   O     0.90942   0.16666   0.54716   0.00000  Uiso   1.00
O814   O     0.87334   0.04029   0.42824   0.00000  Uiso   1.00
Zn815  Zn    0.83333   0.16666   0.55104   0.00000  Uiso   1.00
Zn816  Zn    0.83333   0.16667   0.44896   0.00000  Uiso   1.00
C817   C     0.16838   0.42003   0.49998   0.00000  Uiso   1.00
C818   C     0.16030   0.35572   0.53954   0.00000  Uiso   1.00
C819   C     0.16959   0.62429   0.50172   0.00000  Uiso   1.00
C820   C     0.17057   0.37589   0.50009   0.00000  Uiso   1.00
C821   C     0.20739   0.51701   0.36205   0.00000  Uiso   1.00
C822   C     0.12600   0.48280   0.63788   0.00000  Uiso   1.00
C823   C     0.20736   0.51627   0.64714   0.00000  Uiso   1.00
C824   C     0.12583   0.48393   0.35282   0.00000  Uiso   1.00
C825   C     0.32698   0.46241   0.44841   0.00000  Uiso   1.00
C826   C     0.00564   0.53642   0.55163   0.00000  Uiso   1.00
C827   C     0.17386   0.37148   0.38639   0.00000  Uiso   1.00
C828   C     0.16754   0.58006   0.50048   0.00000  Uiso   1.00
C829   C     0.20257   0.38940   0.34924   0.00000  Uiso   1.00
C830   C     0.11273   0.63534   0.60118   0.00000  Uiso   1.00
C831   C     0.10935   0.60666   0.64134   0.00000  Uiso   1.00
C832   C     0.26480   0.57131   0.37874   0.00000  Uiso   1.00
C833   C     0.30005   0.59014   0.41862   0.00000  Uiso   1.00
C834   C     0.06403   0.43028   0.62218   0.00000  Uiso   1.00
C835   C     0.00859   0.43627   0.63340   0.00000  Uiso   1.00
C836   C     0.06741   0.49911   0.48856   0.00000  Uiso   1.00
C837   C     0.26589   0.50028   0.51140   0.00000  Uiso   1.00
C838   C     0.01369   0.49185   0.48390   0.00000  Uiso   1.00
C839   C     0.31955   0.50704   0.51607   0.00000  Uiso   1.00
C840   C     0.18367   0.35389   0.46200   0.00000  Uiso   1.00
C841   C     0.16018   0.64639   0.54120   0.00000  Uiso   1.00
C842   C     0.18241   0.64453   0.46308   0.00000  Uiso   1.00
H843   H     0.19366   0.62720   0.43439   0.00000  Uiso   1.00
H844   H     0.07793   0.63040   0.57548   0.00000  Uiso   1.00
H845   H     0.11248   0.33433   0.61436   0.00000  Uiso   1.00
H846   H     0.07284   0.61289   0.65636   0.00000  Uiso   1.00
H847   H     0.10994   0.57386   0.62997   0.00000  Uiso   1.00
H848   H     0.14306   0.61160   0.33452   0.00000  Uiso   1.00
H849   H     0.23040   0.59213   0.37063   0.00000  Uiso   1.00
H850   H     0.28729   0.56968   0.34916   0.00000  Uiso   1.00
H851   H     0.00310   0.57152   0.42559   0.00000  Uiso   1.00
H852   H     0.31025   0.62237   0.41038   0.00000  Uiso   1.00
H853   H     0.28000   0.59063   0.44967   0.00000  Uiso   1.00
H854   H     0.15410   0.37320   0.56970   0.00000  Uiso   1.00
H855   H     0.08832   0.41486   0.65104   0.00000  Uiso   1.00
H856   H     0.06276   0.40842   0.59285   0.00000  Uiso   1.00
H857   H     0.31649   0.44781   0.60296   0.00000  Uiso   1.00
H858   H     0.32647   0.40625   0.64383   0.00000  Uiso   1.00
H859   H     0.00777   0.45904   0.66162   0.00000  Uiso   1.00
H860   H     0.24005   0.52819   0.63203   0.00000  Uiso   1.00
H861   H     0.09310   0.47204   0.36790   0.00000  Uiso   1.00
H862   H     0.13769   0.38989   0.38839   0.00000  Uiso   1.00
H863   H     0.16317   0.33907   0.37658   0.00000  Uiso   1.00
H864   H     0.23794   0.37055   0.34574   0.00000  Uiso   1.00
H865   H     0.17702   0.38916   0.64954   0.00000  Uiso   1.00
H866   H     0.21434   0.42181   0.35788   0.00000  Uiso   1.00
N867   N     0.16665   0.49999   0.61907   0.00000  Uiso   1.00
N868   N     0.16668   0.50001   0.38093   0.00000  Uiso   1.00
N869   N     0.31121   0.43899   0.42024   0.00000  Uiso   1.00
N870   N     0.02018   0.55984   0.58010   0.00000  Uiso   1.00
O871   O     0.16666   0.43892   0.53821   0.00000  Uiso   1.00
O872   O     0.15921   0.62639   0.58257   0.00000  Uiso   1.00
O873   O     0.25005   0.53122   0.39092   0.00000  Uiso   1.00
O874   O     0.08355   0.46854   0.60865   0.00000  Uiso   1.00
O875   O     0.16667   0.56108   0.46179   0.00000  Uiso   1.00
O876   O     0.16666   0.43893   0.46176   0.00000  Uiso   1.00
O877   O     0.16667   0.56107   0.53824   0.00000  Uiso   1.00
O878   O     0.09058   0.50000   0.52928   0.00000  Uiso   1.00
O879   O     0.24275   0.50000   0.47072   0.00000  Uiso   1.00
O880   O     0.09058   0.50000   0.45284   0.00000  Uiso   1.00
O881   O     0.24275   0.50000   0.54716   0.00000  Uiso   1.00
O882   O     0.20667   0.37362   0.42824   0.00000  Uiso   1.00
Zn883  Zn    0.16667   0.49999   0.55104   0.00000  Uiso   1.00
Zn884  Zn    0.16667   0.50001   0.44896   0.00000  Uiso   1.00
C885   C     0.50172   0.42003   0.49998   0.00000  Uiso   1.00
C886   C     0.49363   0.35572   0.53954   0.00000  Uiso   1.00
C887   C     0.50292   0.62429   0.50172   0.00000  Uiso   1.00
C888   C     0.50390   0.37589   0.50009   0.00000  Uiso   1.00
C889   C     0.54073   0.51701   0.36205   0.00000  Uiso   1.00
C890   C     0.45934   0.48280   0.63788   0.00000  Uiso   1.00
C891   C     0.54069   0.51627   0.64714   0.00000  Uiso   1.00
C892   C     0.45917   0.48393   0.35282   0.00000  Uiso   1.00
C893   C     0.66031   0.46241   0.44841   0.00000  Uiso   1.00
C894   C     0.33898   0.53642   0.55163   0.00000  Uiso   1.00
C895   C     0.50719   0.37148   0.38639   0.00000  Uiso   1.00
C896   C     0.50087   0.58006   0.50048   0.00000  Uiso   1.00
C897   C     0.53590   0.38940   0.34924   0.00000  Uiso   1.00
C898   C     0.44606   0.63534   0.60118   0.00000  Uiso   1.00
C899   C     0.44268   0.60666   0.64134   0.00000  Uiso   1.00
C900   C     0.59814   0.57131   0.37874   0.00000  Uiso   1.00
C901   C     0.63339   0.59014   0.41862   0.00000  Uiso   1.00
C902   C     0.39736   0.43028   0.62218   0.00000  Uiso   1.00
C903   C     0.34192   0.43627   0.63340   0.00000  Uiso   1.00
C904   C     0.40074   0.49911   0.48856   0.00000  Uiso   1.00
C905   C     0.59922   0.50028   0.51140   0.00000  Uiso   1.00
C906   C     0.34703   0.49185   0.48390   0.00000  Uiso   1.00
C907   C     0.65288   0.50704   0.51607   0.00000  Uiso   1.00
C908   C     0.51700   0.35389   0.46200   0.00000  Uiso   1.00
C909   C     0.49351   0.64639   0.54120   0.00000  Uiso   1.00
C910   C     0.51575   0.64453   0.46308   0.00000  Uiso   1.00
H911   H     0.52699   0.62720   0.43439   0.00000  Uiso   1.00
H912   H     0.41126   0.63040   0.57548   0.00000  Uiso   1.00
H913   H     0.44581   0.33433   0.61436   0.00000  Uiso   1.00
H914   H     0.40617   0.61289   0.65636   0.00000  Uiso   1.00
H915   H     0.44327   0.57386   0.62997   0.00000  Uiso   1.00
H916   H     0.47640   0.61160   0.33452   0.00000  Uiso   1.00
H917   H     0.56373   0.59213   0.37063   0.00000  Uiso   1.00
H918   H     0.62063   0.56968   0.34916   0.00000  Uiso   1.00
H919   H     0.33643   0.57152   0.42559   0.00000  Uiso   1.00
H920   H     0.64358   0.62237   0.41038   0.00000  Uiso   1.00
H921   H     0.61333   0.59063   0.44967   0.00000  Uiso   1.00
H922   H     0.48744   0.37320   0.56970   0.00000  Uiso   1.00
H923   H     0.42165   0.41486   0.65104   0.00000  Uiso   1.00
H924   H     0.39610   0.40842   0.59285   0.00000  Uiso   1.00
H925   H     0.64982   0.44781   0.60296   0.00000  Uiso   1.00
H926   H     0.65980   0.40625   0.64383   0.00000  Uiso   1.00
H927   H     0.34110   0.45904   0.66162   0.00000  Uiso   1.00
H928   H     0.57338   0.52819   0.63203   0.00000  Uiso   1.00
H929   H     0.42643   0.47204   0.36790   0.00000  Uiso   1.00
H930   H     0.47103   0.38989   0.38839   0.00000  Uiso   1.00
H931   H     0.49650   0.33907   0.37658   0.00000  Uiso   1.00
H932   H     0.57127   0.37055   0.34574   0.00000  Uiso   1.00
H933   H     0.51036   0.38916   0.64954   0.00000  Uiso   1.00
H934   H     0.54767   0.42181   0.35788   0.00000  Uiso   1.00
N935   N     0.49999   0.49999   0.61907   0.00000  Uiso   1.00
N936   N     0.50001   0.50001   0.38093   0.00000  Uiso   1.00
N937   N     0.64454   0.43899   0.42024   0.00000  Uiso   1.00
N938   N     0.35351   0.55984   0.58010   0.00000  Uiso   1.00
O939   O     0.50000   0.43892   0.53821   0.00000  Uiso   1.00
O940   O     0.49255   0.62639   0.58257   0.00000  Uiso   1.00
O941   O     0.58338   0.53122   0.39092   0.00000  Uiso   1.00
O942   O     0.41688   0.46854   0.60865   0.00000  Uiso   1.00
O943   O     0.50000   0.56108   0.46179   0.00000  Uiso   1.00
O944   O     0.50000   0.43893   0.46176   0.00000  Uiso   1.00
O945   O     0.50000   0.56107   0.53824   0.00000  Uiso   1.00
O946   O     0.42392   0.50000   0.52928   0.00000  Uiso   1.00
O947   O     0.57608   0.50000   0.47072   0.00000  Uiso   1.00
O948   O     0.42392   0.50000   0.45284   0.00000  Uiso   1.00
O949   O     0.57608   0.50000   0.54716   0.00000  Uiso   1.00
O950   O     0.54000   0.37362   0.42824   0.00000  Uiso   1.00
Zn951  Zn    0.50000   0.49999   0.55104   0.00000  Uiso   1.00
Zn952  Zn    0.50000   0.50001   0.44896   0.00000  Uiso   1.00
C953   C     0.83505   0.42003   0.49998   0.00000  Uiso   1.00
C954   C     0.82696   0.35572   0.53954   0.00000  Uiso   1.00
C955   C     0.83625   0.62429   0.50172   0.00000  Uiso   1.00
C956   C     0.83723   0.37589   0.50009   0.00000  Uiso   1.00
C957   C     0.87406   0.51701   0.36205   0.00000  Uiso   1.00
C958   C     0.79267   0.48280   0.63788   0.00000  Uiso   1.00
C959   C     0.87402   0.51627   0.64714   0.00000  Uiso   1.00
C960   C     0.79250   0.48393   0.35282   0.00000  Uiso   1.00
C961   C     0.99364   0.46241   0.44841   0.00000  Uiso   1.00
C962   C     0.67231   0.53642   0.55163   0.00000  Uiso   1.00
C963   C     0.84052   0.37148   0.38639   0.00000  Uiso   1.00
C964   C     0.83421   0.58006   0.50048   0.00000  Uiso   1.00
C965   C     0.86923   0.38940   0.34924   0.00000  Uiso   1.00
C966   C     0.77939   0.63534   0.60118   0.00000  Uiso   1.00
C967   C     0.77602   0.60666   0.64134   0.00000  Uiso   1.00
C968   C     0.93147   0.57131   0.37874   0.00000  Uiso   1.00
C969   C     0.96672   0.59014   0.41862   0.00000  Uiso   1.00
C970   C     0.73069   0.43028   0.62218   0.00000  Uiso   1.00
C971   C     0.67525   0.43627   0.63340   0.00000  Uiso   1.00
C972   C     0.73408   0.49911   0.48856   0.00000  Uiso   1.00
C973   C     0.93256   0.50028   0.51140   0.00000  Uiso   1.00
C974   C     0.68036   0.49185   0.48390   0.00000  Uiso   1.00
C975   C     0.98621   0.50704   0.51607   0.00000  Uiso   1.00
C976   C     0.85033   0.35389   0.46200   0.00000  Uiso   1.00
C977   C     0.82684   0.64639   0.54120   0.00000  Uiso   1.00
C978   C     0.84908   0.64453   0.46308   0.00000  Uiso   1.00
H979   H     0.86033   0.62720   0.43439   0.00000  Uiso   1.00
H980   H     0.74459   0.63040   0.57548   0.00000  Uiso   1.00
H981   H     0.77914   0.33433   0.61436   0.00000  Uiso   1.00
H982   H     0.73951   0.61289   0.65636   0.00000  Uiso   1.00
H983   H     0.77661   0.57386   0.62997   0.00000  Uiso   1.00
H984   H     0.80973   0.61160   0.33452   0.00000  Uiso   1.00
H985   H     0.89706   0.59213   0.37063   0.00000  Uiso   1.00
H986   H     0.95396   0.56968   0.34916   0.00000  Uiso   1.00
H987   H     0.66976   0.57152   0.42559   0.00000  Uiso   1.00
H988   H     0.97691   0.62237   0.41038   0.00000  Uiso   1.00
H989   H     0.94666   0.59063   0.44967   0.00000  Uiso   1.00
H990   H     0.82077   0.37320   0.56970   0.00000  Uiso   1.00
H991   H     0.75499   0.41486   0.65104   0.00000  Uiso   1.00
H992   H     0.72943   0.40842   0.59285   0.00000  Uiso   1.00
H993   H     0.98315   0.44781   0.60296   0.00000  Uiso   1.00
H994   H     0.99313   0.40625   0.64383   0.00000  Uiso   1.00
H995   H     0.67444   0.45904   0.66162   0.00000  Uiso   1.00
H996   H     0.90671   0.52819   0.63203   0.00000  Uiso   1.00
H997   H     0.75977   0.47204   0.36790   0.00000  Uiso   1.00
H998   H     0.80436   0.38989   0.38839   0.00000  Uiso   1.00
H999   H     0.82983   0.33907   0.37658   0.00000  Uiso   1.00
H1000  H     0.90461   0.37055   0.34574   0.00000  Uiso   1.00
H1001  H     0.84369   0.38916   0.64954   0.00000  Uiso   1.00
H1002  H     0.88100   0.42181   0.35788   0.00000  Uiso   1.00
N1003  N     0.83332   0.49999   0.61907   0.00000  Uiso   1.00
N1004  N     0.83335   0.50001   0.38093   0.00000  Uiso   1.00
N1005  N     0.97787   0.43899   0.42024   0.00000  Uiso   1.00
N1006  N     0.68684   0.55984   0.58010   0.00000  Uiso   1.00
O1007  O     0.83333   0.43892   0.53821   0.00000  Uiso   1.00
O1008  O     0.82588   0.62639   0.58257   0.00000  Uiso   1.00
O1009  O     0.91672   0.53122   0.39092   0.00000  Uiso   1.00
O1010  O     0.75022   0.46854   0.60865   0.00000  Uiso   1.00
O1011  O     0.83334   0.56108   0.46179   0.00000  Uiso   1.00
O1012  O     0.83333   0.43893   0.46176   0.00000  Uiso   1.00
O1013  O     0.83334   0.56107   0.53824   0.00000  Uiso   1.00
O1014  O     0.75725   0.50000   0.52928   0.00000  Uiso   1.00
O1015  O     0.90942   0.50000   0.47072   0.00000  Uiso   1.00
O1016  O     0.75725   0.50000   0.45284   0.00000  Uiso   1.00
O1017  O     0.90942   0.50000   0.54716   0.00000  Uiso   1.00
O1018  O     0.87334   0.37362   0.42824   0.00000  Uiso   1.00
Zn1019 Zn    0.83333   0.49999   0.55104   0.00000  Uiso   1.00
Zn1020 Zn    0.83333   0.50001   0.44896   0.00000  Uiso   1.00
C1021  C     0.16838   0.75336   0.49998   0.00000  Uiso   1.00
C1022  C     0.16030   0.68905   0.53954   0.00000  Uiso   1.00
C1023  C     0.16959   0.95763   0.50172   0.00000  Uiso   1.00
C1024  C     0.17057   0.70922   0.50009   0.00000  Uiso   1.00
C1025  C     0.20739   0.85035   0.36205   0.00000  Uiso   1.00
C1026  C     0.12600   0.81613   0.63788   0.00000  Uiso   1.00
C1027  C     0.20736   0.84961   0.64714   0.00000  Uiso   1.00
C1028  C     0.12583   0.81726   0.35282   0.00000  Uiso   1.00
C1029  C     0.32698   0.79574   0.44841   0.00000  Uiso   1.00
C1030  C     0.00564   0.86975   0.55163   0.00000  Uiso   1.00
C1031  C     0.17386   0.70481   0.38639   0.00000  Uiso   1.00
C1032  C     0.16754   0.91339   0.50048   0.00000  Uiso   1.00
C1033  C     0.20257   0.72273   0.34924   0.00000  Uiso   1.00
C1034  C     0.11273   0.96867   0.60118   0.00000  Uiso   1.00
C1035  C     0.10935   0.93999   0.64134   0.00000  Uiso   1.00
C1036  C     0.26480   0.90464   0.37874   0.00000  Uiso   1.00
C1037  C     0.30005   0.92347   0.41862   0.00000  Uiso   1.00
C1038  C     0.06403   0.76361   0.62218   0.00000  Uiso   1.00
C1039  C     0.00859   0.76960   0.63340   0.00000  Uiso   1.00
C1040  C     0.06741   0.83244   0.48856   0.00000  Uiso   1.00
C1041  C     0.26589   0.83361   0.51140   0.00000  Uiso   1.00
C1042  C     0.01369   0.82519   0.48390   0.00000  Uiso   1.00
C1043  C     0.31955   0.84038   0.51607   0.00000  Uiso   1.00
C1044  C     0.18367   0.68722   0.46200   0.00000  Uiso   1.00
C1045  C     0.16018   0.97972   0.54120   0.00000  Uiso   1.00
C1046  C     0.18241   0.97786   0.46308   0.00000  Uiso   1.00
H1047  H     0.19366   0.96053   0.43439   0.00000  Uiso   1.00
H1048  H     0.07793   0.96374   0.57548   0.00000  Uiso   1.00
H1049  H     0.11248   0.66766   0.61436   0.00000  Uiso   1.00
H1050  H     0.07284   0.94622   0.65636   0.00000  Uiso   1.00
H1051  H     0.10994   0.90719   0.62997   0.00000  Uiso   1.00
H1052  H     0.14306   0.94493   0.33452   0.00000  Uiso   1.00
H1053  H     0.23040   0.92546   0.37063   0.00000  Uiso   1.00
H1054  H     0.28729   0.90301   0.34916   0.00000  Uiso   1.00
H1055  H     0.00310   0.90486   0.42559   0.00000  Uiso   1.00
H1056  H     0.31025   0.95571   0.41038   0.00000  Uiso   1.00
H1057  H     0.28000   0.92396   0.44967   0.00000  Uiso   1.00
H1058  H     0.15410   0.70653   0.56970   0.00000  Uiso   1.00
H1059  H     0.08832   0.74819   0.65104   0.00000  Uiso   1.00
H1060  H     0.06276   0.74176   0.59285   0.00000  Uiso   1.00
H1061  H     0.31649   0.78114   0.60296   0.00000  Uiso   1.00
H1062  H     0.32647   0.73958   0.64383   0.00000  Uiso   1.00
H1063  H     0.00777   0.79238   0.66162   0.00000  Uiso   1.00
H1064  H     0.24005   0.86152   0.63203   0.00000  Uiso   1.00
H1065  H     0.09310   0.80538   0.36790   0.00000  Uiso   1.00
H1066  H     0.13769   0.72322   0.38839   0.00000  Uiso   1.00
H1067  H     0.16317   0.67240   0.37658   0.00000  Uiso   1.00
H1068  H     0.23794   0.70388   0.34574   0.00000  Uiso   1.00
H1069  H     0.17702   0.72249   0.64954   0.00000  Uiso   1.00
H1070  H     0.21434   0.75514   0.35788   0.00000  Uiso   1.00
N1071  N     0.16665   0.83332   0.61907   0.00000  Uiso   1.00
N1072  N     0.16668   0.83334   0.38093   0.00000  Uiso   1.00
N1073  N     0.31121   0.77232   0.42024   0.00000  Uiso   1.00
N1074  N     0.02018   0.89317   0.58010   0.00000  Uiso   1.00
O1075  O     0.16666   0.77225   0.53821   0.00000  Uiso   1.00
O1076  O     0.15921   0.95972   0.58257   0.00000  Uiso   1.00
O1077  O     0.25005   0.86455   0.39092   0.00000  Uiso   1.00
O1078  O     0.08355   0.80187   0.60865   0.00000  Uiso   1.00
O1079  O     0.16667   0.89442   0.46179   0.00000  Uiso   1.00
O1080  O     0.16666   0.77226   0.46176   0.00000  Uiso   1.00
O1081  O     0.16667   0.89441   0.53824   0.00000  Uiso   1.00
O1082  O     0.09058   0.83333   0.52928   0.00000  Uiso   1.00
O1083  O     0.24275   0.83334   0.47072   0.00000  Uiso   1.00
O1084  O     0.09058   0.83334   0.45284   0.00000  Uiso   1.00
O1085  O     0.24275   0.83333   0.54716   0.00000  Uiso   1.00
O1086  O     0.20667   0.70696   0.42824   0.00000  Uiso   1.00
Zn1087 Zn    0.16667   0.83333   0.55104   0.00000  Uiso   1.00
Zn1088 Zn    0.16667   0.83334   0.44896   0.00000  Uiso   1.00
C1089  C     0.50172   0.75336   0.49998   0.00000  Uiso   1.00
C1090  C     0.49363   0.68905   0.53954   0.00000  Uiso   1.00
C1091  C     0.50292   0.95763   0.50172   0.00000  Uiso   1.00
C1092  C     0.50390   0.70922   0.50009   0.00000  Uiso   1.00
C1093  C     0.54073   0.85035   0.36205   0.00000  Uiso   1.00
C1094  C     0.45934   0.81613   0.63788   0.00000  Uiso   1.00
C1095  C     0.54069   0.84961   0.64714   0.00000  Uiso   1.00
C1096  C     0.45917   0.81726   0.35282   0.00000  Uiso   1.00
C1097  C     0.66031   0.79574   0.44841   0.00000  Uiso   1.00
C1098  C     0.33898   0.86975   0.55163   0.00000  Uiso   1.00
C1099  C     0.50719   0.70481   0.38639   0.00000  Uiso   1.00
C1100  C     0.50087   0.91339   0.50048   0.00000  Uiso   1.00
C1101  C     0.53590   0.72273   0.34924   0.00000  Uiso   1.00
C1102  C     0.44606   0.96867   0.60118   0.00000  Uiso   1.00
C1103  C     0.44268   0.93999   0.64134   0.00000  Uiso   1.00
C1104  C     0.59814   0.90464   0.37874   0.00000  Uiso   1.00
C1105  C     0.63339   0.92347   0.41862   0.00000  Uiso   1.00
C1106  C     0.39736   0.76361   0.62218   0.00000  Uiso   1.00
C1107  C     0.34192   0.76960   0.63340   0.00000  Uiso   1.00
C1108  C     0.40074   0.83244   0.48856   0.00000  Uiso   1.00
C1109  C     0.59922   0.83361   0.51140   0.00000  Uiso   1.00
C1110  C     0.34703   0.82519   0.48390   0.00000  Uiso   1.00
C1111  C     0.65288   0.84038   0.51607   0.00000  Uiso   1.00
C1112  C     0.51700   0.68722   0.46200   0.00000  Uiso   1.00
C1113  C     0.49351   0.97972   0.54120   0.00000  Uiso   1.00
C1114  C     0.51575   0.97786   0.46308   0.00000  Uiso   1.00
H1115  H     0.52699   0.96053   0.43439   0.00000  Uiso   1.00
H1116  H     0.41126   0.96374   0.57548   0.00000  Uiso   1.00
H1117  H     0.44581   0.66766   0.61436   0.00000  Uiso   1.00
H1118  H     0.40617   0.94622   0.65636   0.00000  Uiso   1.00
H1119  H     0.44327   0.90719   0.62997   0.00000  Uiso   1.00
H1120  H     0.47640   0.94493   0.33452   0.00000  Uiso   1.00
H1121  H     0.56373   0.92546   0.37063   0.00000  Uiso   1.00
H1122  H     0.62063   0.90301   0.34916   0.00000  Uiso   1.00
H1123  H     0.33643   0.90486   0.42559   0.00000  Uiso   1.00
H1124  H     0.64358   0.95571   0.41038   0.00000  Uiso   1.00
H1125  H     0.61333   0.92396   0.44967   0.00000  Uiso   1.00
H1126  H     0.48744   0.70653   0.56970   0.00000  Uiso   1.00
H1127  H     0.42165   0.74819   0.65104   0.00000  Uiso   1.00
H1128  H     0.39610   0.74176   0.59285   0.00000  Uiso   1.00
H1129  H     0.64982   0.78114   0.60296   0.00000  Uiso   1.00
H1130  H     0.65980   0.73958   0.64383   0.00000  Uiso   1.00
H1131  H     0.34110   0.79238   0.66162   0.00000  Uiso   1.00
H1132  H     0.57338   0.86152   0.63203   0.00000  Uiso   1.00
H1133  H     0.42643   0.80538   0.36790   0.00000  Uiso   1.00
H1134  H     0.47103   0.72322   0.38839   0.00000  Uiso   1.00
H1135  H     0.49650   0.67240   0.37658   0.00000  Uiso   1.00
H1136  H     0.57127   0.70388   0.34574   0.00000  Uiso   1.00
H1137  H     0.51036   0.72249   0.64954   0.00000  Uiso   1.00
H1138  H     0.54767   0.75514   0.35788   0.00000  Uiso   1.00
N1139  N     0.49999   0.83332   0.61907   0.00000  Uiso   1.00
N1140  N     0.50001   0.83334   0.38093   0.00000  Uiso   1.00
N1141  N     0.64454   0.77232   0.42024   0.00000  Uiso   1.00
N1142  N     0.35351   0.89317   0.58010   0.00000  Uiso   1.00
O1143  O     0.50000   0.77225   0.53821   0.00000  Uiso   1.00
O1144  O     0.49255   0.95972   0.58257   0.00000  Uiso   1.00
O1145  O     0.58338   0.86455   0.39092   0.00000  Uiso   1.00
O1146  O     0.41688   0.80187   0.60865   0.00000  Uiso   1.00
O1147  O     0.50000   0.89442   0.46179   0.00000  Uiso   1.00
O1148  O     0.50000   0.77226   0.46176   0.00000  Uiso   1.00
O1149  O     0.50000   0.89441   0.53824   0.00000  Uiso   1.00
O1150  O     0.42392   0.83333   0.52928   0.00000  Uiso   1.00
O1151  O     0.57608   0.83334   0.47072   0.00000  Uiso   1.00
O1152  O     0.42392   0.83334   0.45284   0.00000  Uiso   1.00
O1153  O     0.57608   0.83333   0.54716   0.00000  Uiso   1.00
O1154  O     0.54000   0.70696   0.42824   0.00000  Uiso   1.00
Zn1155 Zn    0.50000   0.83333   0.55104   0.00000  Uiso   1.00
Zn1156 Zn    0.50000   0.83334   0.44896   0.00000  Uiso   1.00
C1157  C     0.83505   0.75336   0.49998   0.00000  Uiso   1.00
C1158  C     0.82696   0.68905   0.53954   0.00000  Uiso   1.00
C1159  C     0.83625   0.95763   0.50172   0.00000  Uiso   1.00
C1160  C     0.83723   0.70922   0.50009   0.00000  Uiso   1.00
C1161  C     0.87406   0.85035   0.36205   0.00000  Uiso   1.00
C1162  C     0.79267   0.81613   0.63788   0.00000  Uiso   1.00
C1163  C     0.87402   0.84961   0.64714   0.00000  Uiso   1.00
C1164  C     0.79250   0.81726   0.35282   0.00000  Uiso   1.00
C1165  C     0.99364   0.79574   0.44841   0.00000  Uiso   1.00
C1166  C     0.67231   0.86975   0.55163   0.00000  Uiso   1.00
C1167  C     0.84052   0.70481   0.38639   0.00000  Uiso   1.00
C1168  C     0.83421   0.91339   0.50048   0.00000  Uiso   1.00
C1169  C     0.86923   0.72273   0.34924   0.00000  Uiso   1.00
C1170  C     0.77939   0.96867   0.60118   0.00000  Uiso   1.00
C1171  C     0.77602   0.93999   0.64134   0.00000  Uiso   1.00
C1172  C     0.93147   0.90464   0.37874   0.00000  Uiso   1.00
C1173  C     0.96672   0.92347   0.41862   0.00000  Uiso   1.00
C1174  C     0.73069   0.76361   0.62218   0.00000  Uiso   1.00
C1175  C     0.67525   0.76960   0.63340   0.00000  Uiso   1.00
C1176  C     0.73408   0.83244   0.48856   0.00000  Uiso   1.00
C1177  C     0.93256   0.83361   0.51140   0.00000  Uiso   1.00
C1178  C     0.68036   0.82519   0.48390   0.00000  Uiso   1.00
C1179  C     0.98621   0.84038   0.51607   0.00000  Uiso   1.00
C1180  C     0.85033   0.68722   0.46200   0.00000  Uiso   1.00
C1181  C     0.82684   0.97972   0.54120   0.00000  Uiso   1.00
C1182  C     0.84908   0.97786   0.46308   0.00000  Uiso   1.00
H1183  H     0.86033   0.96053   0.43439   0.00000  Uiso   1.00
H1184  H     0.74459   0.96374   0.57548   0.00000  Uiso   1.00
H1185  H     0.77914   0.66766   0.61436   0.00000  Uiso   1.00
H1186  H     0.73951   0.94622   0.65636   0.00000  Uiso   1.00
H1187  H     0.77661   0.90719   0.62997   0.00000  Uiso   1.00
H1188  H     0.80973   0.94493   0.33452   0.00000  Uiso   1.00
H1189  H     0.89706   0.92546   0.37063   0.00000  Uiso   1.00
H1190  H     0.95396   0.90301   0.34916   0.00000  Uiso   1.00
H1191  H     0.66976   0.90486   0.42559   0.00000  Uiso   1.00
H1192  H     0.97691   0.95571   0.41038   0.00000  Uiso   1.00
H1193  H     0.94666   0.92396   0.44967   0.00000  Uiso   1.00
H1194  H     0.82077   0.70653   0.56970   0.00000  Uiso   1.00
H1195  H     0.75499   0.74819   0.65104   0.00000  Uiso   1.00
H1196  H     0.72943   0.74176   0.59285   0.00000  Uiso   1.00
H1197  H     0.98315   0.78114   0.60296   0.00000  Uiso   1.00
H1198  H     0.99313   0.73958   0.64383   0.00000  Uiso   1.00
H1199  H     0.67444   0.79238   0.66162   0.00000  Uiso   1.00
H1200  H     0.90671   0.86152   0.63203   0.00000  Uiso   1.00
H1201  H     0.75977   0.80538   0.36790   0.00000  Uiso   1.00
H1202  H     0.80436   0.72322   0.38839   0.00000  Uiso   1.00
H1203  H     0.82983   0.67240   0.37658   0.00000  Uiso   1.00
H1204  H     0.90461   0.70388   0.34574   0.00000  Uiso   1.00
H1205  H     0.84369   0.72249   0.64954   0.00000  Uiso   1.00
H1206  H     0.88100   0.75514   0.35788   0.00000  Uiso   1.00
N1207  N     0.83332   0.83332   0.61907   0.00000  Uiso   1.00
N1208  N     0.83335   0.83334   0.38093   0.00000  Uiso   1.00
N1209  N     0.97787   0.77232   0.42024   0.00000  Uiso   1.00
N1210  N     0.68684   0.89317   0.58010   0.00000  Uiso   1.00
O1211  O     0.83333   0.77225   0.53821   0.00000  Uiso   1.00
O1212  O     0.82588   0.95972   0.58257   0.00000  Uiso   1.00
O1213  O     0.91672   0.86455   0.39092   0.00000  Uiso   1.00
O1214  O     0.75022   0.80187   0.60865   0.00000  Uiso   1.00
O1215  O     0.83334   0.89442   0.46179   0.00000  Uiso   1.00
O1216  O     0.83333   0.77226   0.46176   0.00000  Uiso   1.00
O1217  O     0.83334   0.89441   0.53824   0.00000  Uiso   1.00
O1218  O     0.75725   0.83333   0.52928   0.00000  Uiso   1.00
O1219  O     0.90942   0.83334   0.47072   0.00000  Uiso   1.00
O1220  O     0.75725   0.83334   0.45284   0.00000  Uiso   1.00
O1221  O     0.90942   0.83333   0.54716   0.00000  Uiso   1.00
O1222  O     0.87334   0.70696   0.42824   0.00000  Uiso   1.00
Zn1223 Zn    0.83333   0.83333   0.55104   0.00000  Uiso   1.00
Zn1224 Zn    0.83333   0.83334   0.44896   0.00000  Uiso   1.00
C1225  C     0.16838   0.08669   0.83332   0.00000  Uiso   1.00
C1226  C     0.16030   0.02238   0.87287   0.00000  Uiso   1.00
C1227  C     0.16959   0.29096   0.83506   0.00000  Uiso   1.00
C1228  C     0.17057   0.04255   0.83342   0.00000  Uiso   1.00
C1229  C     0.20739   0.18368   0.69538   0.00000  Uiso   1.00
C1230  C     0.12600   0.14946   0.97121   0.00000  Uiso   1.00
C1231  C     0.20736   0.18294   0.98047   0.00000  Uiso   1.00
C1232  C     0.12583   0.15059   0.68615   0.00000  Uiso   1.00
C1233  C     0.32698   0.12908   0.78174   0.00000  Uiso   1.00
C1234  C     0.00564   0.20309   0.88496   0.00000  Uiso   1.00
C1235  C     0.17386   0.03814   0.71972   0.00000  Uiso   1.00
C1236  C     0.16754   0.24672   0.83381   0.00000  Uiso   1.00
C1237  C     0.20257   0.05606   0.68257   0.00000  Uiso   1.00
C1238  C     0.11273   0.30201   0.93451   0.00000  Uiso   1.00
C1239  C     0.10935   0.27333   0.97467   0.00000  Uiso   1.00
C1240  C     0.26480   0.23797   0.71208   0.00000  Uiso   1.00
C1241  C     0.30005   0.25681   0.75196   0.00000  Uiso   1.00
C1242  C     0.06403   0.09694   0.95551   0.00000  Uiso   1.00
C1243  C     0.00859   0.10293   0.96674   0.00000  Uiso   1.00
C1244  C     0.06741   0.16577   0.82190   0.00000  Uiso   1.00
C1245  C     0.26589   0.16694   0.84474   0.00000  Uiso   1.00
C1246  C     0.01369   0.15852   0.81724   0.00000  Uiso   1.00
C1247  C     0.31955   0.17371   0.84941   0.00000  Uiso   1.00
C1248  C     0.18367   0.02056   0.79533   0.00000  Uiso   1.00
C1249  C     0.16018   0.31306   0.87454   0.00000  Uiso   1.00
C1250  C     0.18241   0.31120   0.79641   0.00000  Uiso   1.00
H1251  H     0.19366   0.29386   0.76772   0.00000  Uiso   1.00
H1252  H     0.07793   0.29707   0.90881   0.00000  Uiso   1.00
H1253  H     0.11248   0.00099   0.94769   0.00000  Uiso   1.00
H1254  H     0.07284   0.27956   0.98969   0.00000  Uiso   1.00
H1255  H     0.10994   0.24052   0.96331   0.00000  Uiso   1.00
H1256  H     0.14306   0.27827   0.66785   0.00000  Uiso   1.00
H1257  H     0.23040   0.25880   0.70397   0.00000  Uiso   1.00
H1258  H     0.28729   0.23635   0.68250   0.00000  Uiso   1.00
H1259  H     0.00310   0.23819   0.75893   0.00000  Uiso   1.00
H1260  H     0.31025   0.28904   0.74371   0.00000  Uiso   1.00
H1261  H     0.28000   0.25730   0.78301   0.00000  Uiso   1.00
H1262  H     0.15410   0.03986   0.90304   0.00000  Uiso   1.00
H1263  H     0.08832   0.08152   0.98438   0.00000  Uiso   1.00
H1264  H     0.06276   0.07509   0.92619   0.00000  Uiso   1.00
H1265  H     0.31649   0.11447   0.93630   0.00000  Uiso   1.00
H1266  H     0.32647   0.07292   0.97716   0.00000  Uiso   1.00
H1267  H     0.00777   0.12571   0.99496   0.00000  Uiso   1.00
H1268  H     0.24005   0.19485   0.96536   0.00000  Uiso   1.00
H1269  H     0.09310   0.13871   0.70123   0.00000  Uiso   1.00
H1270  H     0.13769   0.05655   0.72172   0.00000  Uiso   1.00
H1271  H     0.16317   0.00573   0.70991   0.00000  Uiso   1.00
H1272  H     0.23794   0.03722   0.67908   0.00000  Uiso   1.00
H1273  H     0.17702   0.05583   0.98287   0.00000  Uiso   1.00
H1274  H     0.21434   0.08848   0.69122   0.00000  Uiso   1.00
N1275  N     0.16665   0.16666   0.95240   0.00000  Uiso   1.00
N1276  N     0.16668   0.16668   0.71427   0.00000  Uiso   1.00
N1277  N     0.31121   0.10565   0.75358   0.00000  Uiso   1.00
N1278  N     0.02018   0.22651   0.91343   0.00000  Uiso   1.00
O1279  O     0.16666   0.10558   0.87154   0.00000  Uiso   1.00
O1280  O     0.15921   0.29305   0.91591   0.00000  Uiso   1.00
O1281  O     0.25005   0.19788   0.72425   0.00000  Uiso   1.00
O1282  O     0.08355   0.13520   0.94198   0.00000  Uiso   1.00
O1283  O     0.16667   0.22775   0.79513   0.00000  Uiso   1.00
O1284  O     0.16666   0.10559   0.79510   0.00000  Uiso   1.00
O1285  O     0.16667   0.22774   0.87157   0.00000  Uiso   1.00
O1286  O     0.09058   0.16666   0.86261   0.00000  Uiso   1.00
O1287  O     0.24275   0.16667   0.80405   0.00000  Uiso   1.00
O1288  O     0.09058   0.16667   0.78617   0.00000  Uiso   1.00
O1289  O     0.24275   0.16666   0.88050   0.00000  Uiso   1.00
O1290  O     0.20667   0.04029   0.76158   0.00000  Uiso   1.00
Zn1291 Zn    0.16667   0.16666   0.88437   0.00000  Uiso   1.00
Zn1292 Zn    0.16667   0.16667   0.78229   0.00000  Uiso   1.00
C1293  C     0.50172   0.08669   0.83332   0.00000  Uiso   1.00
C1294  C     0.49363   0.02238   0.87287   0.00000  Uiso   1.00
C1295  C     0.50292   0.29096   0.83506   0.00000  Uiso   1.00
C1296  C     0.50390   0.04255   0.83342   0.00000  Uiso   1.00
C1297  C     0.54073   0.18368   0.69538   0.00000  Uiso   1.00
C1298  C     0.45934   0.14946   0.97121   0.00000  Uiso   1.00
C1299  C     0.54069   0.18294   0.98047   0.00000  Uiso   1.00
C1300  C     0.45917   0.15059   0.68615   0.00000  Uiso   1.00
C1301  C     0.66031   0.12908   0.78174   0.00000  Uiso   1.00
C1302  C     0.33898   0.20309   0.88496   0.00000  Uiso   1.00
C1303  C     0.50719   0.03814   0.71972   0.00000  Uiso   1.00
C1304  C     0.50087   0.24672   0.83381   0.00000  Uiso   1.00
C1305  C     0.53590   0.05606   0.68257   0.00000  Uiso   1.00
C1306  C     0.44606   0.30201   0.93451   0.00000  Uiso   1.00
C1307  C     0.44268   0.27333   0.97467   0.00000  Uiso   1.00
C1308  C     0.59814   0.23797   0.71208   0.00000  Uiso   1.00
C1309  C     0.63339   0.25681   0.75196   0.00000  Uiso   1.00
C1310  C     0.39736   0.09694   0.95551   0.00000  Uiso   1.00
C1311  C     0.34192   0.10293   0.96674   0.00000  Uiso   1.00
C1312  C     0.40074   0.16577   0.82190   0.00000  Uiso   1.00
C1313  C     0.59922   0.16694   0.84474   0.00000  Uiso   1.00
C1314  C     0.34703   0.15852   0.81724   0.00000  Uiso   1.00
C1315  C     0.65288   0.17371   0.84941   0.00000  Uiso   1.00
C1316  C     0.51700   0.02056   0.79533   0.00000  Uiso   1.00
C1317  C     0.49351   0.31306   0.87454   0.00000  Uiso   1.00
C1318  C     0.51575   0.31120   0.79641   0.00000  Uiso   1.00
H1319  H     0.52699   0.29386   0.76772   0.00000  Uiso   1.00
H1320  H     0.41126   0.29707   0.90881   0.00000  Uiso   1.00
H1321  H     0.44581   0.00099   0.94769   0.00000  Uiso   1.00
H1322  H     0.40617   0.27956   0.98969   0.00000  Uiso   1.00
H1323  H     0.44327   0.24052   0.96331   0.00000  Uiso   1.00
H1324  H     0.47640   0.27827   0.66785   0.00000  Uiso   1.00
H1325  H     0.56373   0.25880   0.70397   0.00000  Uiso   1.00
H1326  H     0.62063   0.23635   0.68250   0.00000  Uiso   1.00
H1327  H     0.33643   0.23819   0.75893   0.00000  Uiso   1.00
H1328  H     0.64358   0.28904   0.74371   0.00000  Uiso   1.00
H1329  H     0.61333   0.25730   0.78301   0.00000  Uiso   1.00
H1330  H     0.48744   0.03986   0.90304   0.00000  Uiso   1.00
H1331  H     0.42165   0.08152   0.98438   0.00000  Uiso   1.00
H1332  H     0.39610   0.07509   0.92619   0.00000  Uiso   1.00
H1333  H     0.64982   0.11447   0.93630   0.00000  Uiso   1.00
H1334  H     0.65980   0.07292   0.97716   0.00000  Uiso   1.00
H1335  H     0.34110   0.12571   0.99496   0.00000  Uiso   1.00
H1336  H     0.57338   0.19485   0.96536   0.00000  Uiso   1.00
H1337  H     0.42643   0.13871   0.70123   0.00000  Uiso   1.00
H1338  H     0.47103   0.05655   0.72172   0.00000  Uiso   1.00
H1339  H     0.49650   0.00573   0.70991   0.00000  Uiso   1.00
H1340  H     0.57127   0.03722   0.67908   0.00000  Uiso   1.00
H1341  H     0.51036   0.05583   0.98287   0.00000  Uiso   1.00
H1342  H     0.54767   0.08848   0.69122   0.00000  Uiso   1.00
N1343  N     0.49999   0.16666   0.95240   0.00000  Uiso   1.00
N1344  N     0.50001   0.16668   0.71427   0.00000  Uiso   1.00
N1345  N     0.64454   0.10565   0.75358   0.00000  Uiso   1.00
N1346  N     0.35351   0.22651   0.91343   0.00000  Uiso   1.00
O1347  O     0.50000   0.10558   0.87154   0.00000  Uiso   1.00
O1348  O     0.49255   0.29305   0.91591   0.00000  Uiso   1.00
O1349  O     0.58338   0.19788   0.72425   0.00000  Uiso   1.00
O1350  O     0.41688   0.13520   0.94198   0.00000  Uiso   1.00
O1351  O     0.50000   0.22775   0.79513   0.00000  Uiso   1.00
O1352  O     0.50000   0.10559   0.79510   0.00000  Uiso   1.00
O1353  O     0.50000   0.22774   0.87157   0.00000  Uiso   1.00
O1354  O     0.42392   0.16666   0.86261   0.00000  Uiso   1.00
O1355  O     0.57608   0.16667   0.80405   0.00000  Uiso   1.00
O1356  O     0.42392   0.16667   0.78617   0.00000  Uiso   1.00
O1357  O     0.57608   0.16666   0.88050   0.00000  Uiso   1.00
O1358  O     0.54000   0.04029   0.76158   0.00000  Uiso   1.00
Zn1359 Zn    0.50000   0.16666   0.88437   0.00000  Uiso   1.00
Zn1360 Zn    0.50000   0.16667   0.78229   0.00000  Uiso   1.00
C1361  C     0.83505   0.08669   0.83332   0.00000  Uiso   1.00
C1362  C     0.82696   0.02238   0.87287   0.00000  Uiso   1.00
C1363  C     0.83625   0.29096   0.83506   0.00000  Uiso   1.00
C1364  C     0.83723   0.04255   0.83342   0.00000  Uiso   1.00
C1365  C     0.87406   0.18368   0.69538   0.00000  Uiso   1.00
C1366  C     0.79267   0.14946   0.97121   0.00000  Uiso   1.00
C1367  C     0.87402   0.18294   0.98047   0.00000  Uiso   1.00
C1368  C     0.79250   0.15059   0.68615   0.00000  Uiso   1.00
C1369  C     0.99364   0.12908   0.78174   0.00000  Uiso   1.00
C1370  C     0.67231   0.20309   0.88496   0.00000  Uiso   1.00
C1371  C     0.84052   0.03814   0.71972   0.00000  Uiso   1.00
C1372  C     0.83421   0.24672   0.83381   0.00000  Uiso   1.00
C1373  C     0.86923   0.05606   0.68257   0.00000  Uiso   1.00
C1374  C     0.77939   0.30201   0.93451   0.00000  Uiso   1.00
C1375  C     0.77602   0.27333   0.97467   0.00000  Uiso   1.00
C1376  C     0.93147   0.23797   0.71208   0.00000  Uiso   1.00
C1377  C     0.96672   0.25681   0.75196   0.00000  Uiso   1.00
C1378  C     0.73069   0.09694   0.95551   0.00000  Uiso   1.00
C1379  C     0.67525   0.10293   0.96674   0.00000  Uiso   1.00
C1380  C     0.73408   0.16577   0.82190   0.00000  Uiso   1.00
C1381  C     0.93256   0.16694   0.84474   0.00000  Uiso   1.00
C1382  C     0.68036   0.15852   0.81724   0.00000  Uiso   1.00
C1383  C     0.98621   0.17371   0.84941   0.00000  Uiso   1.00
C1384  C     0.85033   0.02056   0.79533   0.00000  Uiso   1.00
C1385  C     0.82684   0.31306   0.87454   0.00000  Uiso   1.00
C1386  C     0.84908   0.31120   0.79641   0.00000  Uiso   1.00
H1387  H     0.86033   0.29386   0.76772   0.00000  Uiso   1.00
H1388  H     0.74459   0.29707   0.90881   0.00000  Uiso   1.00
H1389  H     0.77914   0.00099   0.94769   0.00000  Uiso   1.00
H1390  H     0.73951   0.27956   0.98969   0.00000  Uiso   1.00
H1391  H     0.77661   0.24052   0.96331   0.00000  Uiso   1.00
H1392  H     0.80973   0.27827   0.66785   0.00000  Uiso   1.00
H1393  H     0.89706   0.25880   0.70397   0.00000  Uiso   1.00
H1394  H     0.95396   0.23635   0.68250   0.00000  Uiso   1.00
H1395  H     0.66976   0.23819   0.75893   0.00000  Uiso   1.00
H1396  H     0.97691   0.28904   0.74371   0.00000  Uiso   1.00
H1397  H     0.94666   0.25730   0.78301   0.00000  Uiso   1.00
H1398  H     0.82077   0.03986   0.90304   0.00000  Uiso   1.00
H1399  H     0.75499   0.08152   0.98438   0.00000  Uiso   1.00
H1400  H     0.72943   0.07509   0.92619   0.00000  Uiso   1.00
H1401  H     0.98315   0.11447   0.93630   0.00000  Uiso   1.00
H1402  H     0.99313   0.07292   0.97716   0.00000  Uiso   1.00
H1403  H     0.67444   0.12571   0.99496   0.00000  Uiso   1.00
H1404  H     0.90671   0.19485   0.96536   0.00000  Uiso   1.00
H1405  H     0.75977   0.13871   0.70123   0.00000  Uiso   1.00
H1406  H     0.80436   0.05655   0.72172   0.00000  Uiso   1.00
H1407  H     0.82983   0.00573   0.70991   0.00000  Uiso   1.00
H1408  H     0.90461   0.03722   0.67908   0.00000  Uiso   1.00
H1409  H     0.84369   0.05583   0.98287   0.00000  Uiso   1.00
H1410  H     0.88100   0.08848   0.69122   0.00000  Uiso   1.00
N1411  N     0.83332   0.16666   0.95240   0.00000  Uiso   1.00
N1412  N     0.83335   0.16668   0.71427   0.00000  Uiso   1.00
N1413  N     0.97787   0.10565   0.75358   0.00000  Uiso   1.00
N1414  N     0.68684   0.22651   0.91343   0.00000  Uiso   1.00
O1415  O     0.83333   0.10558   0.87154   0.00000  Uiso   1.00
O1416  O     0.82588   0.29305   0.91591   0.00000  Uiso   1.00
O1417  O     0.91672   0.19788   0.72425   0.00000  Uiso   1.00
O1418  O     0.75022   0.13520   0.94198   0.00000  Uiso   1.00
O1419  O     0.83334   0.22775   0.79513   0.00000  Uiso   1.00
O1420  O     0.83333   0.10559   0.79510   0.00000  Uiso   1.00
O1421  O     0.83334   0.22774   0.87157   0.00000  Uiso   1.00
O1422  O     0.75725   0.16666   0.86261   0.00000  Uiso   1.00
O1423  O     0.90942   0.16667   0.80405   0.00000  Uiso   1.00
O1424  O     0.75725   0.16667   0.78617   0.00000  Uiso   1.00
O1425  O     0.90942   0.16666   0.88050   0.00000  Uiso   1.00
O1426  O     0.87334   0.04029   0.76158   0.00000  Uiso   1.00
Zn1427 Zn    0.83333   0.16666   0.88437   0.00000  Uiso   1.00
Zn1428 Zn    0.83333   0.16667   0.78229   0.00000  Uiso   1.00
C1429  C     0.16838   0.42003   0.83332   0.00000  Uiso   1.00
C1430  C     0.16030   0.35572   0.87287   0.00000  Uiso   1.00
C1431  C     0.16959   0.62429   0.83506   0.00000  Uiso   1.00
C1432  C     0.17057   0.37589   0.83342   0.00000  Uiso   1.00
C1433  C     0.20739   0.51701   0.69538   0.00000  Uiso   1.00
C1434  C     0.12600   0.48280   0.97121   0.00000  Uiso   1.00
C1435  C     0.20736   0.51627   0.98047   0.00000  Uiso   1.00
C1436  C     0.12583   0.48393   0.68615   0.00000  Uiso   1.00
C1437  C     0.32698   0.46241   0.78174   0.00000  Uiso   1.00
C1438  C     0.00564   0.53642   0.88496   0.00000  Uiso   1.00
C1439  C     0.17386   0.37148   0.71972   0.00000  Uiso   1.00
C1440  C     0.16754   0.58006   0.83381   0.00000  Uiso   1.00
C1441  C     0.20257   0.38940   0.68257   0.00000  Uiso   1.00
C1442  C     0.11273   0.63534   0.93451   0.00000  Uiso   1.00
C1443  C     0.10935   0.60666   0.97467   0.00000  Uiso   1.00
C1444  C     0.26480   0.57131   0.71208   0.00000  Uiso   1.00
C1445  C     0.30005   0.59014   0.75196   0.00000  Uiso   1.00
C1446  C     0.06403   0.43028   0.95551   0.00000  Uiso   1.00
C1447  C     0.00859   0.43627   0.96674   0.00000  Uiso   1.00
C1448  C     0.06741   0.49911   0.82190   0.00000  Uiso   1.00
C1449  C     0.26589   0.50028   0.84474   0.00000  Uiso   1.00
C1450  C     0.01369   0.49185   0.81724   0.00000  Uiso   1.00
C1451  C     0.31955   0.50704   0.84941   0.00000  Uiso   1.00
C1452  C     0.18367   0.35389   0.79533   0.00000  Uiso   1.00
C1453  C     0.16018   0.64639   0.87454   0.00000  Uiso   1.00
C1454  C     0.18241   0.64453   0.79641   0.00000  Uiso   1.00
H1455  H     0.19366   0.62720   0.76772   0.00000  Uiso   1.00
H1456  H     0.07793   0.63040   0.90881   0.00000  Uiso   1.00
H1457  H     0.11248   0.33433   0.94769   0.00000  Uiso   1.00
H1458  H     0.07284   0.61289   0.98969   0.00000  Uiso   1.00
H1459  H     0.10994   0.57386   0.96331   0.00000  Uiso   1.00
H1460  H     0.14306   0.61160   0.66785   0.00000  Uiso   1.00
H1461  H     0.23040   0.59213   0.70397   0.00000  Uiso   1.00
H1462  H     0.28729   0.56968   0.68250   0.00000  Uiso   1.00
H1463  H     0.00310   0.57152   0.75893   0.00000  Uiso   1.00
H1464  H     0.31025   0.62237   0.74371   0.00000  Uiso   1.00
H1465  H     0.28000   0.59063   0.78301   0.00000  Uiso   1.00
H1466  H     0.15410   0.37320   0.90304   0.00000  Uiso   1.00
H1467  H     0.08832   0.41486   0.98438   0.00000  Uiso   1.00
H1468  H     0.06276   0.40842   0.92619   0.00000  Uiso   1.00
H1469  H     0.31649   0.44781   0.93630   0.00000  Uiso   1.00
H1470  H     0.32647   0.40625   0.97716   0.00000  Uiso   1.00
H1471  H     0.00777   0.45904   0.99496   0.00000  Uiso   1.00
H1472  H     0.24005   0.52819   0.96536   0.00000  Uiso   1.00
H1473  H     0.09310   0.47204   0.70123   0.00000  Uiso   1.00
H1474  H     0.13769   0.38989   0.72172   0.00000  Uiso   1.00
H1475  H     0.16317   0.33907   0.70991   0.00000  Uiso   1.00
H1476  H     0.23794   0.37055   0.67908   0.00000  Uiso   1.00
H1477  H     0.17702   0.38916   0.98287   0.00000  Uiso   1.00
H1478  H     0.21434   0.42181   0.69122   0.00000  Uiso   1.00
N1479  N     0.16665   0.49999   0.95240   0.00000  Uiso   1.00
N1480  N     0.16668   0.50001   0.71427   0.00000  Uiso   1.00
N1481  N     0.31121   0.43899   0.75358   0.00000  Uiso   1.00
N1482  N     0.02018   0.55984   0.91343   0.00000  Uiso   1.00
O1483  O     0.16666   0.43892   0.87154   0.00000  Uiso   1.00
O1484  O     0.15921   0.62639   0.91591   0.00000  Uiso   1.00
O1485  O     0.25005   0.53122   0.72425   0.00000  Uiso   1.00
O1486  O     0.08355   0.46854   0.94198   0.00000  Uiso   1.00
O1487  O     0.16667   0.56108   0.79513   0.00000  Uiso   1.00
O1488  O     0.16666   0.43893   0.79510   0.00000  Uiso   1.00
O1489  O     0.16667   0.56107   0.87157   0.00000  Uiso   1.00
O1490  O     0.09058   0.50000   0.86261   0.00000  Uiso   1.00
O1491  O     0.24275   0.50000   0.80405   0.00000  Uiso   1.00
O1492  O     0.09058   0.50000   0.78617   0.00000  Uiso   1.00
O1493  O     0.24275   0.50000   0.88050   0.00000  Uiso   1.00
O1494  O     0.20667   0.37362   0.76158   0.00000  Uiso   1.00
Zn1495 Zn    0.16667   0.49999   0.88437   0.00000  Uiso   1.00
Zn1496 Zn    0.16667   0.50001   0.78229   0.00000  Uiso   1.00
C1497  C     0.50172   0.42003   0.83332   0.00000  Uiso   1.00
C1498  C     0.49363   0.35572   0.87287   0.00000  Uiso   1.00
C1499  C     0.50292   0.62429   0.83506   0.00000  Uiso   1.00
C1500  C     0.50390   0.37589   0.83342   0.00000  Uiso   1.00
C1501  C     0.54073   0.51701   0.69538   0.00000  Uiso   1.00
C1502  C     0.45934   0.48280   0.97121   0.00000  Uiso   1.00
C1503  C     0.54069   0.51627   0.98047   0.00000  Uiso   1.00
C1504  C     0.45917   0.48393   0.68615   0.00000  Uiso   1.00
C1505  C     0.66031   0.46241   0.78174   0.00000  Uiso   1.00
C1506  C     0.33898   0.53642   0.88496   0.00000  Uiso   1.00
C1507  C     0.50719   0.37148   0.71972   0.00000  Uiso   1.00
C1508  C     0.50087   0.58006   0.83381   0.00000  Uiso   1.00
C1509  C     0.53590   0.38940   0.68257   0.00000  Uiso   1.00
C1510  C     0.44606   0.63534   0.93451   0.00000  Uiso   1.00
C1511  C     0.44268   0.60666   0.97467   0.00000  Uiso   1.00
C1512  C     0.59814   0.57131   0.71208   0.00000  Uiso   1.00
C1513  C     0.63339   0.59014   0.75196   0.00000  Uiso   1.00
C1514  C     0.39736   0.43028   0.95551   0.00000  Uiso   1.00
C1515  C     0.34192   0.43627   0.96674   0.00000  Uiso   1.00
C1516  C     0.40074   0.49911   0.82190   0.00000  Uiso   1.00
C1517  C     0.59922   0.50028   0.84474   0.00000  Uiso   1.00
C1518  C     0.34703   0.49185   0.81724   0.00000  Uiso   1.00
C1519  C     0.65288   0.50704   0.84941   0.00000  Uiso   1.00
C1520  C     0.51700   0.35389   0.79533   0.00000  Uiso   1.00
C1521  C     0.49351   0.64639   0.87454   0.00000  Uiso   1.00
C1522  C     0.51575   0.64453   0.79641   0.00000  Uiso   1.00
H1523  H     0.52699   0.62720   0.76772   0.00000  Uiso   1.00
H1524  H     0.41126   0.63040   0.90881   0.00000  Uiso   1.00
H1525  H     0.44581   0.33433   0.94769   0.00000  Uiso   1.00
H1526  H     0.40617   0.61289   0.98969   0.00000  Uiso   1.00
H1527  H     0.44327   0.57386   0.96331   0.00000  Uiso   1.00
H1528  H     0.47640   0.61160   0.66785   0.00000  Uiso   1.00
H1529  H     0.56373   0.59213   0.70397   0.00000  Uiso   1.00
H1530  H     0.62063   0.56968   0.68250   0.00000  Uiso   1.00
H1531  H     0.33643   0.57152   0.75893   0.00000  Uiso   1.00
H1532  H     0.64358   0.62237   0.74371   0.00000  Uiso   1.00
H1533  H     0.61333   0.59063   0.78301   0.00000  Uiso   1.00
H1534  H     0.48744   0.37320   0.90304   0.00000  Uiso   1.00
H1535  H     0.42165   0.41486   0.98438   0.00000  Uiso   1.00
H1536  H     0.39610   0.40842   0.92619   0.00000  Uiso   1.00
H1537  H     0.64982   0.44781   0.93630   0.00000  Uiso   1.00
H1538  H     0.65980   0.40625   0.97716   0.00000  Uiso   1.00
H1539  H     0.34110   0.45904   0.99496   0.00000  Uiso   1.00
H1540  H     0.57338   0.52819   0.96536   0.00000  Uiso   1.00
H1541  H     0.42643   0.47204   0.70123   0.00000  Uiso   1.00
H1542  H     0.47103   0.38989   0.72172   0.00000  Uiso   1.00
H1543  H     0.49650   0.33907   0.70991   0.00000  Uiso   1.00
H1544  H     0.57127   0.37055   0.67908   0.00000  Uiso   1.00
H1545  H     0.51036   0.38916   0.98287   0.00000  Uiso   1.00
H1546  H     0.54767   0.42181   0.69122   0.00000  Uiso   1.00
N1547  N     0.49999   0.49999   0.95240   0.00000  Uiso   1.00
N1548  N     0.50001   0.50001   0.71427   0.00000  Uiso   1.00
N1549  N     0.64454   0.43899   0.75358   0.00000  Uiso   1.00
N1550  N     0.35351   0.55984   0.91343   0.00000  Uiso   1.00
O1551  O     0.50000   0.43892   0.87154   0.00000  Uiso   1.00
O1552  O     0.49255   0.62639   0.91591   0.00000  Uiso   1.00
O1553  O     0.58338   0.53122   0.72425   0.00000  Uiso   1.00
O1554  O     0.41688   0.46854   0.94198   0.00000  Uiso   1.00
O1555  O     0.50000   0.56108   0.79513   0.00000  Uiso   1.00
O1556  O     0.50000   0.43893   0.79510   0.00000  Uiso   1.00
O1557  O     0.50000   0.56107   0.87157   0.00000  Uiso   1.00
O1558  O     0.42392   0.50000   0.86261   0.00000  Uiso   1.00
O1559  O     0.57608   0.50000   0.80405   0.00000  Uiso   1.00
O1560  O     0.42392   0.50000   0.78617   0.00000  Uiso   1.00
O1561  O     0.57608   0.50000   0.88050   0.00000  Uiso   1.00
O1562  O     0.54000   0.37362   0.76158   0.00000  Uiso   1.00
Zn1563 Zn    0.50000   0.49999   0.88437   0.00000  Uiso   1.00
Zn1564 Zn    0.50000   0.50001   0.78229   0.00000  Uiso   1.00
C1565  C     0.83505   0.42003   0.83332   0.00000  Uiso   1.00
C1566  C     0.82696   0.35572   0.87287   0.00000  Uiso   1.00
C1567  C     0.83625   0.62429   0.83506   0.00000  Uiso   1.00
C1568  C     0.83723   0.37589   0.83342   0.00000  Uiso   1.00
C1569  C     0.87406   0.51701   0.69538   0.00000  Uiso   1.00
C1570  C     0.79267   0.48280   0.97121   0.00000  Uiso   1.00
C1571  C     0.87402   0.51627   0.98047   0.00000  Uiso   1.00
C1572  C     0.79250   0.48393   0.68615   0.00000  Uiso   1.00
C1573  C     0.99364   0.46241   0.78174   0.00000  Uiso   1.00
C1574  C     0.67231   0.53642   0.88496   0.00000  Uiso   1.00
C1575  C     0.84052   0.37148   0.71972   0.00000  Uiso   1.00
C1576  C     0.83421   0.58006   0.83381   0.00000  Uiso   1.00
C1577  C     0.86923   0.38940   0.68257   0.00000  Uiso   1.00
C1578  C     0.77939   0.63534   0.93451   0.00000  Uiso   1.00
C1579  C     0.77602   0.60666   0.97467   0.00000  Uiso   1.00
C1580  C     0.93147   0.57131   0.71208   0.00000  Uiso   1.00
C1581  C     0.96672   0.59014   0.75196   0.00000  Uiso   1.00
C1582  C     0.73069   0.43028   0.95551   0.00000  Uiso   1.00
C1583  C     0.67525   0.43627   0.96674   0.00000  Uiso   1.00
C1584  C     0.73408   0.49911   0.82190   0.00000  Uiso   1.00
C1585  C     0.93256   0.50028   0.84474   0.00000  Uiso   1.00
C1586  C     0.68036   0.49185   0.81724   0.00000  Uiso   1.00
C1587  C     0.98621   0.50704   0.84941   0.00000  Uiso   1.00
C1588  C     0.85033   0.35389   0.79533   0.00000  Uiso   1.00
C1589  C     0.82684   0.64639   0.87454   0.00000  Uiso   1.00
C1590  C     0.84908   0.64453   0.79641   0.00000  Uiso   1.00
H1591  H     0.86033   0.62720   0.76772   0.00000  Uiso   1.00
H1592  H     0.74459   0.63040   0.90881   0.00000  Uiso   1.00
H1593  H     0.77914   0.33433   0.94769   0.00000  Uiso   1.00
H1594  H     0.73951   0.61289   0.98969   0.00000  Uiso   1.00
H1595  H     0.77661   0.57386   0.96331   0.00000  Uiso   1.00
H1596  H     0.80973   0.61160   0.66785   0.00000  Uiso   1.00
H1597  H     0.89706   0.59213   0.70397   0.00000  Uiso   1.00
H1598  H     0.95396   0.56968   0.68250   0.00000  Uiso   1.00
H1599  H     0.66976   0.57152   0.75893   0.00000  Uiso   1.00
H1600  H     0.97691   0.62237   0.74371   0.00000  Uiso   1.00
H1601  H     0.94666   0.59063   0.78301   0.00000  Uiso   1.00
H1602  H     0.82077   0.37320   0.90304   0.00000  Uiso   1.00
H1603  H     0.75499   0.41486   0.98438   0.00000  Uiso   1.00
H1604  H     0.72943   0.40842   0.92619   0.00000  Uiso   1.00
H1605  H     0.98315   0.44781   0.93630   0.00000  Uiso   1.00
H1606  H     0.99313   0.40625   0.97716   0.00000  Uiso   1.00
H1607  H     0.67444   0.45904   0.99496   0.00000  Uiso   1.00
H1608  H     0.90671   0.52819   0.96536   0.00000  Uiso   1.00
H1609  H     0.75977   0.47204   0.70123   0.00000  Uiso   1.00
H1610  H     0.80436   0.38989   0.72172   0.00000  Uiso   1.00
H1611  H     0.82983   0.33907   0.70991   0.00000  Uiso   1.00
H1612  H     0.90461   0.37055   0.67908   0.00000  Uiso   1.00
H1613  H     0.84369   0.38916   0.98287   0.00000  Uiso   1.00
H1614  H     0.88100   0.42181   0.69122   0.00000  Uiso   1.00
N1615  N     0.83332   0.49999   0.95240   0.00000  Uiso   1.00
N1616  N     0.83335   0.50001   0.71427   0.00000  Uiso   1.00
N1617  N     0.97787   0.43899   0.75358   0.00000  Uiso   1.00
N1618  N     0.68684   0.55984   0.91343   0.00000  Uiso   1.00
O1619  O     0.83333   0.43892   0.87154   0.00000  Uiso   1.00
O1620  O     0.82588   0.62639   0.91591   0.00000  Uiso   1.00
O1621  O     0.91672   0.53122   0.72425   0.00000  Uiso   1.00
O1622  O     0.75022   0.46854   0.94198   0.00000  Uiso   1.00
O1623  O     0.83334   0.56108   0.79513   0.00000  Uiso   1.00
O1624  O     0.83333   0.43893   0.79510   0.00000  Uiso   1.00
O1625  O     0.83334   0.56107   0.87157   0.00000  Uiso   1.00
O1626  O     0.75725   0.50000   0.86261   0.00000  Uiso   1.00
O1627  O     0.90942   0.50000   0.80405   0.00000  Uiso   1.00
O1628  O     0.75725   0.50000   0.78617   0.00000  Uiso   1.00
O1629  O     0.90942   0.50000   0.88050   0.00000  Uiso   1.00
O1630  O     0.87334   0.37362   0.76158   0.00000  Uiso   1.00
Zn1631 Zn    0.83333   0.49999   0.88437   0.00000  Uiso   1.00
Zn1632 Zn    0.83333   0.50001   0.78229   0.00000  Uiso   1.00
C1633  C     0.16838   0.75336   0.83332   0.00000  Uiso   1.00
C1634  C     0.16030   0.68905   0.87287   0.00000  Uiso   1.00
C1635  C     0.16959   0.95763   0.83506   0.00000  Uiso   1.00
C1636  C     0.17057   0.70922   0.83342   0.00000  Uiso   1.00
C1637  C     0.20739   0.85035   0.69538   0.00000  Uiso   1.00
C1638  C     0.12600   0.81613   0.97121   0.00000  Uiso   1.00
C1639  C     0.20736   0.84961   0.98047   0.00000  Uiso   1.00
C1640  C     0.12583   0.81726   0.68615   0.00000  Uiso   1.00
C1641  C     0.32698   0.79574   0.78174   0.00000  Uiso   1.00
C1642  C     0.00564   0.86975   0.88496   0.00000  Uiso   1.00
C1643  C     0.17386   0.70481   0.71972   0.00000  Uiso   1.00
C1644  C     0.16754   0.91339   0.83381   0.00000  Uiso   1.00
C1645  C     0.20257   0.72273   0.68257   0.00000  Uiso   1.00
C1646  C     0.11273   0.96867   0.93451   0.00000  Uiso   1.00
C1647  C     0.10935   0.93999   0.97467   0.00000  Uiso   1.00
C1648  C     0.26480   0.90464   0.71208   0.00000  Uiso   1.00
C1649  C     0.30005   0.92347   0.75196   0.00000  Uiso   1.00
C1650  C     0.06403   0.76361   0.95551   0.00000  Uiso   1.00
C1651  C     0.00859   0.76960   0.96674   0.00000  Uiso   1.00
C1652  C     0.06741   0.83244   0.82190   0.00000  Uiso   1.00
C1653  C     0.26589   0.83361   0.84474   0.00000  Uiso   1.00
C1654  C     0.01369   0.82519   0.81724   0.00000  Uiso   1.00
C1655  C     0.31955   0.84038   0.84941   0.00000  Uiso   1.00
C1656  C     0.18367   0.68722   0.79533   0.00000  Uiso   1.00
C1657  C     0.16018   0.97972   0.87454   0.00000  Uiso   1.00
C1658  C     0.18241   0.97786   0.79641   0.00000  Uiso   1.00
H1659  H     0.19366   0.96053   0.76772   0.00000  Uiso   1.00
H1660  H     0.07793   0.96374   0.90881   0.00000  Uiso   1.00
H1661  H     0.11248   0.66766   0.94769   0.00000  Uiso   1.00
H1662  H     0.07284   0.94622   0.98969   0.00000  Uiso   1.00
H1663  H     0.10994   0.90719   0.96331   0.00000  Uiso   1.00
H1664  H     0.14306   0.94493   0.66785   0.00000  Uiso   1.00
H1665  H     0.23040   0.92546   0.70397   0.00000  Uiso   1.00
H1666  H     0.28729   0.90301   0.68250   0.00000  Uiso   1.00
H1667  H     0.00310   0.90486   0.75893   0.00000  Uiso   1.00
H1668  H     0.31025   0.95571   0.74371   0.00000  Uiso   1.00
H1669  H     0.28000   0.92396   0.78301   0.00000  Uiso   1.00
H1670  H     0.15410   0.70653   0.90304   0.00000  Uiso   1.00
H1671  H     0.08832   0.74819   0.98438   0.00000  Uiso   1.00
H1672  H     0.06276   0.74176   0.92619   0.00000  Uiso   1.00
H1673  H     0.31649   0.78114   0.93630   0.00000  Uiso   1.00
H1674  H     0.32647   0.73958   0.97716   0.00000  Uiso   1.00
H1675  H     0.00777   0.79238   0.99496   0.00000  Uiso   1.00
H1676  H     0.24005   0.86152   0.96536   0.00000  Uiso   1.00
H1677  H     0.09310   0.80538   0.70123   0.00000  Uiso   1.00
H1678  H     0.13769   0.72322   0.72172   0.00000  Uiso   1.00
H1679  H     0.16317   0.67240   0.70991   0.00000  Uiso   1.00
H1680  H     0.23794   0.70388   0.67908   0.00000  Uiso   1.00
H1681  H     0.17702   0.72249   0.98287   0.00000  Uiso   1.00
H1682  H     0.21434   0.75514   0.69122   0.00000  Uiso   1.00
N1683  N     0.16665   0.83332   0.95240   0.00000  Uiso   1.00
N1684  N     0.16668   0.83334   0.71427   0.00000  Uiso   1.00
N1685  N     0.31121   0.77232   0.75358   0.00000  Uiso   1.00
N1686  N     0.02018   0.89317   0.91343   0.00000  Uiso   1.00
O1687  O     0.16666   0.77225   0.87154   0.00000  Uiso   1.00
O1688  O     0.15921   0.95972   0.91591   0.00000  Uiso   1.00
O1689  O     0.25005   0.86455   0.72425   0.00000  Uiso   1.00
O1690  O     0.08355   0.80187   0.94198   0.00000  Uiso   1.00
O1691  O     0.16667   0.89442   0.79513   0.00000  Uiso   1.00
O1692  O     0.16666   0.77226   0.79510   0.00000  Uiso   1.00
O1693  O     0.16667   0.89441   0.87157   0.00000  Uiso   1.00
O1694  O     0.09058   0.83333   0.86261   0.00000  Uiso   1.00
O1695  O     0.24275   0.83334   0.80405   0.00000  Uiso   1.00
O1696  O     0.09058   0.83334   0.78617   0.00000  Uiso   1.00
O1697  O     0.24275   0.83333   0.88050   0.00000  Uiso   1.00
O1698  O     0.20667   0.70696   0.76158   0.00000  Uiso   1.00
Zn1699 Zn    0.16667   0.83333   0.88437   0.00000  Uiso   1.00
Zn1700 Zn    0.16667   0.83334   0.78229   0.00000  Uiso   1.00
C1701  C     0.50172   0.75336   0.83332   0.00000  Uiso   1.00
C1702  C     0.49363   0.68905   0.87287   0.00000  Uiso   1.00
C1703  C     0.50292   0.95763   0.83506   0.00000  Uiso   1.00
C1704  C     0.50390   0.70922   0.83342   0.00000  Uiso   1.00
C1705  C     0.54073   0.85035   0.69538   0.00000  Uiso   1.00
C1706  C     0.45934   0.81613   0.97121   0.00000  Uiso   1.00
C1707  C     0.54069   0.84961   0.98047   0.00000  Uiso   1.00
C1708  C     0.45917   0.81726   0.68615   0.00000  Uiso   1.00
C1709  C     0.66031   0.79574   0.78174   0.00000  Uiso   1.00
C1710  C     0.33898   0.86975   0.88496   0.00000  Uiso   1.00
C1711  C     0.50719   0.70481   0.71972   0.00000  Uiso   1.00
C1712  C     0.50087   0.91339   0.83381   0.00000  Uiso   1.00
C1713  C     0.53590   0.72273   0.68257   0.00000  Uiso   1.00
C1714  C     0.44606   0.96867   0.93451   0.00000  Uiso   1.00
C1715  C     0.44268   0.93999   0.97467   0.00000  Uiso   1.00
C1716  C     0.59814   0.90464   0.71208   0.00000  Uiso   1.00
C1717  C     0.63339   0.92347   0.75196   0.00000  Uiso   1.00
C1718  C     0.39736   0.76361   0.95551   0.00000  Uiso   1.00
C1719  C     0.34192   0.76960   0.96674   0.00000  Uiso   1.00
C1720  C     0.40074   0.83244   0.82190   0.00000  Uiso   1.00
C1721  C     0.59922   0.83361   0.84474   0.00000  Uiso   1.00
C1722  C     0.34703   0.82519   0.81724   0.00000  Uiso   1.00
C1723  C     0.65288   0.84038   0.84941   0.00000  Uiso   1.00
C1724  C     0.51700   0.68722   0.79533   0.00000  Uiso   1.00
C1725  C     0.49351   0.97972   0.87454   0.00000  Uiso   1.00
C1726  C     0.51575   0.97786   0.79641   0.00000  Uiso   1.00
H1727  H     0.52699   0.96053   0.76772   0.00000  Uiso   1.00
H1728  H     0.41126   0.96374   0.90881   0.00000  Uiso   1.00
H1729  H     0.44581   0.66766   0.94769   0.00000  Uiso   1.00
H1730  H     0.40617   0.94622   0.98969   0.00000  Uiso   1.00
H1731  H     0.44327   0.90719   0.96331   0.00000  Uiso   1.00
H1732  H     0.47640   0.94493   0.66785   0.00000  Uiso   1.00
H1733  H     0.56373   0.92546   0.70397   0.00000  Uiso   1.00
H1734  H     0.62063   0.90301   0.68250   0.00000  Uiso   1.00
H1735  H     0.33643   0.90486   0.75893   0.00000  Uiso   1.00
H1736  H     0.64358   0.95571   0.74371   0.00000  Uiso   1.00
H1737  H     0.61333   0.92396   0.78301   0.00000  Uiso   1.00
H1738  H     0.48744   0.70653   0.90304   0.00000  Uiso   1.00
H1739  H     0.42165   0.74819   0.98438   0.00000  Uiso   1.00
H1740  H     0.39610   0.74176   0.92619   0.00000  Uiso   1.00
H1741  H     0.64982   0.78114   0.93630   0.00000  Uiso   1.00
H1742  H     0.65980   0.73958   0.97716   0.00000  Uiso   1.00
H1743  H     0.34110   0.79238   0.99496   0.00000  Uiso   1.00
H1744  H     0.57338   0.86152   0.96536   0.00000  Uiso   1.00
H1745  H     0.42643   0.80538   0.70123   0.00000  Uiso   1.00
H1746  H     0.47103   0.72322   0.72172   0.00000  Uiso   1.00
H1747  H     0.49650   0.67240   0.70991   0.00000  Uiso   1.00
H1748  H     0.57127   0.70388   0.67908   0.00000  Uiso   1.00
H1749  H     0.51036   0.72249   0.98287   0.00000  Uiso   1.00
H1750  H     0.54767   0.75514   0.69122   0.00000  Uiso   1.00
N1751  N     0.49999   0.83332   0.95240   0.00000  Uiso   1.00
N1752  N     0.50001   0.83334   0.71427   0.00000  Uiso   1.00
N1753  N     0.64454   0.77232   0.75358   0.00000  Uiso   1.00
N1754  N     0.35351   0.89317   0.91343   0.00000  Uiso   1.00
O1755  O     0.50000   0.77225   0.87154   0.00000  Uiso   1.00
O1756  O     0.49255   0.95972   0.91591   0.00000  Uiso   1.00
O1757  O     0.58338   0.86455   0.72425   0.00000  Uiso   1.00
O1758  O     0.41688   0.80187   0.94198   0.00000  Uiso   1.00
O1759  O     0.50000   0.89442   0.79513   0.00000  Uiso   1.00
O1760  O     0.50000   0.77226   0.79510   0.00000  Uiso   1.00
O1761  O     0.50000   0.89441   0.87157   0.00000  Uiso   1.00
O1762  O     0.42392   0.83333   0.86261   0.00000  Uiso   1.00
O1763  O     0.57608   0.83334   0.80405   0.00000  Uiso   1.00
O1764  O     0.42392   0.83334   0.78617   0.00000  Uiso   1.00
O1765  O     0.57608   0.83333   0.88050   0.00000  Uiso   1.00
O1766  O     0.54000   0.70696   0.76158   0.00000  Uiso   1.00
Zn1767 Zn    0.50000   0.83333   0.88437   0.00000  Uiso   1.00
Zn1768 Zn    0.50000   0.83334   0.78229   0.00000  Uiso   1.00
C1769  C     0.83505   0.75336   0.83332   0.00000  Uiso   1.00
C1770  C     0.82696   0.68905   0.87287   0.00000  Uiso   1.00
C1771  C     0.83625   0.95763   0.83506   0.00000  Uiso   1.00
C1772  C     0.83723   0.70922   0.83342   0.00000  Uiso   1.00
C1773  C     0.87406   0.85035   0.69538   0.00000  Uiso   1.00
C1774  C     0.79267   0.81613   0.97121   0.00000  Uiso   1.00
C1775  C     0.87402   0.84961   0.98047   0.00000  Uiso   1.00
C1776  C     0.79250   0.81726   0.68615   0.00000  Uiso   1.00
C1777  C     0.99364   0.79574   0.78174   0.00000  Uiso   1.00
C1778  C     0.67231   0.86975   0.88496   0.00000  Uiso   1.00
C1779  C     0.84052   0.70481   0.71972   0.00000  Uiso   1.00
C1780  C     0.83421   0.91339   0.83381   0.00000  Uiso   1.00
C1781  C     0.86923   0.72273   0.68257   0.00000  Uiso   1.00
C1782  C     0.77939   0.96867   0.93451   0.00000  Uiso   1.00
C1783  C     0.77602   0.93999   0.97467   0.00000  Uiso   1.00
C1784  C     0.93147   0.90464   0.71208   0.00000  Uiso   1.00
C1785  C     0.96672   0.92347   0.75196   0.00000  Uiso   1.00
C1786  C     0.73069   0.76361   0.95551   0.00000  Uiso   1.00
C1787  C     0.67525   0.76960   0.96674   0.00000  Uiso   1.00
C1788  C     0.73408   0.83244   0.82190   0.00000  Uiso   1.00
C1789  C     0.93256   0.83361   0.84474   0.00000  Uiso   1.00
C1790  C     0.68036   0.82519   0.81724   0.00000  Uiso   1.00
C1791  C     0.98621   0.84038   0.84941   0.00000  Uiso   1.00
C1792  C     0.85033   0.68722   0.79533   0.00000  Uiso   1.00
C1793  C     0.82684   0.97972   0.87454   0.00000  Uiso   1.00
C1794  C     0.84908   0.97786   0.79641   0.00000  Uiso   1.00
H1795  H     0.86033   0.96053   0.76772   0.00000  Uiso   1.00
H1796  H     0.74459   0.96374   0.90881   0.00000  Uiso   1.00
H1797  H     0.77914   0.66766   0.94769   0.00000  Uiso   1.00
H1798  H     0.73951   0.94622   0.98969   0.00000  Uiso   1.00
H1799  H     0.77661   0.90719   0.96331   0.00000  Uiso   1.00
H1800  H     0.80973   0.94493   0.66785   0.00000  Uiso   1.00
H1801  H     0.89706   0.92546   0.70397   0.00000  Uiso   1.00
H1802  H     0.95396   0.90301   0.68250   0.00000  Uiso   1.00
H1803  H     0.66976   0.90486   0.75893   0.00000  Uiso   1.00
H1804  H     0.97691   0.95571   0.74371   0.00000  Uiso   1.00
H1805  H     0.94666   0.92396   0.78301   0.00000  Uiso   1.00
H1806  H     0.82077   0.70653   0.90304   0.00000  Uiso   1.00
H1807  H     0.75499   0.74819   0.98438   0.00000  Uiso   1.00
H1808  H     0.72943   0.74176   0.92619   0.00000  Uiso   1.00
H1809  H     0.98315   0.78114   0.93630   0.00000  Uiso   1.00
H1810  H     0.99313   0.73958   0.97716   0.00000  Uiso   1.00
H1811  H     0.67444   0.79238   0.99496   0.00000  Uiso   1.00
H1812  H     0.90671   0.86152   0.96536   0.00000  Uiso   1.00
H1813  H     0.75977   0.80538   0.70123   0.00000  Uiso   1.00
H1814  H     0.80436   0.72322   0.72172   0.00000  Uiso   1.00
H1815  H     0.82983   0.67240   0.70991   0.00000  Uiso   1.00
H1816  H     0.90461   0.70388   0.67908   0.00000  Uiso   1.00
H1817  H     0.84369   0.72249   0.98287   0.00000  Uiso   1.00
H1818  H     0.88100   0.75514   0.69122   0.00000  Uiso   1.00
N1819  N     0.83332   0.83332   0.95240   0.00000  Uiso   1.00
N1820  N     0.83335   0.83334   0.71427   0.00000  Uiso   1.00
N1821  N     0.97787   0.77232   0.75358   0.00000  Uiso   1.00
N1822  N     0.68684   0.89317   0.91343   0.00000  Uiso   1.00
O1823  O     0.83333   0.77225   0.87154   0.00000  Uiso   1.00
O1824  O     0.82588   0.95972   0.91591   0.00000  Uiso   1.00
O1825  O     0.91672   0.86455   0.72425   0.00000  Uiso   1.00
O1826  O     0.75022   0.80187   0.94198   0.00000  Uiso   1.00
O1827  O     0.83334   0.89442   0.79513   0.00000  Uiso   1.00
O1828  O     0.83333   0.77226   0.79510   0.00000  Uiso   1.00
O1829  O     0.83334   0.89441   0.87157   0.00000  Uiso   1.00
O1830  O     0.75725   0.83333   0.86261   0.00000  Uiso   1.00
O1831  O     0.90942   0.83334   0.80405   0.00000  Uiso   1.00
O1832  O     0.75725   0.83334   0.78617   0.00000  Uiso   1.00
O1833  O     0.90942   0.83333   0.88050   0.00000  Uiso   1.00
O1834  O     0.87334   0.70696   0.76158   0.00000  Uiso   1.00
Zn1835 Zn    0.83333   0.83333   0.88437   0.00000  Uiso   1.00
Zn1836 Zn    0.83333   0.83334   0.78229   0.00000  Uiso   1.00
loop_
_geom_bond_atom_site_label_1
_geom_bond_atom_site_label_2
_geom_bond_distance
_geom_bond_site_symmetry_2
_ccdc_geom_bond_type
C1     C4      1.424   .     S
C1     O55     1.286   .     A
C1     O60     1.284   .     A
C2     H38     1.080   .     S
C2     C4      1.395   .     A
C2     C433    1.377   1_545 S
C3     C25     1.410   .     A
C3     C12     1.428   .     S
C3     C26     1.397   .     A
C4     C24     1.403   .     A
C5     N52     1.373   .     A
C5     O57     1.386   .     S
C5     C1231   1.426   1_554 S
C6     O58     1.388   .     S
C6     N51     1.373   .     A
C6     C620    1.428   .     S
C7     N51     1.362   .     A
C7     H44     1.080   .     S
C7     C617    1.426   .     S
C8     N52     1.363   .     A
C8     H45     1.080   .     S
C8     C1230   1.428   1_554 S
C9     N53     1.157   .     T
C9     C90     1.458   .     S
C10    N54     1.155   .     T
C10    C159    1.454   1_455 S
C11    O66     1.411   .     S
C11    H47     1.110   .     S
C11    C13     1.522   .     S
C11    H46     1.113   .     S
C12    O61     1.280   .     A
C12    O59     1.291   .     A
C13    H48     1.111   .     S
C13    H50     1.110   .     S
C13    H1273   1.108   1_554 S
C14    O56     1.412   .     S
C14    H28     1.114   .     S
C14    C15     1.522   .     S
C14    H233    1.110   .     S
C15    H31     1.108   .     S
C15    H30     1.111   .     S
C15    H644    1.108   .     S
C16    O57     1.413   .     S
C16    H33     1.114   .     S
C16    H34     1.111   .     S
C16    C17     1.522   .     S
C17    H36     1.111   .     S
C17    H37     1.111   .     S
C17    H103    1.111   .     S
C18    H39     1.112   .     S
C18    H40     1.111   .     S
C18    C19     1.524   .     S
C18    O58     1.416   .     S
C19    H43     1.110   .     S
C19    H177    1.110   1_455 S
C19    H178    1.110   1_455 S
C20    O64     1.280   .     A
C20    O62     1.275   .     A
C20    C22     1.401   .     S
C21    C23     1.397   .     S
C21    O63     1.274   .     A
C21    O65     1.280   .     A
C22    C145    1.458   1_455 S
C22    C159    1.346   1_455 S
C23    C78     1.454   .     S
C23    C90     1.346   .     S
C24    O66     1.386   .     S
C24    C434    1.378   1_545 S
C25    O56     1.390   .     S
C25    C206    1.377   .     S
C26    H27     1.082   .     S
C26    C228    1.378   .     S
H29    C422    1.110   1_545 S
H32    C1239   1.108   1_554 S
H35    C153    1.111   1_455 S
H41    C87     1.110   .     S
H42    C87     1.110   .     S
H49    C625    1.108   .     S
N51    Zn67    2.012   .     S
N52    Zn68    2.012   .     S
O55    Zn67    2.003   .     S
O59    Zn68    2.003   .     S
O60    Zn68    2.008   .     S
O61    Zn67    2.008   .     S
O62    Zn67    1.993   .     S
O63    Zn68    1.993   .     S
O64    Zn68    1.987   .     S
O65    Zn67    1.987   .     S
C69    C72     1.424   .     S
C69    O123    1.286   .     A
C69    O128    1.284   .     A
C70    H106    1.080   .     S
C70    C72     1.395   .     A
C70    C501    1.377   1_545 S
C71    C93     1.410   .     A
C71    C80     1.428   .     S
C71    C94     1.397   .     A
C72    C92     1.403   .     A
C73    N120    1.373   .     A
C73    O125    1.386   .     S
C73    C1299   1.426   1_554 S
C74    O126    1.388   .     S
C74    N119    1.373   .     A
C74    C688    1.428   .     S
C75    N119    1.362   .     A
C75    H112    1.080   .     S
C75    C685    1.426   .     S
C76    N120    1.363   .     A
C76    H113    1.080   .     S
C76    C1298   1.428   1_554 S
C77    N121    1.157   .     T
C77    C158    1.458   .     S
C78    N122    1.155   .     T
C79    O134    1.411   .     S
C79    H115    1.110   .     S
C79    C81     1.522   .     S
C79    H114    1.113   .     S
C80    O129    1.280   .     A
C80    O127    1.291   .     A
C81    H116    1.111   .     S
C81    H118    1.110   .     S
C81    H1341   1.108   1_554 S
C82    O124    1.412   .     S
C82    H96     1.114   .     S
C82    C83     1.522   .     S
C82    H301    1.110   .     S
C83    H99     1.108   .     S
C83    H98     1.111   .     S
C83    H712    1.108   .     S
C84    O125    1.413   .     S
C84    H101    1.114   .     S
C84    H102    1.111   .     S
C84    C85     1.522   .     S
C85    H104    1.111   .     S
C85    H105    1.111   .     S
C85    H171    1.111   .     S
C86    H107    1.112   .     S
C86    H108    1.111   .     S
C86    C87     1.524   .     S
C86    O126    1.416   .     S
C87    H111    1.110   .     S
C88    O132    1.280   .     A
C88    O130    1.275   .     A
C88    C90     1.401   .     S
C89    C91     1.397   .     S
C89    O131    1.274   .     A
C89    O133    1.280   .     A
C91    C146    1.454   .     S
C91    C158    1.346   .     S
C92    O134    1.386   .     S
C92    C502    1.378   1_545 S
C93    O124    1.390   .     S
C93    C274    1.377   .     S
C94    H95     1.082   .     S
C94    C296    1.378   .     S
H97    C490    1.110   1_545 S
H100   C1307   1.108   1_554 S
H109   C155    1.110   .     S
H110   C155    1.110   .     S
H117   C693    1.108   .     S
N119   Zn135   2.012   .     S
N120   Zn136   2.012   .     S
O123   Zn135   2.003   .     S
O127   Zn136   2.003   .     S
O128   Zn136   2.008   .     S
O129   Zn135   2.008   .     S
O130   Zn135   1.993   .     S
O131   Zn136   1.993   .     S
O132   Zn136   1.987   .     S
O133   Zn135   1.987   .     S
C137   C140    1.424   .     S
C137   O191    1.286   .     A
C137   O196    1.284   .     A
C138   H174    1.080   .     S
C138   C140    1.395   .     A
C138   C569    1.377   1_545 S
C139   C161    1.410   .     A
C139   C148    1.428   .     S
C139   C162    1.397   .     A
C140   C160    1.403   .     A
C141   N188    1.373   .     A
C141   O193    1.386   .     S
C141   C1367   1.426   1_554 S
C142   O194    1.388   .     S
C142   N187    1.373   .     A
C142   C756    1.428   .     S
C143   N187    1.362   .     A
C143   H180    1.080   .     S
C143   C753    1.426   .     S
C144   N188    1.363   .     A
C144   H181    1.080   .     S
C144   C1366   1.428   1_554 S
C145   N189    1.157   .     T
C145   C22     1.458   1_655 S
C146   N190    1.155   .     T
C147   O202    1.411   .     S
C147   H183    1.110   .     S
C147   C149    1.522   .     S
C147   H182    1.113   .     S
C148   O197    1.280   .     A
C148   O195    1.291   .     A
C149   H184    1.111   .     S
C149   H186    1.110   .     S
C149   H1409   1.108   1_554 S
C150   O192    1.412   .     S
C150   H164    1.114   .     S
C150   C151    1.522   .     S
C150   H369    1.110   .     S
C151   H167    1.108   .     S
C151   H166    1.111   .     S
C151   H780    1.108   .     S
C152   O193    1.413   .     S
C152   H169    1.114   .     S
C152   H170    1.111   .     S
C152   C153    1.522   .     S
C153   H172    1.111   .     S
C153   H173    1.111   .     S
C153   H35     1.111   1_655 S
C154   H175    1.112   .     S
C154   H176    1.111   .     S
C154   C155    1.524   .     S
C154   O194    1.416   .     S
C155   H179    1.110   .     S
C156   O200    1.280   .     A
C156   O198    1.275   .     A
C156   C158    1.401   .     S
C157   C159    1.397   .     S
C157   O199    1.274   .     A
C157   O201    1.280   .     A
C159   C10     1.454   1_655 S
C159   C22     1.346   1_655 S
C160   O202    1.386   .     S
C160   C570    1.378   1_545 S
C161   O192    1.390   .     S
C161   C342    1.377   .     S
C162   H163    1.082   .     S
C162   C364    1.378   .     S
H165   C558    1.110   1_545 S
H168   C1375   1.108   1_554 S
H177   C19     1.110   1_655 S
H178   C19     1.110   1_655 S
H185   C761    1.108   .     S
N187   Zn203   2.012   .     S
N188   Zn204   2.012   .     S
O191   Zn203   2.003   .     S
O195   Zn204   2.003   .     S
O196   Zn204   2.008   .     S
O197   Zn203   2.008   .     S
O198   Zn203   1.993   .     S
O199   Zn204   1.993   .     S
O200   Zn204   1.987   .     S
O201   Zn203   1.987   .     S
C205   C208    1.424   .     S
C205   O259    1.286   .     A
C205   O264    1.284   .     A
C206   H242    1.080   .     S
C206   C208    1.395   .     A
C207   C229    1.410   .     A
C207   C216    1.428   .     S
C207   C230    1.397   .     A
C208   C228    1.403   .     A
C209   N256    1.373   .     A
C209   O261    1.386   .     S
C209   C1435   1.426   1_554 S
C210   O262    1.388   .     S
C210   N255    1.373   .     A
C210   C824    1.428   .     S
C211   N255    1.362   .     A
C211   H248    1.080   .     S
C211   C821    1.426   .     S
C212   N256    1.363   .     A
C212   H249    1.080   .     S
C212   C1434   1.428   1_554 S
C213   N257    1.157   .     T
C213   C294    1.458   .     S
C214   N258    1.155   .     T
C214   C363    1.454   1_455 S
C215   O270    1.411   .     S
C215   H251    1.110   .     S
C215   C217    1.522   .     S
C215   H250    1.113   .     S
C216   O265    1.280   .     A
C216   O263    1.291   .     A
C217   H252    1.111   .     S
C217   H254    1.110   .     S
C217   H1477   1.108   1_554 S
C218   O260    1.412   .     S
C218   H232    1.114   .     S
C218   C219    1.522   .     S
C218   H437    1.110   .     S
C219   H235    1.108   .     S
C219   H234    1.111   .     S
C219   H848    1.108   .     S
C220   O261    1.413   .     S
C220   H237    1.114   .     S
C220   H238    1.111   .     S
C220   C221    1.522   .     S
C221   H240    1.111   .     S
C221   H241    1.111   .     S
C221   H307    1.111   .     S
C222   H243    1.112   .     S
C222   H244    1.111   .     S
C222   C223    1.524   .     S
C222   O262    1.416   .     S
C223   H247    1.110   .     S
C223   H381    1.110   1_455 S
C223   H382    1.110   1_455 S
C224   O268    1.280   .     A
C224   O266    1.275   .     A
C224   C226    1.401   .     S
C225   C227    1.397   .     S
C225   O267    1.274   .     A
C225   O269    1.280   .     A
C226   C349    1.458   1_455 S
C226   C363    1.346   1_455 S
C227   C282    1.454   .     S
C227   C294    1.346   .     S
C228   O270    1.386   .     S
C229   O260    1.390   .     S
C229   C410    1.377   .     S
C230   H231    1.082   .     S
C230   C432    1.378   .     S
H236   C1443   1.108   1_554 S
H239   C357    1.111   1_455 S
H245   C291    1.110   .     S
H246   C291    1.110   .     S
H253   C829    1.108   .     S
N255   Zn271   2.012   .     S
N256   Zn272   2.012   .     S
O259   Zn271   2.003   .     S
O263   Zn272   2.003   .     S
O264   Zn272   2.008   .     S
O265   Zn271   2.008   .     S
O266   Zn271   1.993   .     S
O267   Zn272   1.993   .     S
O268   Zn272   1.987   .     S
O269   Zn271   1.987   .     S
C273   C276    1.424   .     S
C273   O327    1.286   .     A
C273   O332    1.284   .     A
C274   H310    1.080   .     S
C274   C276    1.395   .     A
C275   C297    1.410   .     A
C275   C284    1.428   .     S
C275   C298    1.397   .     A
C276   C296    1.403   .     A
C277   N324    1.373   .     A
C277   O329    1.386   .     S
C277   C1503   1.426   1_554 S
C278   O330    1.388   .     S
C278   N323    1.373   .     A
C278   C892    1.428   .     S
C279   N323    1.362   .     A
C279   H316    1.080   .     S
C279   C889    1.426   .     S
C280   N324    1.363   .     A
C280   H317    1.080   .     S
C280   C1502   1.428   1_554 S
C281   N325    1.157   .     T
C281   C362    1.458   .     S
C282   N326    1.155   .     T
C283   O338    1.411   .     S
C283   H319    1.110   .     S
C283   C285    1.522   .     S
C283   H318    1.113   .     S
C284   O333    1.280   .     A
C284   O331    1.291   .     A
C285   H320    1.111   .     S
C285   H322    1.110   .     S
C285   H1545   1.108   1_554 S
C286   O328    1.412   .     S
C286   H300    1.114   .     S
C286   C287    1.522   .     S
C286   H505    1.110   .     S
C287   H303    1.108   .     S
C287   H302    1.111   .     S
C287   H916    1.108   .     S
C288   O329    1.413   .     S
C288   H305    1.114   .     S
C288   H306    1.111   .     S
C288   C289    1.522   .     S
C289   H308    1.111   .     S
C289   H309    1.111   .     S
C289   H375    1.111   .     S
C290   H311    1.112   .     S
C290   H312    1.111   .     S
C290   C291    1.524   .     S
C290   O330    1.416   .     S
C291   H315    1.110   .     S
C292   O336    1.280   .     A
C292   O334    1.275   .     A
C292   C294    1.401   .     S
C293   C295    1.397   .     S
C293   O335    1.274   .     A
C293   O337    1.280   .     A
C295   C350    1.454   .     S
C295   C362    1.346   .     S
C296   O338    1.386   .     S
C297   O328    1.390   .     S
C297   C478    1.377   .     S
C298   H299    1.082   .     S
C298   C500    1.378   .     S
H304   C1511   1.108   1_554 S
H313   C359    1.110   .     S
H314   C359    1.110   .     S
H321   C897    1.108   .     S
N323   Zn339   2.012   .     S
N324   Zn340   2.012   .     S
O327   Zn339   2.003   .     S
O331   Zn340   2.003   .     S
O332   Zn340   2.008   .     S
O333   Zn339   2.008   .     S
O334   Zn339   1.993   .     S
O335   Zn340   1.993   .     S
O336   Zn340   1.987   .     S
O337   Zn339   1.987   .     S
C341   C344    1.424   .     S
C341   O395    1.286   .     A
C341   O400    1.284   .     A
C342   H378    1.080   .     S
C342   C344    1.395   .     A
C343   C365    1.410   .     A
C343   C352    1.428   .     S
C343   C366    1.397   .     A
C344   C364    1.403   .     A
C345   N392    1.373   .     A
C345   O397    1.386   .     S
C345   C1571   1.426   1_554 S
C346   O398    1.388   .     S
C346   N391    1.373   .     A
C346   C960    1.428   .     S
C347   N391    1.362   .     A
C347   H384    1.080   .     S
C347   C957    1.426   .     S
C348   N392    1.363   .     A
C348   H385    1.080   .     S
C348   C1570   1.428   1_554 S
C349   N393    1.157   .     T
C349   C226    1.458   1_655 S
C350   N394    1.155   .     T
C351   O406    1.411   .     S
C351   H387    1.110   .     S
C351   C353    1.522   .     S
C351   H386    1.113   .     S
C352   O401    1.280   .     A
C352   O399    1.291   .     A
C353   H388    1.111   .     S
C353   H390    1.110   .     S
C353   H1613   1.108   1_554 S
C354   O396    1.412   .     S
C354   H368    1.114   .     S
C354   C355    1.522   .     S
C354   H573    1.110   .     S
C355   H371    1.108   .     S
C355   H370    1.111   .     S
C355   H984    1.108   .     S
C356   O397    1.413   .     S
C356   H373    1.114   .     S
C356   H374    1.111   .     S
C356   C357    1.522   .     S
C357   H376    1.111   .     S
C357   H377    1.111   .     S
C357   H239    1.111   1_655 S
C358   H379    1.112   .     S
C358   H380    1.111   .     S
C358   C359    1.524   .     S
C358   O398    1.416   .     S
C359   H383    1.110   .     S
C360   O404    1.280   .     A
C360   O402    1.275   .     A
C360   C362    1.401   .     S
C361   C363    1.397   .     S
C361   O403    1.274   .     A
C361   O405    1.280   .     A
C363   C214    1.454   1_655 S
C363   C226    1.346   1_655 S
C364   O406    1.386   .     S
C365   O396    1.390   .     S
C365   C546    1.377   .     S
C366   H367    1.082   .     S
C366   C568    1.378   .     S
H372   C1579   1.108   1_554 S
H381   C223    1.110   1_655 S
H382   C223    1.110   1_655 S
H389   C965    1.108   .     S
N391   Zn407   2.012   .     S
N392   Zn408   2.012   .     S
O395   Zn407   2.003   .     S
O399   Zn408   2.003   .     S
O400   Zn408   2.008   .     S
O401   Zn407   2.008   .     S
O402   Zn407   1.993   .     S
O403   Zn408   1.993   .     S
O404   Zn408   1.987   .     S
O405   Zn407   1.987   .     S
C409   C412    1.424   .     S
C409   O463    1.286   .     A
C409   O468    1.284   .     A
C410   H446    1.080   .     S
C410   C412    1.395   .     A
C411   C433    1.410   .     A
C411   C420    1.428   .     S
C411   C434    1.397   .     A
C412   C432    1.403   .     A
C413   N460    1.373   .     A
C413   O465    1.386   .     S
C413   C1639   1.426   1_554 S
C414   O466    1.388   .     S
C414   N459    1.373   .     A
C414   C1028   1.428   .     S
C415   N459    1.362   .     A
C415   H452    1.080   .     S
C415   C1025   1.426   .     S
C416   N460    1.363   .     A
C416   H453    1.080   .     S
C416   C1638   1.428   1_554 S
C417   N461    1.157   .     T
C417   C498    1.458   .     S
C418   N462    1.155   .     T
C418   C567    1.454   1_455 S
C419   O474    1.411   .     S
C419   H455    1.110   .     S
C419   C421    1.522   .     S
C419   H454    1.113   .     S
C420   O469    1.280   .     A
C420   O467    1.291   .     A
C421   H456    1.111   .     S
C421   H458    1.110   .     S
C421   H1681   1.108   1_554 S
C422   O464    1.412   .     S
C422   H436    1.114   .     S
C422   C423    1.522   .     S
C422   H29     1.110   1_565 S
C423   H439    1.108   .     S
C423   H438    1.111   .     S
C423   H1052   1.108   .     S
C424   O465    1.413   .     S
C424   H441    1.114   .     S
C424   H442    1.111   .     S
C424   C425    1.522   .     S
C425   H444    1.111   .     S
C425   H445    1.111   .     S
C425   H511    1.111   .     S
C426   H447    1.112   .     S
C426   H448    1.111   .     S
C426   C427    1.524   .     S
C426   O466    1.416   .     S
C427   H451    1.110   .     S
C427   H585    1.110   1_455 S
C427   H586    1.110   1_455 S
C428   O472    1.280   .     A
C428   O470    1.275   .     A
C428   C430    1.401   .     S
C429   C431    1.397   .     S
C429   O471    1.274   .     A
C429   O473    1.280   .     A
C430   C553    1.458   1_455 S
C430   C567    1.346   1_455 S
C431   C486    1.454   .     S
C431   C498    1.346   .     S
C432   O474    1.386   .     S
C433   O464    1.390   .     S
C433   C2      1.377   1_565 S
C434   H435    1.082   .     S
C434   C24     1.378   1_565 S
H440   C1647   1.108   1_554 S
H443   C561    1.111   1_455 S
H449   C495    1.110   .     S
H450   C495    1.110   .     S
H457   C1033   1.108   .     S
N459   Zn475   2.012   .     S
N460   Zn476   2.012   .     S
O463   Zn475   2.003   .     S
O467   Zn476   2.003   .     S
O468   Zn476   2.008   .     S
O469   Zn475   2.008   .     S
O470   Zn475   1.993   .     S
O471   Zn476   1.993   .     S
O472   Zn476   1.987   .     S
O473   Zn475   1.987   .     S
C477   C480    1.424   .     S
C477   O531    1.286   .     A
C477   O536    1.284   .     A
C478   H514    1.080   .     S
C478   C480    1.395   .     A
C479   C501    1.410   .     A
C479   C488    1.428   .     S
C479   C502    1.397   .     A
C480   C500    1.403   .     A
C481   N528    1.373   .     A
C481   O533    1.386   .     S
C481   C1707   1.426   1_554 S
C482   O534    1.388   .     S
C482   N527    1.373   .     A
C482   C1096   1.428   .     S
C483   N527    1.362   .     A
C483   H520    1.080   .     S
C483   C1093   1.426   .     S
C484   N528    1.363   .     A
C484   H521    1.080   .     S
C484   C1706   1.428   1_554 S
C485   N529    1.157   .     T
C485   C566    1.458   .     S
C486   N530    1.155   .     T
C487   O542    1.411   .     S
C487   H523    1.110   .     S
C487   C489    1.522   .     S
C487   H522    1.113   .     S
C488   O537    1.280   .     A
C488   O535    1.291   .     A
C489   H524    1.111   .     S
C489   H526    1.110   .     S
C489   H1749   1.108   1_554 S
C490   O532    1.412   .     S
C490   H504    1.114   .     S
C490   C491    1.522   .     S
C490   H97     1.110   1_565 S
C491   H507    1.108   .     S
C491   H506    1.111   .     S
C491   H1120   1.108   .     S
C492   O533    1.413   .     S
C492   H509    1.114   .     S
C492   H510    1.111   .     S
C492   C493    1.522   .     S
C493   H512    1.111   .     S
C493   H513    1.111   .     S
C493   H579    1.111   .     S
C494   H515    1.112   .     S
C494   H516    1.111   .     S
C494   C495    1.524   .     S
C494   O534    1.416   .     S
C495   H519    1.110   .     S
C496   O540    1.280   .     A
C496   O538    1.275   .     A
C496   C498    1.401   .     S
C497   C499    1.397   .     S
C497   O539    1.274   .     A
C497   O541    1.280   .     A
C499   C554    1.454   .     S
C499   C566    1.346   .     S
C500   O542    1.386   .     S
C501   O532    1.390   .     S
C501   C70     1.377   1_565 S
C502   H503    1.082   .     S
C502   C92     1.378   1_565 S
H508   C1715   1.108   1_554 S
H517   C563    1.110   .     S
H518   C563    1.110   .     S
H525   C1101   1.108   .     S
N527   Zn543   2.012   .     S
N528   Zn544   2.012   .     S
O531   Zn543   2.003   .     S
O535   Zn544   2.003   .     S
O536   Zn544   2.008   .     S
O537   Zn543   2.008   .     S
O538   Zn543   1.993   .     S
O539   Zn544   1.993   .     S
O540   Zn544   1.987   .     S
O541   Zn543   1.987   .     S
C545   C548    1.424   .     S
C545   O599    1.286   .     A
C545   O604    1.284   .     A
C546   H582    1.080   .     S
C546   C548    1.395   .     A
C547   C569    1.410   .     A
C547   C556    1.428   .     S
C547   C570    1.397   .     A
C548   C568    1.403   .     A
C549   N596    1.373   .     A
C549   O601    1.386   .     S
C549   C1775   1.426   1_554 S
C550   O602    1.388   .     S
C550   N595    1.373   .     A
C550   C1164   1.428   .     S
C551   N595    1.362   .     A
C551   H588    1.080   .     S
C551   C1161   1.426   .     S
C552   N596    1.363   .     A
C552   H589    1.080   .     S
C552   C1774   1.428   1_554 S
C553   N597    1.157   .     T
C553   C430    1.458   1_655 S
C554   N598    1.155   .     T
C555   O610    1.411   .     S
C555   H591    1.110   .     S
C555   C557    1.522   .     S
C555   H590    1.113   .     S
C556   O605    1.280   .     A
C556   O603    1.291   .     A
C557   H592    1.111   .     S
C557   H594    1.110   .     S
C557   H1817   1.108   1_554 S
C558   O600    1.412   .     S
C558   H572    1.114   .     S
C558   C559    1.522   .     S
C558   H165    1.110   1_565 S
C559   H575    1.108   .     S
C559   H574    1.111   .     S
C559   H1188   1.108   .     S
C560   O601    1.413   .     S
C560   H577    1.114   .     S
C560   H578    1.111   .     S
C560   C561    1.522   .     S
C561   H580    1.111   .     S
C561   H581    1.111   .     S
C561   H443    1.111   1_655 S
C562   H583    1.112   .     S
C562   H584    1.111   .     S
C562   C563    1.524   .     S
C562   O602    1.416   .     S
C563   H587    1.110   .     S
C564   O608    1.280   .     A
C564   O606    1.275   .     A
C564   C566    1.401   .     S
C565   C567    1.397   .     S
C565   O607    1.274   .     A
C565   O609    1.280   .     A
C567   C418    1.454   1_655 S
C567   C430    1.346   1_655 S
C568   O610    1.386   .     S
C569   O600    1.390   .     S
C569   C138    1.377   1_565 S
C570   H571    1.082   .     S
C570   C160    1.378   1_565 S
H576   C1783   1.108   1_554 S
H585   C427    1.110   1_655 S
H586   C427    1.110   1_655 S
H593   C1169   1.108   .     S
N595   Zn611   2.012   .     S
N596   Zn612   2.012   .     S
O599   Zn611   2.003   .     S
O603   Zn612   2.003   .     S
O604   Zn612   2.008   .     S
O605   Zn611   2.008   .     S
O606   Zn611   1.993   .     S
O607   Zn612   1.993   .     S
O608   Zn612   1.987   .     S
O609   Zn611   1.987   .     S
C613   C616    1.424   .     S
C613   O667    1.286   .     A
C613   O672    1.284   .     A
C614   H650    1.080   .     S
C614   C616    1.395   .     A
C614   C1045   1.377   1_545 S
C615   C637    1.410   .     A
C615   C624    1.428   .     S
C615   C638    1.397   .     A
C616   C636    1.403   .     A
C617   N664    1.373   .     A
C617   O669    1.386   .     S
C618   O670    1.388   .     S
C618   N663    1.373   .     A
C618   C1232   1.428   .     S
C619   N663    1.362   .     A
C619   H656    1.080   .     S
C619   C1229   1.426   .     S
C620   N664    1.363   .     A
C620   H657    1.080   .     S
C621   N665    1.157   .     T
C621   C702    1.458   .     S
C622   N666    1.155   .     T
C622   C771    1.454   1_455 S
C623   O678    1.411   .     S
C623   H659    1.110   .     S
C623   C625    1.522   .     S
C623   H658    1.113   .     S
C624   O673    1.280   .     A
C624   O671    1.291   .     A
C625   H660    1.111   .     S
C625   H662    1.110   .     S
C626   O668    1.412   .     S
C626   H640    1.114   .     S
C626   C627    1.522   .     S
C626   H845    1.110   .     S
C627   H643    1.108   .     S
C627   H642    1.111   .     S
C627   H1256   1.108   .     S
C628   O669    1.413   .     S
C628   H645    1.114   .     S
C628   H646    1.111   .     S
C628   C629    1.522   .     S
C629   H648    1.111   .     S
C629   H649    1.111   .     S
C629   H715    1.111   .     S
C630   H651    1.112   .     S
C630   H652    1.111   .     S
C630   C631    1.524   .     S
C630   O670    1.416   .     S
C631   H655    1.110   .     S
C631   H789    1.110   1_455 S
C631   H790    1.110   1_455 S
C632   O676    1.280   .     A
C632   O674    1.275   .     A
C632   C634    1.401   .     S
C633   C635    1.397   .     S
C633   O675    1.274   .     A
C633   O677    1.280   .     A
C634   C757    1.458   1_455 S
C634   C771    1.346   1_455 S
C635   C690    1.454   .     S
C635   C702    1.346   .     S
C636   O678    1.386   .     S
C636   C1046   1.378   1_545 S
C637   O668    1.390   .     S
C637   C818    1.377   .     S
C638   H639    1.082   .     S
C638   C840    1.378   .     S
H641   C1034   1.110   1_545 S
H647   C765    1.111   1_455 S
H653   C699    1.110   .     S
H654   C699    1.110   .     S
H661   C1237   1.108   .     S
N663   Zn679   2.012   .     S
N664   Zn680   2.012   .     S
O667   Zn679   2.003   .     S
O671   Zn680   2.003   .     S
O672   Zn680   2.008   .     S
O673   Zn679   2.008   .     S
O674   Zn679   1.993   .     S
O675   Zn680   1.993   .     S
O676   Zn680   1.987   .     S
O677   Zn679   1.987   .     S
C681   C684    1.424   .     S
C681   O735    1.286   .     A
C681   O740    1.284   .     A
C682   H718    1.080   .     S
C682   C684    1.395   .     A
C682   C1113   1.377   1_545 S
C683   C705    1.410   .     A
C683   C692    1.428   .     S
C683   C706    1.397   .     A
C684   C704    1.403   .     A
C685   N732    1.373   .     A
C685   O737    1.386   .     S
C686   O738    1.388   .     S
C686   N731    1.373   .     A
C686   C1300   1.428   .     S
C687   N731    1.362   .     A
C687   H724    1.080   .     S
C687   C1297   1.426   .     S
C688   N732    1.363   .     A
C688   H725    1.080   .     S
C689   N733    1.157   .     T
C689   C770    1.458   .     S
C690   N734    1.155   .     T
C691   O746    1.411   .     S
C691   H727    1.110   .     S
C691   C693    1.522   .     S
C691   H726    1.113   .     S
C692   O741    1.280   .     A
C692   O739    1.291   .     A
C693   H728    1.111   .     S
C693   H730    1.110   .     S
C694   O736    1.412   .     S
C694   H708    1.114   .     S
C694   C695    1.522   .     S
C694   H913    1.110   .     S
C695   H711    1.108   .     S
C695   H710    1.111   .     S
C695   H1324   1.108   .     S
C696   O737    1.413   .     S
C696   H713    1.114   .     S
C696   H714    1.111   .     S
C696   C697    1.522   .     S
C697   H716    1.111   .     S
C697   H717    1.111   .     S
C697   H783    1.111   .     S
C698   H719    1.112   .     S
C698   H720    1.111   .     S
C698   C699    1.524   .     S
C698   O738    1.416   .     S
C699   H723    1.110   .     S
C700   O744    1.280   .     A
C700   O742    1.275   .     A
C700   C702    1.401   .     S
C701   C703    1.397   .     S
C701   O743    1.274   .     A
C701   O745    1.280   .     A
C703   C758    1.454   .     S
C703   C770    1.346   .     S
C704   O746    1.386   .     S
C704   C1114   1.378   1_545 S
C705   O736    1.390   .     S
C705   C886    1.377   .     S
C706   H707    1.082   .     S
C706   C908    1.378   .     S
H709   C1102   1.110   1_545 S
H721   C767    1.110   .     S
H722   C767    1.110   .     S
H729   C1305   1.108   .     S
N731   Zn747   2.012   .     S
N732   Zn748   2.012   .     S
O735   Zn747   2.003   .     S
O739   Zn748   2.003   .     S
O740   Zn748   2.008   .     S
O741   Zn747   2.008   .     S
O742   Zn747   1.993   .     S
O743   Zn748   1.993   .     S
O744   Zn748   1.987   .     S
O745   Zn747   1.987   .     S
C749   C752    1.424   .     S
C749   O803    1.286   .     A
C749   O808    1.284   .     A
C750   H786    1.080   .     S
C750   C752    1.395   .     A
C750   C1181   1.377   1_545 S
C751   C773    1.410   .     A
C751   C760    1.428   .     S
C751   C774    1.397   .     A
C752   C772    1.403   .     A
C753   N800    1.373   .     A
C753   O805    1.386   .     S
C754   O806    1.388   .     S
C754   N799    1.373   .     A
C754   C1368   1.428   .     S
C755   N799    1.362   .     A
C755   H792    1.080   .     S
C755   C1365   1.426   .     S
C756   N800    1.363   .     A
C756   H793    1.080   .     S
C757   N801    1.157   .     T
C757   C634    1.458   1_655 S
C758   N802    1.155   .     T
C759   O814    1.411   .     S
C759   H795    1.110   .     S
C759   C761    1.522   .     S
C759   H794    1.113   .     S
C760   O809    1.280   .     A
C760   O807    1.291   .     A
C761   H796    1.111   .     S
C761   H798    1.110   .     S
C762   O804    1.412   .     S
C762   H776    1.114   .     S
C762   C763    1.522   .     S
C762   H981    1.110   .     S
C763   H779    1.108   .     S
C763   H778    1.111   .     S
C763   H1392   1.108   .     S
C764   O805    1.413   .     S
C764   H781    1.114   .     S
C764   H782    1.111   .     S
C764   C765    1.522   .     S
C765   H784    1.111   .     S
C765   H785    1.111   .     S
C765   H647    1.111   1_655 S
C766   H787    1.112   .     S
C766   H788    1.111   .     S
C766   C767    1.524   .     S
C766   O806    1.416   .     S
C767   H791    1.110   .     S
C768   O812    1.280   .     A
C768   O810    1.275   .     A
C768   C770    1.401   .     S
C769   C771    1.397   .     S
C769   O811    1.274   .     A
C769   O813    1.280   .     A
C771   C622    1.454   1_655 S
C771   C634    1.346   1_655 S
C772   O814    1.386   .     S
C772   C1182   1.378   1_545 S
C773   O804    1.390   .     S
C773   C954    1.377   .     S
C774   H775    1.082   .     S
C774   C976    1.378   .     S
H777   C1170   1.110   1_545 S
H789   C631    1.110   1_655 S
H790   C631    1.110   1_655 S
H797   C1373   1.108   .     S
N799   Zn815   2.012   .     S
N800   Zn816   2.012   .     S
O803   Zn815   2.003   .     S
O807   Zn816   2.003   .     S
O808   Zn816   2.008   .     S
O809   Zn815   2.008   .     S
O810   Zn815   1.993   .     S
O811   Zn816   1.993   .     S
O812   Zn816   1.987   .     S
O813   Zn815   1.987   .     S
C817   C820    1.424   .     S
C817   O871    1.286   .     A
C817   O876    1.284   .     A
C818   H854    1.080   .     S
C818   C820    1.395   .     A
C819   C841    1.410   .     A
C819   C828    1.428   .     S
C819   C842    1.397   .     A
C820   C840    1.403   .     A
C821   N868    1.373   .     A
C821   O873    1.386   .     S
C822   O874    1.388   .     S
C822   N867    1.373   .     A
C822   C1436   1.428   .     S
C823   N867    1.362   .     A
C823   H860    1.080   .     S
C823   C1433   1.426   .     S
C824   N868    1.363   .     A
C824   H861    1.080   .     S
C825   N869    1.157   .     T
C825   C906    1.458   .     S
C826   N870    1.155   .     T
C826   C975    1.454   1_455 S
C827   O882    1.411   .     S
C827   H863    1.110   .     S
C827   C829    1.522   .     S
C827   H862    1.113   .     S
C828   O877    1.280   .     A
C828   O875    1.291   .     A
C829   H864    1.111   .     S
C829   H866    1.110   .     S
C830   O872    1.412   .     S
C830   H844    1.114   .     S
C830   C831    1.522   .     S
C830   H1049   1.110   .     S
C831   H847    1.108   .     S
C831   H846    1.111   .     S
C831   H1460   1.108   .     S
C832   O873    1.413   .     S
C832   H849    1.114   .     S
C832   H850    1.111   .     S
C832   C833    1.522   .     S
C833   H852    1.111   .     S
C833   H853    1.111   .     S
C833   H919    1.111   .     S
C834   H855    1.112   .     S
C834   H856    1.111   .     S
C834   C835    1.524   .     S
C834   O874    1.416   .     S
C835   H859    1.110   .     S
C835   H993    1.110   1_455 S
C835   H994    1.110   1_455 S
C836   O880    1.280   .     A
C836   O878    1.275   .     A
C836   C838    1.401   .     S
C837   C839    1.397   .     S
C837   O879    1.274   .     A
C837   O881    1.280   .     A
C838   C961    1.458   1_455 S
C838   C975    1.346   1_455 S
C839   C894    1.454   .     S
C839   C906    1.346   .     S
C840   O882    1.386   .     S
C841   O872    1.390   .     S
C841   C1022   1.377   .     S
C842   H843    1.082   .     S
C842   C1044   1.378   .     S
H851   C969    1.111   1_455 S
H857   C903    1.110   .     S
H858   C903    1.110   .     S
H865   C1441   1.108   .     S
N867   Zn883   2.012   .     S
N868   Zn884   2.012   .     S
O871   Zn883   2.003   .     S
O875   Zn884   2.003   .     S
O876   Zn884   2.008   .     S
O877   Zn883   2.008   .     S
O878   Zn883   1.993   .     S
O879   Zn884   1.993   .     S
O880   Zn884   1.987   .     S
O881   Zn883   1.987   .     S
C885   C888    1.424   .     S
C885   O939    1.286   .     A
C885   O944    1.284   .     A
C886   H922    1.080   .     S
C886   C888    1.395   .     A
C887   C909    1.410   .     A
C887   C896    1.428   .     S
C887   C910    1.397   .     A
C888   C908    1.403   .     A
C889   N936    1.373   .     A
C889   O941    1.386   .     S
C890   O942    1.388   .     S
C890   N935    1.373   .     A
C890   C1504   1.428   .     S
C891   N935    1.362   .     A
C891   H928    1.080   .     S
C891   C1501   1.426   .     S
C892   N936    1.363   .     A
C892   H929    1.080   .     S
C893   N937    1.157   .     T
C893   C974    1.458   .     S
C894   N938    1.155   .     T
C895   O950    1.411   .     S
C895   H931    1.110   .     S
C895   C897    1.522   .     S
C895   H930    1.113   .     S
C896   O945    1.280   .     A
C896   O943    1.291   .     A
C897   H932    1.111   .     S
C897   H934    1.110   .     S
C898   O940    1.412   .     S
C898   H912    1.114   .     S
C898   C899    1.522   .     S
C898   H1117   1.110   .     S
C899   H915    1.108   .     S
C899   H914    1.111   .     S
C899   H1528   1.108   .     S
C900   O941    1.413   .     S
C900   H917    1.114   .     S
C900   H918    1.111   .     S
C900   C901    1.522   .     S
C901   H920    1.111   .     S
C901   H921    1.111   .     S
C901   H987    1.111   .     S
C902   H923    1.112   .     S
C902   H924    1.111   .     S
C902   C903    1.524   .     S
C902   O942    1.416   .     S
C903   H927    1.110   .     S
C904   O948    1.280   .     A
C904   O946    1.275   .     A
C904   C906    1.401   .     S
C905   C907    1.397   .     S
C905   O947    1.274   .     A
C905   O949    1.280   .     A
C907   C962    1.454   .     S
C907   C974    1.346   .     S
C908   O950    1.386   .     S
C909   O940    1.390   .     S
C909   C1090   1.377   .     S
C910   H911    1.082   .     S
C910   C1112   1.378   .     S
H925   C971    1.110   .     S
H926   C971    1.110   .     S
H933   C1509   1.108   .     S
N935   Zn951   2.012   .     S
N936   Zn952   2.012   .     S
O939   Zn951   2.003   .     S
O943   Zn952   2.003   .     S
O944   Zn952   2.008   .     S
O945   Zn951   2.008   .     S
O946   Zn951   1.993   .     S
O947   Zn952   1.993   .     S
O948   Zn952   1.987   .     S
O949   Zn951   1.987   .     S
C953   C956    1.424   .     S
C953   O1007   1.286   .     A
C953   O1012   1.284   .     A
C954   H990    1.080   .     S
C954   C956    1.395   .     A
C955   C977    1.410   .     A
C955   C964    1.428   .     S
C955   C978    1.397   .     A
C956   C976    1.403   .     A
C957   N1004   1.373   .     A
C957   O1009   1.386   .     S
C958   O1010   1.388   .     S
C958   N1003   1.373   .     A
C958   C1572   1.428   .     S
C959   N1003   1.362   .     A
C959   H996    1.080   .     S
C959   C1569   1.426   .     S
C960   N1004   1.363   .     A
C960   H997    1.080   .     S
C961   N1005   1.157   .     T
C961   C838    1.458   1_655 S
C962   N1006   1.155   .     T
C963   O1018   1.411   .     S
C963   H999    1.110   .     S
C963   C965    1.522   .     S
C963   H998    1.113   .     S
C964   O1013   1.280   .     A
C964   O1011   1.291   .     A
C965   H1000   1.111   .     S
C965   H1002   1.110   .     S
C966   O1008   1.412   .     S
C966   H980    1.114   .     S
C966   C967    1.522   .     S
C966   H1185   1.110   .     S
C967   H983    1.108   .     S
C967   H982    1.111   .     S
C967   H1596   1.108   .     S
C968   O1009   1.413   .     S
C968   H985    1.114   .     S
C968   H986    1.111   .     S
C968   C969    1.522   .     S
C969   H988    1.111   .     S
C969   H989    1.111   .     S
C969   H851    1.111   1_655 S
C970   H991    1.112   .     S
C970   H992    1.111   .     S
C970   C971    1.524   .     S
C970   O1010   1.416   .     S
C971   H995    1.110   .     S
C972   O1016   1.280   .     A
C972   O1014   1.275   .     A
C972   C974    1.401   .     S
C973   C975    1.397   .     S
C973   O1015   1.274   .     A
C973   O1017   1.280   .     A
C975   C826    1.454   1_655 S
C975   C838    1.346   1_655 S
C976   O1018   1.386   .     S
C977   O1008   1.390   .     S
C977   C1158   1.377   .     S
C978   H979    1.082   .     S
C978   C1180   1.378   .     S
H993   C835    1.110   1_655 S
H994   C835    1.110   1_655 S
H1001  C1577   1.108   .     S
N1003  Zn1019  2.012   .     S
N1004  Zn1020  2.012   .     S
O1007  Zn1019  2.003   .     S
O1011  Zn1020  2.003   .     S
O1012  Zn1020  2.008   .     S
O1013  Zn1019  2.008   .     S
O1014  Zn1019  1.993   .     S
O1015  Zn1020  1.993   .     S
O1016  Zn1020  1.987   .     S
O1017  Zn1019  1.987   .     S
C1021  C1024   1.424   .     S
C1021  O1075   1.286   .     A
C1021  O1080   1.284   .     A
C1022  H1058   1.080   .     S
C1022  C1024   1.395   .     A
C1023  C1045   1.410   .     A
C1023  C1032   1.428   .     S
C1023  C1046   1.397   .     A
C1024  C1044   1.403   .     A
C1025  N1072   1.373   .     A
C1025  O1077   1.386   .     S
C1026  O1078   1.388   .     S
C1026  N1071   1.373   .     A
C1026  C1640   1.428   .     S
C1027  N1071   1.362   .     A
C1027  H1064   1.080   .     S
C1027  C1637   1.426   .     S
C1028  N1072   1.363   .     A
C1028  H1065   1.080   .     S
C1029  N1073   1.157   .     T
C1029  C1110   1.458   .     S
C1030  N1074   1.155   .     T
C1030  C1179   1.454   1_455 S
C1031  O1086   1.411   .     S
C1031  H1067   1.110   .     S
C1031  C1033   1.522   .     S
C1031  H1066   1.113   .     S
C1032  O1081   1.280   .     A
C1032  O1079   1.291   .     A
C1033  H1068   1.111   .     S
C1033  H1070   1.110   .     S
C1034  O1076   1.412   .     S
C1034  H1048   1.114   .     S
C1034  C1035   1.522   .     S
C1034  H641    1.110   1_565 S
C1035  H1051   1.108   .     S
C1035  H1050   1.111   .     S
C1035  H1664   1.108   .     S
C1036  O1077   1.413   .     S
C1036  H1053   1.114   .     S
C1036  H1054   1.111   .     S
C1036  C1037   1.522   .     S
C1037  H1056   1.111   .     S
C1037  H1057   1.111   .     S
C1037  H1123   1.111   .     S
C1038  H1059   1.112   .     S
C1038  H1060   1.111   .     S
C1038  C1039   1.524   .     S
C1038  O1078   1.416   .     S
C1039  H1063   1.110   .     S
C1039  H1197   1.110   1_455 S
C1039  H1198   1.110   1_455 S
C1040  O1084   1.280   .     A
C1040  O1082   1.275   .     A
C1040  C1042   1.401   .     S
C1041  C1043   1.397   .     S
C1041  O1083   1.274   .     A
C1041  O1085   1.280   .     A
C1042  C1165   1.458   1_455 S
C1042  C1179   1.346   1_455 S
C1043  C1098   1.454   .     S
C1043  C1110   1.346   .     S
C1044  O1086   1.386   .     S
C1045  O1076   1.390   .     S
C1045  C614    1.377   1_565 S
C1046  H1047   1.082   .     S
C1046  C636    1.378   1_565 S
H1055  C1173   1.111   1_455 S
H1061  C1107   1.110   .     S
H1062  C1107   1.110   .     S
H1069  C1645   1.108   .     S
N1071  Zn1087  2.012   .     S
N1072  Zn1088  2.012   .     S
O1075  Zn1087  2.003   .     S
O1079  Zn1088  2.003   .     S
O1080  Zn1088  2.008   .     S
O1081  Zn1087  2.008   .     S
O1082  Zn1087  1.993   .     S
O1083  Zn1088  1.993   .     S
O1084  Zn1088  1.987   .     S
O1085  Zn1087  1.987   .     S
C1089  C1092   1.424   .     S
C1089  O1143   1.286   .     A
C1089  O1148   1.284   .     A
C1090  H1126   1.080   .     S
C1090  C1092   1.395   .     A
C1091  C1113   1.410   .     A
C1091  C1100   1.428   .     S
C1091  C1114   1.397   .     A
C1092  C1112   1.403   .     A
C1093  N1140   1.373   .     A
C1093  O1145   1.386   .     S
C1094  O1146   1.388   .     S
C1094  N1139   1.373   .     A
C1094  C1708   1.428   .     S
C1095  N1139   1.362   .     A
C1095  H1132   1.080   .     S
C1095  C1705   1.426   .     S
C1096  N1140   1.363   .     A
C1096  H1133   1.080   .     S
C1097  N1141   1.157   .     T
C1097  C1178   1.458   .     S
C1098  N1142   1.155   .     T
C1099  O1154   1.411   .     S
C1099  H1135   1.110   .     S
C1099  C1101   1.522   .     S
C1099  H1134   1.113   .     S
C1100  O1149   1.280   .     A
C1100  O1147   1.291   .     A
C1101  H1136   1.111   .     S
C1101  H1138   1.110   .     S
C1102  O1144   1.412   .     S
C1102  H1116   1.114   .     S
C1102  C1103   1.522   .     S
C1102  H709    1.110   1_565 S
C1103  H1119   1.108   .     S
C1103  H1118   1.111   .     S
C1103  H1732   1.108   .     S
C1104  O1145   1.413   .     S
C1104  H1121   1.114   .     S
C1104  H1122   1.111   .     S
C1104  C1105   1.522   .     S
C1105  H1124   1.111   .     S
C1105  H1125   1.111   .     S
C1105  H1191   1.111   .     S
C1106  H1127   1.112   .     S
C1106  H1128   1.111   .     S
C1106  C1107   1.524   .     S
C1106  O1146   1.416   .     S
C1107  H1131   1.110   .     S
C1108  O1152   1.280   .     A
C1108  O1150   1.275   .     A
C1108  C1110   1.401   .     S
C1109  C1111   1.397   .     S
C1109  O1151   1.274   .     A
C1109  O1153   1.280   .     A
C1111  C1166   1.454   .     S
C1111  C1178   1.346   .     S
C1112  O1154   1.386   .     S
C1113  O1144   1.390   .     S
C1113  C682    1.377   1_565 S
C1114  H1115   1.082   .     S
C1114  C704    1.378   1_565 S
H1129  C1175   1.110   .     S
H1130  C1175   1.110   .     S
H1137  C1713   1.108   .     S
N1139  Zn1155  2.012   .     S
N1140  Zn1156  2.012   .     S
O1143  Zn1155  2.003   .     S
O1147  Zn1156  2.003   .     S
O1148  Zn1156  2.008   .     S
O1149  Zn1155  2.008   .     S
O1150  Zn1155  1.993   .     S
O1151  Zn1156  1.993   .     S
O1152  Zn1156  1.987   .     S
O1153  Zn1155  1.987   .     S
C1157  C1160   1.424   .     S
C1157  O1211   1.286   .     A
C1157  O1216   1.284   .     A
C1158  H1194   1.080   .     S
C1158  C1160   1.395   .     A
C1159  C1181   1.410   .     A
C1159  C1168   1.428   .     S
C1159  C1182   1.397   .     A
C1160  C1180   1.403   .     A
C1161  N1208   1.373   .     A
C1161  O1213   1.386   .     S
C1162  O1214   1.388   .     S
C1162  N1207   1.373   .     A
C1162  C1776   1.428   .     S
C1163  N1207   1.362   .     A
C1163  H1200   1.080   .     S
C1163  C1773   1.426   .     S
C1164  N1208   1.363   .     A
C1164  H1201   1.080   .     S
C1165  N1209   1.157   .     T
C1165  C1042   1.458   1_655 S
C1166  N1210   1.155   .     T
C1167  O1222   1.411   .     S
C1167  H1203   1.110   .     S
C1167  C1169   1.522   .     S
C1167  H1202   1.113   .     S
C1168  O1217   1.280   .     A
C1168  O1215   1.291   .     A
C1169  H1204   1.111   .     S
C1169  H1206   1.110   .     S
C1170  O1212   1.412   .     S
C1170  H1184   1.114   .     S
C1170  C1171   1.522   .     S
C1170  H777    1.110   1_565 S
C1171  H1187   1.108   .     S
C1171  H1186   1.111   .     S
C1171  H1800   1.108   .     S
C1172  O1213   1.413   .     S
C1172  H1189   1.114   .     S
C1172  H1190   1.111   .     S
C1172  C1173   1.522   .     S
C1173  H1192   1.111   .     S
C1173  H1193   1.111   .     S
C1173  H1055   1.111   1_655 S
C1174  H1195   1.112   .     S
C1174  H1196   1.111   .     S
C1174  C1175   1.524   .     S
C1174  O1214   1.416   .     S
C1175  H1199   1.110   .     S
C1176  O1220   1.280   .     A
C1176  O1218   1.275   .     A
C1176  C1178   1.401   .     S
C1177  C1179   1.397   .     S
C1177  O1219   1.274   .     A
C1177  O1221   1.280   .     A
C1179  C1030   1.454   1_655 S
C1179  C1042   1.346   1_655 S
C1180  O1222   1.386   .     S
C1181  O1212   1.390   .     S
C1181  C750    1.377   1_565 S
C1182  H1183   1.082   .     S
C1182  C772    1.378   1_565 S
H1197  C1039   1.110   1_655 S
H1198  C1039   1.110   1_655 S
H1205  C1781   1.108   .     S
N1207  Zn1223  2.012   .     S
N1208  Zn1224  2.012   .     S
O1211  Zn1223  2.003   .     S
O1215  Zn1224  2.003   .     S
O1216  Zn1224  2.008   .     S
O1217  Zn1223  2.008   .     S
O1218  Zn1223  1.993   .     S
O1219  Zn1224  1.993   .     S
O1220  Zn1224  1.987   .     S
O1221  Zn1223  1.987   .     S
C1225  C1228   1.424   .     S
C1225  O1279   1.286   .     A
C1225  O1284   1.284   .     A
C1226  H1262   1.080   .     S
C1226  C1228   1.395   .     A
C1226  C1657   1.377   1_545 S
C1227  C1249   1.410   .     A
C1227  C1236   1.428   .     S
C1227  C1250   1.397   .     A
C1228  C1248   1.403   .     A
C1229  N1276   1.373   .     A
C1229  O1281   1.386   .     S
C1230  O1282   1.388   .     S
C1230  N1275   1.373   .     A
C1230  C8      1.428   1_556 S
C1231  N1275   1.362   .     A
C1231  H1268   1.080   .     S
C1231  C5      1.426   1_556 S
C1232  N1276   1.363   .     A
C1232  H1269   1.080   .     S
C1233  N1277   1.157   .     T
C1233  C1314   1.458   .     S
C1234  N1278   1.155   .     T
C1234  C1383   1.454   1_455 S
C1235  O1290   1.411   .     S
C1235  H1271   1.110   .     S
C1235  C1237   1.522   .     S
C1235  H1270   1.113   .     S
C1236  O1285   1.280   .     A
C1236  O1283   1.291   .     A
C1237  H1272   1.111   .     S
C1237  H1274   1.110   .     S
C1238  O1280   1.412   .     S
C1238  H1252   1.114   .     S
C1238  C1239   1.522   .     S
C1238  H1457   1.110   .     S
C1239  H1255   1.108   .     S
C1239  H1254   1.111   .     S
C1239  H32     1.108   1_556 S
C1240  O1281   1.413   .     S
C1240  H1257   1.114   .     S
C1240  H1258   1.111   .     S
C1240  C1241   1.522   .     S
C1241  H1260   1.111   .     S
C1241  H1261   1.111   .     S
C1241  H1327   1.111   .     S
C1242  H1263   1.112   .     S
C1242  H1264   1.111   .     S
C1242  C1243   1.524   .     S
C1242  O1282   1.416   .     S
C1243  H1267   1.110   .     S
C1243  H1401   1.110   1_455 S
C1243  H1402   1.110   1_455 S
C1244  O1288   1.280   .     A
C1244  O1286   1.275   .     A
C1244  C1246   1.401   .     S
C1245  C1247   1.397   .     S
C1245  O1287   1.274   .     A
C1245  O1289   1.280   .     A
C1246  C1369   1.458   1_455 S
C1246  C1383   1.346   1_455 S
C1247  C1302   1.454   .     S
C1247  C1314   1.346   .     S
C1248  O1290   1.386   .     S
C1248  C1658   1.378   1_545 S
C1249  O1280   1.390   .     S
C1249  C1430   1.377   .     S
C1250  H1251   1.082   .     S
C1250  C1452   1.378   .     S
H1253  C1646   1.110   1_545 S
H1259  C1377   1.111   1_455 S
H1265  C1311   1.110   .     S
H1266  C1311   1.110   .     S
H1273  C13     1.108   1_556 S
N1275  Zn1291  2.012   .     S
N1276  Zn1292  2.012   .     S
O1279  Zn1291  2.003   .     S
O1283  Zn1292  2.003   .     S
O1284  Zn1292  2.008   .     S
O1285  Zn1291  2.008   .     S
O1286  Zn1291  1.993   .     S
O1287  Zn1292  1.993   .     S
O1288  Zn1292  1.987   .     S
O1289  Zn1291  1.987   .     S
C1293  C1296   1.424   .     S
C1293  O1347   1.286   .     A
C1293  O1352   1.284   .     A
C1294  H1330   1.080   .     S
C1294  C1296   1.395   .     A
C1294  C1725   1.377   1_545 S
C1295  C1317   1.410   .     A
C1295  C1304   1.428   .     S
C1295  C1318   1.397   .     A
C1296  C1316   1.403   .     A
C1297  N1344   1.373   .     A
C1297  O1349   1.386   .     S
C1298  O1350   1.388   .     S
C1298  N1343   1.373   .     A
C1298  C76     1.428   1_556 S
C1299  N1343   1.362   .     A
C1299  H1336   1.080   .     S
C1299  C73     1.426   1_556 S
C1300  N1344   1.363   .     A
C1300  H1337   1.080   .     S
C1301  N1345   1.157   .     T
C1301  C1382   1.458   .     S
C1302  N1346   1.155   .     T
C1303  O1358   1.411   .     S
C1303  H1339   1.110   .     S
C1303  C1305   1.522   .     S
C1303  H1338   1.113   .     S
C1304  O1353   1.280   .     A
C1304  O1351   1.291   .     A
C1305  H1340   1.111   .     S
C1305  H1342   1.110   .     S
C1306  O1348   1.412   .     S
C1306  H1320   1.114   .     S
C1306  C1307   1.522   .     S
C1306  H1525   1.110   .     S
C1307  H1323   1.108   .     S
C1307  H1322   1.111   .     S
C1307  H100    1.108   1_556 S
C1308  O1349   1.413   .     S
C1308  H1325   1.114   .     S
C1308  H1326   1.111   .     S
C1308  C1309   1.522   .     S
C1309  H1328   1.111   .     S
C1309  H1329   1.111   .     S
C1309  H1395   1.111   .     S
C1310  H1331   1.112   .     S
C1310  H1332   1.111   .     S
C1310  C1311   1.524   .     S
C1310  O1350   1.416   .     S
C1311  H1335   1.110   .     S
C1312  O1356   1.280   .     A
C1312  O1354   1.275   .     A
C1312  C1314   1.401   .     S
C1313  C1315   1.397   .     S
C1313  O1355   1.274   .     A
C1313  O1357   1.280   .     A
C1315  C1370   1.454   .     S
C1315  C1382   1.346   .     S
C1316  O1358   1.386   .     S
C1316  C1726   1.378   1_545 S
C1317  O1348   1.390   .     S
C1317  C1498   1.377   .     S
C1318  H1319   1.082   .     S
C1318  C1520   1.378   .     S
H1321  C1714   1.110   1_545 S
H1333  C1379   1.110   .     S
H1334  C1379   1.110   .     S
H1341  C81     1.108   1_556 S
N1343  Zn1359  2.012   .     S
N1344  Zn1360  2.012   .     S
O1347  Zn1359  2.003   .     S
O1351  Zn1360  2.003   .     S
O1352  Zn1360  2.008   .     S
O1353  Zn1359  2.008   .     S
O1354  Zn1359  1.993   .     S
O1355  Zn1360  1.993   .     S
O1356  Zn1360  1.987   .     S
O1357  Zn1359  1.987   .     S
C1361  C1364   1.424   .     S
C1361  O1415   1.286   .     A
C1361  O1420   1.284   .     A
C1362  H1398   1.080   .     S
C1362  C1364   1.395   .     A
C1362  C1793   1.377   1_545 S
C1363  C1385   1.410   .     A
C1363  C1372   1.428   .     S
C1363  C1386   1.397   .     A
C1364  C1384   1.403   .     A
C1365  N1412   1.373   .     A
C1365  O1417   1.386   .     S
C1366  O1418   1.388   .     S
C1366  N1411   1.373   .     A
C1366  C144    1.428   1_556 S
C1367  N1411   1.362   .     A
C1367  H1404   1.080   .     S
C1367  C141    1.426   1_556 S
C1368  N1412   1.363   .     A
C1368  H1405   1.080   .     S
C1369  N1413   1.157   .     T
C1369  C1246   1.458   1_655 S
C1370  N1414   1.155   .     T
C1371  O1426   1.411   .     S
C1371  H1407   1.110   .     S
C1371  C1373   1.522   .     S
C1371  H1406   1.113   .     S
C1372  O1421   1.280   .     A
C1372  O1419   1.291   .     A
C1373  H1408   1.111   .     S
C1373  H1410   1.110   .     S
C1374  O1416   1.412   .     S
C1374  H1388   1.114   .     S
C1374  C1375   1.522   .     S
C1374  H1593   1.110   .     S
C1375  H1391   1.108   .     S
C1375  H1390   1.111   .     S
C1375  H168    1.108   1_556 S
C1376  O1417   1.413   .     S
C1376  H1393   1.114   .     S
C1376  H1394   1.111   .     S
C1376  C1377   1.522   .     S
C1377  H1396   1.111   .     S
C1377  H1397   1.111   .     S
C1377  H1259   1.111   1_655 S
C1378  H1399   1.112   .     S
C1378  H1400   1.111   .     S
C1378  C1379   1.524   .     S
C1378  O1418   1.416   .     S
C1379  H1403   1.110   .     S
C1380  O1424   1.280   .     A
C1380  O1422   1.275   .     A
C1380  C1382   1.401   .     S
C1381  C1383   1.397   .     S
C1381  O1423   1.274   .     A
C1381  O1425   1.280   .     A
C1383  C1234   1.454   1_655 S
C1383  C1246   1.346   1_655 S
C1384  O1426   1.386   .     S
C1384  C1794   1.378   1_545 S
C1385  O1416   1.390   .     S
C1385  C1566   1.377   .     S
C1386  H1387   1.082   .     S
C1386  C1588   1.378   .     S
H1389  C1782   1.110   1_545 S
H1401  C1243   1.110   1_655 S
H1402  C1243   1.110   1_655 S
H1409  C149    1.108   1_556 S
N1411  Zn1427  2.012   .     S
N1412  Zn1428  2.012   .     S
O1415  Zn1427  2.003   .     S
O1419  Zn1428  2.003   .     S
O1420  Zn1428  2.008   .     S
O1421  Zn1427  2.008   .     S
O1422  Zn1427  1.993   .     S
O1423  Zn1428  1.993   .     S
O1424  Zn1428  1.987   .     S
O1425  Zn1427  1.987   .     S
C1429  C1432   1.424   .     S
C1429  O1483   1.286   .     A
C1429  O1488   1.284   .     A
C1430  H1466   1.080   .     S
C1430  C1432   1.395   .     A
C1431  C1453   1.410   .     A
C1431  C1440   1.428   .     S
C1431  C1454   1.397   .     A
C1432  C1452   1.403   .     A
C1433  N1480   1.373   .     A
C1433  O1485   1.386   .     S
C1434  O1486   1.388   .     S
C1434  N1479   1.373   .     A
C1434  C212    1.428   1_556 S
C1435  N1479   1.362   .     A
C1435  H1472   1.080   .     S
C1435  C209    1.426   1_556 S
C1436  N1480   1.363   .     A
C1436  H1473   1.080   .     S
C1437  N1481   1.157   .     T
C1437  C1518   1.458   .     S
C1438  N1482   1.155   .     T
C1438  C1587   1.454   1_455 S
C1439  O1494   1.411   .     S
C1439  H1475   1.110   .     S
C1439  C1441   1.522   .     S
C1439  H1474   1.113   .     S
C1440  O1489   1.280   .     A
C1440  O1487   1.291   .     A
C1441  H1476   1.111   .     S
C1441  H1478   1.110   .     S
C1442  O1484   1.412   .     S
C1442  H1456   1.114   .     S
C1442  C1443   1.522   .     S
C1442  H1661   1.110   .     S
C1443  H1459   1.108   .     S
C1443  H1458   1.111   .     S
C1443  H236    1.108   1_556 S
C1444  O1485   1.413   .     S
C1444  H1461   1.114   .     S
C1444  H1462   1.111   .     S
C1444  C1445   1.522   .     S
C1445  H1464   1.111   .     S
C1445  H1465   1.111   .     S
C1445  H1531   1.111   .     S
C1446  H1467   1.112   .     S
C1446  H1468   1.111   .     S
C1446  C1447   1.524   .     S
C1446  O1486   1.416   .     S
C1447  H1471   1.110   .     S
C1447  H1605   1.110   1_455 S
C1447  H1606   1.110   1_455 S
C1448  O1492   1.280   .     A
C1448  O1490   1.275   .     A
C1448  C1450   1.401   .     S
C1449  C1451   1.397   .     S
C1449  O1491   1.274   .     A
C1449  O1493   1.280   .     A
C1450  C1573   1.458   1_455 S
C1450  C1587   1.346   1_455 S
C1451  C1506   1.454   .     S
C1451  C1518   1.346   .     S
C1452  O1494   1.386   .     S
C1453  O1484   1.390   .     S
C1453  C1634   1.377   .     S
C1454  H1455   1.082   .     S
C1454  C1656   1.378   .     S
H1463  C1581   1.111   1_455 S
H1469  C1515   1.110   .     S
H1470  C1515   1.110   .     S
H1477  C217    1.108   1_556 S
N1479  Zn1495  2.012   .     S
N1480  Zn1496  2.012   .     S
O1483  Zn1495  2.003   .     S
O1487  Zn1496  2.003   .     S
O1488  Zn1496  2.008   .     S
O1489  Zn1495  2.008   .     S
O1490  Zn1495  1.993   .     S
O1491  Zn1496  1.993   .     S
O1492  Zn1496  1.987   .     S
O1493  Zn1495  1.987   .     S
C1497  C1500   1.424   .     S
C1497  O1551   1.286   .     A
C1497  O1556   1.284   .     A
C1498  H1534   1.080   .     S
C1498  C1500   1.395   .     A
C1499  C1521   1.410   .     A
C1499  C1508   1.428   .     S
C1499  C1522   1.397   .     A
C1500  C1520   1.403   .     A
C1501  N1548   1.373   .     A
C1501  O1553   1.386   .     S
C1502  O1554   1.388   .     S
C1502  N1547   1.373   .     A
C1502  C280    1.428   1_556 S
C1503  N1547   1.362   .     A
C1503  H1540   1.080   .     S
C1503  C277    1.426   1_556 S
C1504  N1548   1.363   .     A
C1504  H1541   1.080   .     S
C1505  N1549   1.157   .     T
C1505  C1586   1.458   .     S
C1506  N1550   1.155   .     T
C1507  O1562   1.411   .     S
C1507  H1543   1.110   .     S
C1507  C1509   1.522   .     S
C1507  H1542   1.113   .     S
C1508  O1557   1.280   .     A
C1508  O1555   1.291   .     A
C1509  H1544   1.111   .     S
C1509  H1546   1.110   .     S
C1510  O1552   1.412   .     S
C1510  H1524   1.114   .     S
C1510  C1511   1.522   .     S
C1510  H1729   1.110   .     S
C1511  H1527   1.108   .     S
C1511  H1526   1.111   .     S
C1511  H304    1.108   1_556 S
C1512  O1553   1.413   .     S
C1512  H1529   1.114   .     S
C1512  H1530   1.111   .     S
C1512  C1513   1.522   .     S
C1513  H1532   1.111   .     S
C1513  H1533   1.111   .     S
C1513  H1599   1.111   .     S
C1514  H1535   1.112   .     S
C1514  H1536   1.111   .     S
C1514  C1515   1.524   .     S
C1514  O1554   1.416   .     S
C1515  H1539   1.110   .     S
C1516  O1560   1.280   .     A
C1516  O1558   1.275   .     A
C1516  C1518   1.401   .     S
C1517  C1519   1.397   .     S
C1517  O1559   1.274   .     A
C1517  O1561   1.280   .     A
C1519  C1574   1.454   .     S
C1519  C1586   1.346   .     S
C1520  O1562   1.386   .     S
C1521  O1552   1.390   .     S
C1521  C1702   1.377   .     S
C1522  H1523   1.082   .     S
C1522  C1724   1.378   .     S
H1537  C1583   1.110   .     S
H1538  C1583   1.110   .     S
H1545  C285    1.108   1_556 S
N1547  Zn1563  2.012   .     S
N1548  Zn1564  2.012   .     S
O1551  Zn1563  2.003   .     S
O1555  Zn1564  2.003   .     S
O1556  Zn1564  2.008   .     S
O1557  Zn1563  2.008   .     S
O1558  Zn1563  1.993   .     S
O1559  Zn1564  1.993   .     S
O1560  Zn1564  1.987   .     S
O1561  Zn1563  1.987   .     S
C1565  C1568   1.424   .     S
C1565  O1619   1.286   .     A
C1565  O1624   1.284   .     A
C1566  H1602   1.080   .     S
C1566  C1568   1.395   .     A
C1567  C1589   1.410   .     A
C1567  C1576   1.428   .     S
C1567  C1590   1.397   .     A
C1568  C1588   1.403   .     A
C1569  N1616   1.373   .     A
C1569  O1621   1.386   .     S
C1570  O1622   1.388   .     S
C1570  N1615   1.373   .     A
C1570  C348    1.428   1_556 S
C1571  N1615   1.362   .     A
C1571  H1608   1.080   .     S
C1571  C345    1.426   1_556 S
C1572  N1616   1.363   .     A
C1572  H1609   1.080   .     S
C1573  N1617   1.157   .     T
C1573  C1450   1.458   1_655 S
C1574  N1618   1.155   .     T
C1575  O1630   1.411   .     S
C1575  H1611   1.110   .     S
C1575  C1577   1.522   .     S
C1575  H1610   1.113   .     S
C1576  O1625   1.280   .     A
C1576  O1623   1.291   .     A
C1577  H1612   1.111   .     S
C1577  H1614   1.110   .     S
C1578  O1620   1.412   .     S
C1578  H1592   1.114   .     S
C1578  C1579   1.522   .     S
C1578  H1797   1.110   .     S
C1579  H1595   1.108   .     S
C1579  H1594   1.111   .     S
C1579  H372    1.108   1_556 S
C1580  O1621   1.413   .     S
C1580  H1597   1.114   .     S
C1580  H1598   1.111   .     S
C1580  C1581   1.522   .     S
C1581  H1600   1.111   .     S
C1581  H1601   1.111   .     S
C1581  H1463   1.111   1_655 S
C1582  H1603   1.112   .     S
C1582  H1604   1.111   .     S
C1582  C1583   1.524   .     S
C1582  O1622   1.416   .     S
C1583  H1607   1.110   .     S
C1584  O1628   1.280   .     A
C1584  O1626   1.275   .     A
C1584  C1586   1.401   .     S
C1585  C1587   1.397   .     S
C1585  O1627   1.274   .     A
C1585  O1629   1.280   .     A
C1587  C1438   1.454   1_655 S
C1587  C1450   1.346   1_655 S
C1588  O1630   1.386   .     S
C1589  O1620   1.390   .     S
C1589  C1770   1.377   .     S
C1590  H1591   1.082   .     S
C1590  C1792   1.378   .     S
H1605  C1447   1.110   1_655 S
H1606  C1447   1.110   1_655 S
H1613  C353    1.108   1_556 S
N1615  Zn1631  2.012   .     S
N1616  Zn1632  2.012   .     S
O1619  Zn1631  2.003   .     S
O1623  Zn1632  2.003   .     S
O1624  Zn1632  2.008   .     S
O1625  Zn1631  2.008   .     S
O1626  Zn1631  1.993   .     S
O1627  Zn1632  1.993   .     S
O1628  Zn1632  1.987   .     S
O1629  Zn1631  1.987   .     S
C1633  C1636   1.424   .     S
C1633  O1687   1.286   .     A
C1633  O1692   1.284   .     A
C1634  H1670   1.080   .     S
C1634  C1636   1.395   .     A
C1635  C1657   1.410   .     A
C1635  C1644   1.428   .     S
C1635  C1658   1.397   .     A
C1636  C1656   1.403   .     A
C1637  N1684   1.373   .     A
C1637  O1689   1.386   .     S
C1638  O1690   1.388   .     S
C1638  N1683   1.373   .     A
C1638  C416    1.428   1_556 S
C1639  N1683   1.362   .     A
C1639  H1676   1.080   .     S
C1639  C413    1.426   1_556 S
C1640  N1684   1.363   .     A
C1640  H1677   1.080   .     S
C1641  N1685   1.157   .     T
C1641  C1722   1.458   .     S
C1642  N1686   1.155   .     T
C1642  C1791   1.454   1_455 S
C1643  O1698   1.411   .     S
C1643  H1679   1.110   .     S
C1643  C1645   1.522   .     S
C1643  H1678   1.113   .     S
C1644  O1693   1.280   .     A
C1644  O1691   1.291   .     A
C1645  H1680   1.111   .     S
C1645  H1682   1.110   .     S
C1646  O1688   1.412   .     S
C1646  H1660   1.114   .     S
C1646  C1647   1.522   .     S
C1646  H1253   1.110   1_565 S
C1647  H1663   1.108   .     S
C1647  H1662   1.111   .     S
C1647  H440    1.108   1_556 S
C1648  O1689   1.413   .     S
C1648  H1665   1.114   .     S
C1648  H1666   1.111   .     S
C1648  C1649   1.522   .     S
C1649  H1668   1.111   .     S
C1649  H1669   1.111   .     S
C1649  H1735   1.111   .     S
C1650  H1671   1.112   .     S
C1650  H1672   1.111   .     S
C1650  C1651   1.524   .     S
C1650  O1690   1.416   .     S
C1651  H1675   1.110   .     S
C1651  H1809   1.110   1_455 S
C1651  H1810   1.110   1_455 S
C1652  O1696   1.280   .     A
C1652  O1694   1.275   .     A
C1652  C1654   1.401   .     S
C1653  C1655   1.397   .     S
C1653  O1695   1.274   .     A
C1653  O1697   1.280   .     A
C1654  C1777   1.458   1_455 S
C1654  C1791   1.346   1_455 S
C1655  C1710   1.454   .     S
C1655  C1722   1.346   .     S
C1656  O1698   1.386   .     S
C1657  O1688   1.390   .     S
C1657  C1226   1.377   1_565 S
C1658  H1659   1.082   .     S
C1658  C1248   1.378   1_565 S
H1667  C1785   1.111   1_455 S
H1673  C1719   1.110   .     S
H1674  C1719   1.110   .     S
H1681  C421    1.108   1_556 S
N1683  Zn1699  2.012   .     S
N1684  Zn1700  2.012   .     S
O1687  Zn1699  2.003   .     S
O1691  Zn1700  2.003   .     S
O1692  Zn1700  2.008   .     S
O1693  Zn1699  2.008   .     S
O1694  Zn1699  1.993   .     S
O1695  Zn1700  1.993   .     S
O1696  Zn1700  1.987   .     S
O1697  Zn1699  1.987   .     S
C1701  C1704   1.424   .     S
C1701  O1755   1.286   .     A
C1701  O1760   1.284   .     A
C1702  H1738   1.080   .     S
C1702  C1704   1.395   .     A
C1703  C1725   1.410   .     A
C1703  C1712   1.428   .     S
C1703  C1726   1.397   .     A
C1704  C1724   1.403   .     A
C1705  N1752   1.373   .     A
C1705  O1757   1.386   .     S
C1706  O1758   1.388   .     S
C1706  N1751   1.373   .     A
C1706  C484    1.428   1_556 S
C1707  N1751   1.362   .     A
C1707  H1744   1.080   .     S
C1707  C481    1.426   1_556 S
C1708  N1752   1.363   .     A
C1708  H1745   1.080   .     S
C1709  N1753   1.157   .     T
C1709  C1790   1.458   .     S
C1710  N1754   1.155   .     T
C1711  O1766   1.411   .     S
C1711  H1747   1.110   .     S
C1711  C1713   1.522   .     S
C1711  H1746   1.113   .     S
C1712  O1761   1.280   .     A
C1712  O1759   1.291   .     A
C1713  H1748   1.111   .     S
C1713  H1750   1.110   .     S
C1714  O1756   1.412   .     S
C1714  H1728   1.114   .     S
C1714  C1715   1.522   .     S
C1714  H1321   1.110   1_565 S
C1715  H1731   1.108   .     S
C1715  H1730   1.111   .     S
C1715  H508    1.108   1_556 S
C1716  O1757   1.413   .     S
C1716  H1733   1.114   .     S
C1716  H1734   1.111   .     S
C1716  C1717   1.522   .     S
C1717  H1736   1.111   .     S
C1717  H1737   1.111   .     S
C1717  H1803   1.111   .     S
C1718  H1739   1.112   .     S
C1718  H1740   1.111   .     S
C1718  C1719   1.524   .     S
C1718  O1758   1.416   .     S
C1719  H1743   1.110   .     S
C1720  O1764   1.280   .     A
C1720  O1762   1.275   .     A
C1720  C1722   1.401   .     S
C1721  C1723   1.397   .     S
C1721  O1763   1.274   .     A
C1721  O1765   1.280   .     A
C1723  C1778   1.454   .     S
C1723  C1790   1.346   .     S
C1724  O1766   1.386   .     S
C1725  O1756   1.390   .     S
C1725  C1294   1.377   1_565 S
C1726  H1727   1.082   .     S
C1726  C1316   1.378   1_565 S
H1741  C1787   1.110   .     S
H1742  C1787   1.110   .     S
H1749  C489    1.108   1_556 S
N1751  Zn1767  2.012   .     S
N1752  Zn1768  2.012   .     S
O1755  Zn1767  2.003   .     S
O1759  Zn1768  2.003   .     S
O1760  Zn1768  2.008   .     S
O1761  Zn1767  2.008   .     S
O1762  Zn1767  1.993   .     S
O1763  Zn1768  1.993   .     S
O1764  Zn1768  1.987   .     S
O1765  Zn1767  1.987   .     S
C1769  C1772   1.424   .     S
C1769  O1823   1.286   .     A
C1769  O1828   1.284   .     A
C1770  H1806   1.080   .     S
C1770  C1772   1.395   .     A
C1771  C1793   1.410   .     A
C1771  C1780   1.428   .     S
C1771  C1794   1.397   .     A
C1772  C1792   1.403   .     A
C1773  N1820   1.373   .     A
C1773  O1825   1.386   .     S
C1774  O1826   1.388   .     S
C1774  N1819   1.373   .     A
C1774  C552    1.428   1_556 S
C1775  N1819   1.362   .     A
C1775  H1812   1.080   .     S
C1775  C549    1.426   1_556 S
C1776  N1820   1.363   .     A
C1776  H1813   1.080   .     S
C1777  N1821   1.157   .     T
C1777  C1654   1.458   1_655 S
C1778  N1822   1.155   .     T
C1779  O1834   1.411   .     S
C1779  H1815   1.110   .     S
C1779  C1781   1.522   .     S
C1779  H1814   1.113   .     S
C1780  O1829   1.280   .     A
C1780  O1827   1.291   .     A
C1781  H1816   1.111   .     S
C1781  H1818   1.110   .     S
C1782  O1824   1.412   .     S
C1782  H1796   1.114   .     S
C1782  C1783   1.522   .     S
C1782  H1389   1.110   1_565 S
C1783  H1799   1.108   .     S
C1783  H1798   1.111   .     S
C1783  H576    1.108   1_556 S
C1784  O1825   1.413   .     S
C1784  H1801   1.114   .     S
C1784  H1802   1.111   .     S
C1784  C1785   1.522   .     S
C1785  H1804   1.111   .     S
C1785  H1805   1.111   .     S
C1785  H1667   1.111   1_655 S
C1786  H1807   1.112   .     S
C1786  H1808   1.111   .     S
C1786  C1787   1.524   .     S
C1786  O1826   1.416   .     S
C1787  H1811   1.110   .     S
C1788  O1832   1.280   .     A
C1788  O1830   1.275   .     A
C1788  C1790   1.401   .     S
C1789  C1791   1.397   .     S
C1789  O1831   1.274   .     A
C1789  O1833   1.280   .     A
C1791  C1642   1.454   1_655 S
C1791  C1654   1.346   1_655 S
C1792  O1834   1.386   .     S
C1793  O1824   1.390   .     S
C1793  C1362   1.377   1_565 S
C1794  H1795   1.082   .     S
C1794  C1384   1.378   1_565 S
H1809  C1651   1.110   1_655 S
H1810  C1651   1.110   1_655 S
H1817  C557    1.108   1_556 S
N1819  Zn1835  2.012   .     S
N1820  Zn1836  2.012   .     S
O1823  Zn1835  2.003   .     S
O1827  Zn1836  2.003   .     S
O1828  Zn1836  2.008   .     S
O1829  Zn1835  2.008   .     S
O1830  Zn1835  1.993   .     S
O1831  Zn1836  1.993   .     S
O1832  Zn1836  1.987   .     S
O1833  Zn1835  1.987   .     S
