data_str_m3_o1_o16_pcu_sym.269
_audit_creation_date              2020-01-03
_audit_creation_method            'Materials Studio'
_symmetry_space_group_name_H-M    'P1'
_symmetry_Int_Tables_number       1
_symmetry_cell_setting            triclinic
loop_
_symmetry_equiv_pos_as_xyz
  x,y,z
_cell_length_a                    30.3097
_cell_length_b                    32.2119
_cell_length_c                    27.0564
_cell_angle_alpha                 94.3475
_cell_angle_beta                  72.8735
_cell_angle_gamma                 88.7884
loop_
_atom_site_label
_atom_site_type_symbol
_atom_site_fract_x
_atom_site_fract_y
_atom_site_fract_z
_atom_site_U_iso_or_equiv
_atom_site_adp_type
_atom_site_occupancy
C1     C     0.16802   0.24594   0.24454   0.00000  Uiso   1.00
C2     C     0.14518   0.15935   0.48976   0.00000  Uiso   1.00
C3     C     0.15576   0.15033   0.43561   0.00000  Uiso   1.00
C4     C     0.17879   0.15167   0.01493   0.00000  Uiso   1.00
C5     C     0.22331   0.13640   0.48505   0.00000  Uiso   1.00
C6     C     0.23121   0.12112   0.43272   0.00000  Uiso   1.00
C7     C     0.19422   0.12263   0.41095   0.00000  Uiso   1.00
C8     C     0.17115   0.16420   0.06766   0.00000  Uiso   1.00
C9     C     0.25008   0.14563   0.06141   0.00000  Uiso   1.00
C10    C     0.12780   0.16977   0.40880   0.00000  Uiso   1.00
C11    C     0.21145   0.31123   0.23274   0.00000  Uiso   1.00
C12    C     0.14151   0.16674   0.35115   0.00000  Uiso   1.00
C13    C     0.20805   0.02060   0.24053   0.00000  Uiso   1.00
C14    C     0.16567   0.04198   0.25183   0.00000  Uiso   1.00
C15    C     0.12469   0.02041   0.25536   0.00000  Uiso   1.00
C16    C     0.13002   0.31187   0.23516   0.00000  Uiso   1.00
C17    C     0.17073   0.28976   0.23482   0.00000  Uiso   1.00
C18    C     0.31758   0.13474   0.22395   0.00000  Uiso   1.00
C19    C     0.03214   0.13550   0.22303   0.00000  Uiso   1.00
C20    C     0.01543   0.19936   0.27439   0.00000  Uiso   1.00
C21    C     0.30066   0.19772   0.27681   0.00000  Uiso   1.00
C22    C     0.16613   0.08685   0.25213   0.00000  Uiso   1.00
C23    C     0.19188   0.16497   0.14898   0.00000  Uiso   1.00
C24    C     0.25971   0.13904   0.00737   0.00000  Uiso   1.00
C25    C     0.20511   0.15813   0.09198   0.00000  Uiso   1.00
C26    C     0.09291   0.19986   0.43760   0.00000  Uiso   1.00
C27    C     0.08223   0.20647   0.49152   0.00000  Uiso   1.00
C28    C     0.10189   0.17859   0.01674   0.00000  Uiso   1.00
H29    H     0.23889   0.03732   0.23812   0.00000  Uiso   1.00
H30    H     0.13896   0.17952   0.09064   0.00000  Uiso   1.00
N31    N     0.04760   0.16668   0.25002   0.00000  Uiso   1.00
N32    N     0.28573   0.16665   0.25001   0.00000  Uiso   1.00
O33    O     0.12846   0.22775   0.25001   0.00000  Uiso   1.00
O34    O     0.20490   0.22774   0.25001   0.00000  Uiso   1.00
O35    O     0.10947   0.16666   0.32681   0.00000  Uiso   1.00
O36    O     0.18591   0.16665   0.32681   0.00000  Uiso   1.00
O37    O     0.12843   0.10559   0.25000   0.00000  Uiso   1.00
O38    O     0.20488   0.10558   0.24999   0.00000  Uiso   1.00
O39    O     0.14742   0.16668   0.17319   0.00000  Uiso   1.00
O40    O     0.22387   0.16667   0.17319   0.00000  Uiso   1.00
Zn41   Zn    0.11562   0.16667   0.25000   0.00000  Uiso   1.00
Zn42   Zn    0.21771   0.16666   0.25000   0.00000  Uiso   1.00
O43    O     0.28563   0.14236   0.08333   0.00000  Uiso   1.00
C44    C     0.30151   0.18229   0.09207   0.00000  Uiso   1.00
H45    H     0.31634   0.18205   0.12493   0.00000  Uiso   1.00
H46    H     0.27449   0.20801   0.10089   0.00000  Uiso   1.00
H47    H     0.32913   0.18883   0.05759   0.00000  Uiso   1.00
C48    C     0.07888   0.03848   0.28970   0.00000  Uiso   1.00
O49    O     0.07755   0.06290   0.32700   0.00000  Uiso   1.00
O50    O     0.03740   0.02761   0.28085   0.00000  Uiso   1.00
H51    H     0.00917   0.04152   0.30755   0.00000  Uiso   1.00
C52    C     0.10201   0.29401   0.20196   0.00000  Uiso   1.00
O53    O     0.06482   0.30995   0.20309   0.00000  Uiso   1.00
O54    O     0.12042   0.25989   0.16595   0.00000  Uiso   1.00
H55    H     0.09843   0.24982   0.14631   0.00000  Uiso   1.00
C56    C     0.30316   0.09873   0.19592   0.00000  Uiso   1.00
O57    O     0.27885   0.10398   0.16814   0.00000  Uiso   1.00
O58    O     0.31900   0.05839   0.19963   0.00000  Uiso   1.00
H59    H     0.31092   0.03699   0.17459   0.00000  Uiso   1.00
C60    C     0.06712   0.10735   0.18505   0.00000  Uiso   1.00
O61    O     0.09106   0.12084   0.14571   0.00000  Uiso   1.00
O62    O     0.07248   0.06558   0.19270   0.00000  Uiso   1.00
H63    H     0.09758   0.05013   0.16323   0.00000  Uiso   1.00
C64    C     0.02887   0.23901   0.29615   0.00000  Uiso   1.00
O65    O     0.05917   0.23949   0.31671   0.00000  Uiso   1.00
O66    O     0.00415   0.27621   0.29712   0.00000  Uiso   1.00
H67    H     0.01030   0.29864   0.32223   0.00000  Uiso   1.00
O68    O     0.26890   0.22950   0.30268   0.00000  Uiso   1.00
C69    C     0.25622   0.22577   0.35664   0.00000  Uiso   1.00
H70    H     0.24279   0.19483   0.36653   0.00000  Uiso   1.00
H71    H     0.22804   0.24933   0.37607   0.00000  Uiso   1.00
H72    H     0.28530   0.23195   0.37288   0.00000  Uiso   1.00
O73    O     0.27232   0.09899   0.40689   0.00000  Uiso   1.00
C74    C     0.29819   0.12188   0.36649   0.00000  Uiso   1.00
H75    H     0.30214   0.15451   0.38016   0.00000  Uiso   1.00
H76    H     0.28284   0.12154   0.33405   0.00000  Uiso   1.00
H77    H     0.00019   0.10753   0.35120   0.00000  Uiso   1.00
C78    C     0.29932   0.16105   0.47920   0.00000  Uiso   1.00
O79    O     0.00476   0.14452   0.46482   0.00000  Uiso   1.00
O80    O     0.29130   0.20327   0.47461   0.00000  Uiso   1.00
H81    H     0.31653   0.22120   0.48015   0.00000  Uiso   1.00
C82    C     0.06393   0.22303   0.41381   0.00000  Uiso   1.00
O83    O     0.03681   0.20403   0.39612   0.00000  Uiso   1.00
O84    O     0.06326   0.26661   0.41750   0.00000  Uiso   1.00
H85    H     0.03779   0.27942   0.40548   0.00000  Uiso   1.00
O86    O     0.07524   0.16532   0.06320   0.00000  Uiso   1.00
C87    C     0.06441   0.12339   0.05415   0.00000  Uiso   1.00
H88    H     0.09501   0.10190   0.04851   0.00000  Uiso   1.00
H89    H     0.05093   0.11863   0.02025   0.00000  Uiso   1.00
H90    H     0.03692   0.11466   0.08844   0.00000  Uiso   1.00
O91    O     0.04844   0.23685   0.01796   0.00000  Uiso   1.00
C92    C     0.06002   0.25809   0.05968   0.00000  Uiso   1.00
H93    H     0.09740   0.26475   0.04974   0.00000  Uiso   1.00
H94    H     0.04942   0.24033   0.09449   0.00000  Uiso   1.00
H95    H     0.04023   0.28847   0.06971   0.00000  Uiso   1.00
C96    C     0.18953   0.08765   0.37407   0.00000  Uiso   1.00
O97    O     0.22351   0.06940   0.34334   0.00000  Uiso   1.00
O98    O     0.14570   0.07296   0.37831   0.00000  Uiso   1.00
H99    H     0.14722   0.04512   0.35768   0.00000  Uiso   1.00
C100   C     0.25873   0.29151   0.21822   0.00000  Uiso   1.00
O101   O     0.28701   0.30553   0.23844   0.00000  Uiso   1.00
O102   O     0.27199   0.25879   0.17930   0.00000  Uiso   1.00
H103   H     0.30539   0.24897   0.17267   0.00000  Uiso   1.00
C104   C     0.50135   0.24594   0.24454   0.00000  Uiso   1.00
C105   C     0.47851   0.15935   0.48976   0.00000  Uiso   1.00
C106   C     0.48909   0.15033   0.43561   0.00000  Uiso   1.00
C107   C     0.51212   0.15167   0.01493   0.00000  Uiso   1.00
C108   C     0.55664   0.13640   0.48505   0.00000  Uiso   1.00
C109   C     0.56455   0.12112   0.43272   0.00000  Uiso   1.00
C110   C     0.52755   0.12263   0.41095   0.00000  Uiso   1.00
C111   C     0.50448   0.16420   0.06766   0.00000  Uiso   1.00
C112   C     0.58341   0.14563   0.06141   0.00000  Uiso   1.00
C113   C     0.46114   0.16977   0.40880   0.00000  Uiso   1.00
C114   C     0.54478   0.31123   0.23274   0.00000  Uiso   1.00
C115   C     0.47484   0.16674   0.35115   0.00000  Uiso   1.00
C116   C     0.54139   0.02060   0.24053   0.00000  Uiso   1.00
C117   C     0.49900   0.04198   0.25183   0.00000  Uiso   1.00
C118   C     0.45803   0.02041   0.25536   0.00000  Uiso   1.00
C119   C     0.46335   0.31187   0.23516   0.00000  Uiso   1.00
C120   C     0.50406   0.28976   0.23482   0.00000  Uiso   1.00
C121   C     0.65092   0.13474   0.22395   0.00000  Uiso   1.00
C122   C     0.36547   0.13550   0.22303   0.00000  Uiso   1.00
C123   C     0.34876   0.19936   0.27439   0.00000  Uiso   1.00
C124   C     0.63399   0.19772   0.27681   0.00000  Uiso   1.00
C125   C     0.49947   0.08685   0.25213   0.00000  Uiso   1.00
C126   C     0.52521   0.16497   0.14898   0.00000  Uiso   1.00
C127   C     0.59304   0.13904   0.00737   0.00000  Uiso   1.00
C128   C     0.53844   0.15813   0.09198   0.00000  Uiso   1.00
C129   C     0.42624   0.19986   0.43760   0.00000  Uiso   1.00
C130   C     0.41556   0.20647   0.49152   0.00000  Uiso   1.00
C131   C     0.43523   0.17859   0.01674   0.00000  Uiso   1.00
H132   H     0.57223   0.03732   0.23812   0.00000  Uiso   1.00
H133   H     0.47229   0.17952   0.09064   0.00000  Uiso   1.00
N134   N     0.38093   0.16668   0.25002   0.00000  Uiso   1.00
N135   N     0.61906   0.16665   0.25001   0.00000  Uiso   1.00
O136   O     0.46179   0.22775   0.25001   0.00000  Uiso   1.00
O137   O     0.53823   0.22774   0.25001   0.00000  Uiso   1.00
O138   O     0.44280   0.16666   0.32681   0.00000  Uiso   1.00
O139   O     0.51924   0.16665   0.32681   0.00000  Uiso   1.00
O140   O     0.46177   0.10559   0.25000   0.00000  Uiso   1.00
O141   O     0.53821   0.10558   0.24999   0.00000  Uiso   1.00
O142   O     0.48076   0.16668   0.17319   0.00000  Uiso   1.00
O143   O     0.55720   0.16667   0.17319   0.00000  Uiso   1.00
Zn144  Zn    0.44896   0.16667   0.25000   0.00000  Uiso   1.00
Zn145  Zn    0.55104   0.16666   0.25000   0.00000  Uiso   1.00
O146   O     0.61897   0.14236   0.08333   0.00000  Uiso   1.00
C147   C     0.63485   0.18229   0.09207   0.00000  Uiso   1.00
H148   H     0.64967   0.18205   0.12493   0.00000  Uiso   1.00
H149   H     0.60782   0.20801   0.10089   0.00000  Uiso   1.00
H150   H     0.66246   0.18883   0.05759   0.00000  Uiso   1.00
C151   C     0.41221   0.03848   0.28970   0.00000  Uiso   1.00
O152   O     0.41089   0.06290   0.32700   0.00000  Uiso   1.00
O153   O     0.37073   0.02761   0.28085   0.00000  Uiso   1.00
H154   H     0.34250   0.04152   0.30755   0.00000  Uiso   1.00
C155   C     0.43534   0.29401   0.20196   0.00000  Uiso   1.00
O156   O     0.39816   0.30995   0.20309   0.00000  Uiso   1.00
O157   O     0.45375   0.25989   0.16595   0.00000  Uiso   1.00
H158   H     0.43176   0.24982   0.14631   0.00000  Uiso   1.00
C159   C     0.63649   0.09873   0.19592   0.00000  Uiso   1.00
O160   O     0.61218   0.10398   0.16814   0.00000  Uiso   1.00
O161   O     0.65233   0.05839   0.19963   0.00000  Uiso   1.00
H162   H     0.64425   0.03699   0.17459   0.00000  Uiso   1.00
C163   C     0.40045   0.10735   0.18505   0.00000  Uiso   1.00
O164   O     0.42439   0.12084   0.14571   0.00000  Uiso   1.00
O165   O     0.40581   0.06558   0.19270   0.00000  Uiso   1.00
H166   H     0.43091   0.05013   0.16323   0.00000  Uiso   1.00
C167   C     0.36220   0.23901   0.29615   0.00000  Uiso   1.00
O168   O     0.39250   0.23949   0.31671   0.00000  Uiso   1.00
O169   O     0.33749   0.27621   0.29712   0.00000  Uiso   1.00
H170   H     0.34364   0.29864   0.32223   0.00000  Uiso   1.00
O171   O     0.60223   0.22950   0.30268   0.00000  Uiso   1.00
C172   C     0.58956   0.22577   0.35664   0.00000  Uiso   1.00
H173   H     0.57612   0.19483   0.36653   0.00000  Uiso   1.00
H174   H     0.56137   0.24933   0.37607   0.00000  Uiso   1.00
H175   H     0.61864   0.23195   0.37288   0.00000  Uiso   1.00
O176   O     0.60565   0.09899   0.40689   0.00000  Uiso   1.00
C177   C     0.63153   0.12188   0.36649   0.00000  Uiso   1.00
H178   H     0.63547   0.15451   0.38016   0.00000  Uiso   1.00
H179   H     0.61617   0.12154   0.33405   0.00000  Uiso   1.00
H180   H     0.33352   0.10753   0.35120   0.00000  Uiso   1.00
C181   C     0.63265   0.16105   0.47920   0.00000  Uiso   1.00
O182   O     0.33809   0.14452   0.46482   0.00000  Uiso   1.00
O183   O     0.62463   0.20327   0.47461   0.00000  Uiso   1.00
H184   H     0.64986   0.22120   0.48015   0.00000  Uiso   1.00
C185   C     0.39727   0.22303   0.41381   0.00000  Uiso   1.00
O186   O     0.37014   0.20403   0.39612   0.00000  Uiso   1.00
O187   O     0.39660   0.26661   0.41750   0.00000  Uiso   1.00
H188   H     0.37112   0.27942   0.40548   0.00000  Uiso   1.00
O189   O     0.40857   0.16532   0.06320   0.00000  Uiso   1.00
C190   C     0.39774   0.12339   0.05415   0.00000  Uiso   1.00
H191   H     0.42834   0.10190   0.04851   0.00000  Uiso   1.00
H192   H     0.38426   0.11863   0.02025   0.00000  Uiso   1.00
H193   H     0.37026   0.11466   0.08844   0.00000  Uiso   1.00
O194   O     0.38177   0.23685   0.01796   0.00000  Uiso   1.00
C195   C     0.39335   0.25809   0.05968   0.00000  Uiso   1.00
H196   H     0.43073   0.26475   0.04974   0.00000  Uiso   1.00
H197   H     0.38276   0.24033   0.09449   0.00000  Uiso   1.00
H198   H     0.37357   0.28847   0.06971   0.00000  Uiso   1.00
C199   C     0.52287   0.08765   0.37407   0.00000  Uiso   1.00
O200   O     0.55684   0.06940   0.34334   0.00000  Uiso   1.00
O201   O     0.47903   0.07296   0.37831   0.00000  Uiso   1.00
H202   H     0.48055   0.04512   0.35768   0.00000  Uiso   1.00
C203   C     0.59206   0.29151   0.21822   0.00000  Uiso   1.00
O204   O     0.62034   0.30553   0.23844   0.00000  Uiso   1.00
O205   O     0.60533   0.25879   0.17930   0.00000  Uiso   1.00
H206   H     0.63872   0.24897   0.17267   0.00000  Uiso   1.00
C207   C     0.83468   0.24594   0.24454   0.00000  Uiso   1.00
C208   C     0.81185   0.15935   0.48976   0.00000  Uiso   1.00
C209   C     0.82242   0.15033   0.43561   0.00000  Uiso   1.00
C210   C     0.84545   0.15167   0.01493   0.00000  Uiso   1.00
C211   C     0.88998   0.13640   0.48505   0.00000  Uiso   1.00
C212   C     0.89788   0.12112   0.43272   0.00000  Uiso   1.00
C213   C     0.86088   0.12263   0.41095   0.00000  Uiso   1.00
C214   C     0.83782   0.16420   0.06766   0.00000  Uiso   1.00
C215   C     0.91674   0.14563   0.06141   0.00000  Uiso   1.00
C216   C     0.79447   0.16977   0.40880   0.00000  Uiso   1.00
C217   C     0.87811   0.31123   0.23274   0.00000  Uiso   1.00
C218   C     0.80818   0.16674   0.35115   0.00000  Uiso   1.00
C219   C     0.87472   0.02060   0.24053   0.00000  Uiso   1.00
C220   C     0.83233   0.04198   0.25183   0.00000  Uiso   1.00
C221   C     0.79136   0.02041   0.25536   0.00000  Uiso   1.00
C222   C     0.79669   0.31187   0.23516   0.00000  Uiso   1.00
C223   C     0.83739   0.28976   0.23482   0.00000  Uiso   1.00
C224   C     0.98425   0.13474   0.22395   0.00000  Uiso   1.00
C225   C     0.69881   0.13550   0.22303   0.00000  Uiso   1.00
C226   C     0.68210   0.19936   0.27439   0.00000  Uiso   1.00
C227   C     0.96733   0.19772   0.27681   0.00000  Uiso   1.00
C228   C     0.83280   0.08685   0.25213   0.00000  Uiso   1.00
C229   C     0.85855   0.16497   0.14898   0.00000  Uiso   1.00
C230   C     0.92638   0.13904   0.00737   0.00000  Uiso   1.00
C231   C     0.87177   0.15813   0.09198   0.00000  Uiso   1.00
C232   C     0.75958   0.19986   0.43760   0.00000  Uiso   1.00
C233   C     0.74889   0.20647   0.49152   0.00000  Uiso   1.00
C234   C     0.76856   0.17859   0.01674   0.00000  Uiso   1.00
H235   H     0.90556   0.03732   0.23812   0.00000  Uiso   1.00
H236   H     0.80563   0.17952   0.09064   0.00000  Uiso   1.00
N237   N     0.71426   0.16668   0.25002   0.00000  Uiso   1.00
N238   N     0.95239   0.16665   0.25001   0.00000  Uiso   1.00
O239   O     0.79512   0.22775   0.25001   0.00000  Uiso   1.00
O240   O     0.87157   0.22774   0.25001   0.00000  Uiso   1.00
O241   O     0.77613   0.16666   0.32681   0.00000  Uiso   1.00
O242   O     0.85258   0.16665   0.32681   0.00000  Uiso   1.00
O243   O     0.79510   0.10559   0.25000   0.00000  Uiso   1.00
O244   O     0.87154   0.10558   0.24999   0.00000  Uiso   1.00
O245   O     0.81409   0.16668   0.17319   0.00000  Uiso   1.00
O246   O     0.89053   0.16667   0.17319   0.00000  Uiso   1.00
Zn247  Zn    0.78229   0.16667   0.25000   0.00000  Uiso   1.00
Zn248  Zn    0.88438   0.16666   0.25000   0.00000  Uiso   1.00
O249   O     0.95230   0.14236   0.08333   0.00000  Uiso   1.00
C250   C     0.96818   0.18229   0.09207   0.00000  Uiso   1.00
H251   H     0.98301   0.18205   0.12493   0.00000  Uiso   1.00
H252   H     0.94115   0.20801   0.10089   0.00000  Uiso   1.00
H253   H     0.99579   0.18883   0.05759   0.00000  Uiso   1.00
C254   C     0.74555   0.03848   0.28970   0.00000  Uiso   1.00
O255   O     0.74422   0.06290   0.32700   0.00000  Uiso   1.00
O256   O     0.70407   0.02761   0.28085   0.00000  Uiso   1.00
H257   H     0.67584   0.04152   0.30755   0.00000  Uiso   1.00
C258   C     0.76867   0.29401   0.20196   0.00000  Uiso   1.00
O259   O     0.73149   0.30995   0.20309   0.00000  Uiso   1.00
O260   O     0.78708   0.25989   0.16595   0.00000  Uiso   1.00
H261   H     0.76509   0.24982   0.14631   0.00000  Uiso   1.00
C262   C     0.96983   0.09873   0.19592   0.00000  Uiso   1.00
O263   O     0.94551   0.10398   0.16814   0.00000  Uiso   1.00
O264   O     0.98566   0.05839   0.19963   0.00000  Uiso   1.00
H265   H     0.97758   0.03699   0.17459   0.00000  Uiso   1.00
C266   C     0.73378   0.10735   0.18505   0.00000  Uiso   1.00
O267   O     0.75773   0.12084   0.14571   0.00000  Uiso   1.00
O268   O     0.73915   0.06558   0.19270   0.00000  Uiso   1.00
H269   H     0.76424   0.05013   0.16323   0.00000  Uiso   1.00
C270   C     0.69554   0.23901   0.29615   0.00000  Uiso   1.00
O271   O     0.72583   0.23949   0.31671   0.00000  Uiso   1.00
O272   O     0.67082   0.27621   0.29712   0.00000  Uiso   1.00
H273   H     0.67697   0.29864   0.32223   0.00000  Uiso   1.00
O274   O     0.93556   0.22950   0.30268   0.00000  Uiso   1.00
C275   C     0.92289   0.22577   0.35664   0.00000  Uiso   1.00
H276   H     0.90945   0.19483   0.36653   0.00000  Uiso   1.00
H277   H     0.89470   0.24933   0.37607   0.00000  Uiso   1.00
H278   H     0.95197   0.23195   0.37288   0.00000  Uiso   1.00
O279   O     0.93899   0.09899   0.40689   0.00000  Uiso   1.00
C280   C     0.96486   0.12188   0.36649   0.00000  Uiso   1.00
H281   H     0.96880   0.15451   0.38016   0.00000  Uiso   1.00
H282   H     0.94951   0.12154   0.33405   0.00000  Uiso   1.00
H283   H     0.66686   0.10753   0.35120   0.00000  Uiso   1.00
C284   C     0.96598   0.16105   0.47920   0.00000  Uiso   1.00
O285   O     0.67142   0.14452   0.46482   0.00000  Uiso   1.00
O286   O     0.95797   0.20327   0.47461   0.00000  Uiso   1.00
H287   H     0.98319   0.22120   0.48015   0.00000  Uiso   1.00
C288   C     0.73060   0.22303   0.41381   0.00000  Uiso   1.00
O289   O     0.70347   0.20403   0.39612   0.00000  Uiso   1.00
O290   O     0.72993   0.26661   0.41750   0.00000  Uiso   1.00
H291   H     0.70446   0.27942   0.40548   0.00000  Uiso   1.00
O292   O     0.74191   0.16532   0.06320   0.00000  Uiso   1.00
C293   C     0.73108   0.12339   0.05415   0.00000  Uiso   1.00
H294   H     0.76168   0.10190   0.04851   0.00000  Uiso   1.00
H295   H     0.71759   0.11863   0.02025   0.00000  Uiso   1.00
H296   H     0.70359   0.11466   0.08844   0.00000  Uiso   1.00
O297   O     0.71510   0.23685   0.01796   0.00000  Uiso   1.00
C298   C     0.72668   0.25809   0.05968   0.00000  Uiso   1.00
H299   H     0.76407   0.26475   0.04974   0.00000  Uiso   1.00
H300   H     0.71609   0.24033   0.09449   0.00000  Uiso   1.00
H301   H     0.70690   0.28847   0.06971   0.00000  Uiso   1.00
C302   C     0.85620   0.08765   0.37407   0.00000  Uiso   1.00
O303   O     0.89017   0.06940   0.34334   0.00000  Uiso   1.00
O304   O     0.81236   0.07296   0.37831   0.00000  Uiso   1.00
H305   H     0.81388   0.04512   0.35768   0.00000  Uiso   1.00
C306   C     0.92539   0.29151   0.21822   0.00000  Uiso   1.00
O307   O     0.95367   0.30553   0.23844   0.00000  Uiso   1.00
O308   O     0.93866   0.25879   0.17930   0.00000  Uiso   1.00
H309   H     0.97205   0.24897   0.17267   0.00000  Uiso   1.00
C310   C     0.16802   0.57928   0.24454   0.00000  Uiso   1.00
C311   C     0.14518   0.49269   0.48976   0.00000  Uiso   1.00
C312   C     0.15576   0.48366   0.43561   0.00000  Uiso   1.00
C313   C     0.17879   0.48501   0.01493   0.00000  Uiso   1.00
C314   C     0.22331   0.46973   0.48505   0.00000  Uiso   1.00
C315   C     0.23121   0.45445   0.43272   0.00000  Uiso   1.00
C316   C     0.19422   0.45596   0.41095   0.00000  Uiso   1.00
C317   C     0.17115   0.49754   0.06766   0.00000  Uiso   1.00
C318   C     0.25008   0.47896   0.06141   0.00000  Uiso   1.00
C319   C     0.12780   0.50310   0.40880   0.00000  Uiso   1.00
C320   C     0.21145   0.64456   0.23274   0.00000  Uiso   1.00
C321   C     0.14151   0.50007   0.35115   0.00000  Uiso   1.00
C322   C     0.20805   0.35393   0.24053   0.00000  Uiso   1.00
C323   C     0.16567   0.37531   0.25183   0.00000  Uiso   1.00
C324   C     0.12469   0.35374   0.25536   0.00000  Uiso   1.00
C325   C     0.13002   0.64521   0.23516   0.00000  Uiso   1.00
C326   C     0.17073   0.62309   0.23482   0.00000  Uiso   1.00
C327   C     0.31758   0.46807   0.22395   0.00000  Uiso   1.00
C328   C     0.03214   0.46883   0.22303   0.00000  Uiso   1.00
C329   C     0.01543   0.53270   0.27439   0.00000  Uiso   1.00
C330   C     0.30066   0.53106   0.27681   0.00000  Uiso   1.00
C331   C     0.16613   0.42019   0.25213   0.00000  Uiso   1.00
C332   C     0.19188   0.49831   0.14898   0.00000  Uiso   1.00
C333   C     0.25971   0.47237   0.00737   0.00000  Uiso   1.00
C334   C     0.20511   0.49147   0.09198   0.00000  Uiso   1.00
C335   C     0.09291   0.53319   0.43760   0.00000  Uiso   1.00
C336   C     0.08223   0.53980   0.49152   0.00000  Uiso   1.00
C337   C     0.10189   0.51192   0.01674   0.00000  Uiso   1.00
H338   H     0.23889   0.37065   0.23812   0.00000  Uiso   1.00
H339   H     0.13896   0.51286   0.09064   0.00000  Uiso   1.00
N340   N     0.04760   0.50001   0.25002   0.00000  Uiso   1.00
N341   N     0.28573   0.49998   0.25001   0.00000  Uiso   1.00
O342   O     0.12846   0.56108   0.25001   0.00000  Uiso   1.00
O343   O     0.20490   0.56107   0.25001   0.00000  Uiso   1.00
O344   O     0.10947   0.50000   0.32681   0.00000  Uiso   1.00
O345   O     0.18591   0.49999   0.32681   0.00000  Uiso   1.00
O346   O     0.12843   0.43893   0.25000   0.00000  Uiso   1.00
O347   O     0.20488   0.43892   0.24999   0.00000  Uiso   1.00
O348   O     0.14742   0.50001   0.17319   0.00000  Uiso   1.00
O349   O     0.22387   0.50000   0.17319   0.00000  Uiso   1.00
Zn350  Zn    0.11562   0.50001   0.25000   0.00000  Uiso   1.00
Zn351  Zn    0.21771   0.49999   0.25000   0.00000  Uiso   1.00
O352   O     0.28563   0.47569   0.08333   0.00000  Uiso   1.00
C353   C     0.30151   0.51562   0.09207   0.00000  Uiso   1.00
H354   H     0.31634   0.51538   0.12493   0.00000  Uiso   1.00
H355   H     0.27449   0.54134   0.10089   0.00000  Uiso   1.00
H356   H     0.32913   0.52216   0.05759   0.00000  Uiso   1.00
C357   C     0.07888   0.37182   0.28970   0.00000  Uiso   1.00
O358   O     0.07755   0.39623   0.32700   0.00000  Uiso   1.00
O359   O     0.03740   0.36095   0.28085   0.00000  Uiso   1.00
H360   H     0.00917   0.37485   0.30755   0.00000  Uiso   1.00
C361   C     0.10201   0.62734   0.20196   0.00000  Uiso   1.00
O362   O     0.06482   0.64329   0.20309   0.00000  Uiso   1.00
O363   O     0.12042   0.59322   0.16595   0.00000  Uiso   1.00
H364   H     0.09843   0.58315   0.14631   0.00000  Uiso   1.00
C365   C     0.30316   0.43206   0.19592   0.00000  Uiso   1.00
O366   O     0.27885   0.43732   0.16814   0.00000  Uiso   1.00
O367   O     0.31900   0.39173   0.19963   0.00000  Uiso   1.00
H368   H     0.31092   0.37032   0.17459   0.00000  Uiso   1.00
C369   C     0.06712   0.44068   0.18505   0.00000  Uiso   1.00
O370   O     0.09106   0.45417   0.14571   0.00000  Uiso   1.00
O371   O     0.07248   0.39891   0.19270   0.00000  Uiso   1.00
H372   H     0.09758   0.38346   0.16323   0.00000  Uiso   1.00
C373   C     0.02887   0.57234   0.29615   0.00000  Uiso   1.00
O374   O     0.05917   0.57282   0.31671   0.00000  Uiso   1.00
O375   O     0.00415   0.60955   0.29712   0.00000  Uiso   1.00
H376   H     0.01030   0.63198   0.32223   0.00000  Uiso   1.00
O377   O     0.26890   0.56284   0.30268   0.00000  Uiso   1.00
C378   C     0.25622   0.55910   0.35664   0.00000  Uiso   1.00
H379   H     0.24279   0.52816   0.36653   0.00000  Uiso   1.00
H380   H     0.22804   0.58267   0.37607   0.00000  Uiso   1.00
H381   H     0.28530   0.56528   0.37288   0.00000  Uiso   1.00
O382   O     0.27232   0.43232   0.40689   0.00000  Uiso   1.00
C383   C     0.29819   0.45521   0.36649   0.00000  Uiso   1.00
H384   H     0.30214   0.48784   0.38016   0.00000  Uiso   1.00
H385   H     0.28284   0.45487   0.33405   0.00000  Uiso   1.00
H386   H     0.00019   0.44086   0.35120   0.00000  Uiso   1.00
C387   C     0.29932   0.49439   0.47920   0.00000  Uiso   1.00
O388   O     0.00476   0.47786   0.46482   0.00000  Uiso   1.00
O389   O     0.29130   0.53660   0.47461   0.00000  Uiso   1.00
H390   H     0.31653   0.55453   0.48015   0.00000  Uiso   1.00
C391   C     0.06393   0.55636   0.41381   0.00000  Uiso   1.00
O392   O     0.03681   0.53736   0.39612   0.00000  Uiso   1.00
O393   O     0.06326   0.59994   0.41750   0.00000  Uiso   1.00
H394   H     0.03779   0.61275   0.40548   0.00000  Uiso   1.00
O395   O     0.07524   0.49866   0.06320   0.00000  Uiso   1.00
C396   C     0.06441   0.45672   0.05415   0.00000  Uiso   1.00
H397   H     0.09501   0.43523   0.04851   0.00000  Uiso   1.00
H398   H     0.05093   0.45196   0.02025   0.00000  Uiso   1.00
H399   H     0.03692   0.44800   0.08844   0.00000  Uiso   1.00
O400   O     0.04844   0.57018   0.01796   0.00000  Uiso   1.00
C401   C     0.06002   0.59142   0.05968   0.00000  Uiso   1.00
H402   H     0.09740   0.59808   0.04974   0.00000  Uiso   1.00
H403   H     0.04942   0.57366   0.09449   0.00000  Uiso   1.00
H404   H     0.04023   0.62180   0.06971   0.00000  Uiso   1.00
C405   C     0.18953   0.42099   0.37407   0.00000  Uiso   1.00
O406   O     0.22351   0.40273   0.34334   0.00000  Uiso   1.00
O407   O     0.14570   0.40630   0.37831   0.00000  Uiso   1.00
H408   H     0.14722   0.37845   0.35768   0.00000  Uiso   1.00
C409   C     0.25873   0.62484   0.21822   0.00000  Uiso   1.00
O410   O     0.28701   0.63887   0.23844   0.00000  Uiso   1.00
O411   O     0.27199   0.59213   0.17930   0.00000  Uiso   1.00
H412   H     0.30539   0.58230   0.17267   0.00000  Uiso   1.00
C413   C     0.50135   0.57928   0.24454   0.00000  Uiso   1.00
C414   C     0.47851   0.49269   0.48976   0.00000  Uiso   1.00
C415   C     0.48909   0.48366   0.43561   0.00000  Uiso   1.00
C416   C     0.51212   0.48501   0.01493   0.00000  Uiso   1.00
C417   C     0.55664   0.46973   0.48505   0.00000  Uiso   1.00
C418   C     0.56455   0.45445   0.43272   0.00000  Uiso   1.00
C419   C     0.52755   0.45596   0.41095   0.00000  Uiso   1.00
C420   C     0.50448   0.49754   0.06766   0.00000  Uiso   1.00
C421   C     0.58341   0.47896   0.06141   0.00000  Uiso   1.00
C422   C     0.46114   0.50310   0.40880   0.00000  Uiso   1.00
C423   C     0.54478   0.64456   0.23274   0.00000  Uiso   1.00
C424   C     0.47484   0.50007   0.35115   0.00000  Uiso   1.00
C425   C     0.54139   0.35393   0.24053   0.00000  Uiso   1.00
C426   C     0.49900   0.37531   0.25183   0.00000  Uiso   1.00
C427   C     0.45803   0.35374   0.25536   0.00000  Uiso   1.00
C428   C     0.46335   0.64521   0.23516   0.00000  Uiso   1.00
C429   C     0.50406   0.62309   0.23482   0.00000  Uiso   1.00
C430   C     0.65092   0.46807   0.22395   0.00000  Uiso   1.00
C431   C     0.36547   0.46883   0.22303   0.00000  Uiso   1.00
C432   C     0.34876   0.53270   0.27439   0.00000  Uiso   1.00
C433   C     0.63399   0.53106   0.27681   0.00000  Uiso   1.00
C434   C     0.49947   0.42019   0.25213   0.00000  Uiso   1.00
C435   C     0.52521   0.49831   0.14898   0.00000  Uiso   1.00
C436   C     0.59304   0.47237   0.00737   0.00000  Uiso   1.00
C437   C     0.53844   0.49147   0.09198   0.00000  Uiso   1.00
C438   C     0.42624   0.53319   0.43760   0.00000  Uiso   1.00
C439   C     0.41556   0.53980   0.49152   0.00000  Uiso   1.00
C440   C     0.43523   0.51192   0.01674   0.00000  Uiso   1.00
H441   H     0.57223   0.37065   0.23812   0.00000  Uiso   1.00
H442   H     0.47229   0.51286   0.09064   0.00000  Uiso   1.00
N443   N     0.38093   0.50001   0.25002   0.00000  Uiso   1.00
N444   N     0.61906   0.49998   0.25001   0.00000  Uiso   1.00
O445   O     0.46179   0.56108   0.25001   0.00000  Uiso   1.00
O446   O     0.53823   0.56107   0.25001   0.00000  Uiso   1.00
O447   O     0.44280   0.50000   0.32681   0.00000  Uiso   1.00
O448   O     0.51924   0.49999   0.32681   0.00000  Uiso   1.00
O449   O     0.46177   0.43893   0.25000   0.00000  Uiso   1.00
O450   O     0.53821   0.43892   0.24999   0.00000  Uiso   1.00
O451   O     0.48076   0.50001   0.17319   0.00000  Uiso   1.00
O452   O     0.55720   0.50000   0.17319   0.00000  Uiso   1.00
Zn453  Zn    0.44896   0.50001   0.25000   0.00000  Uiso   1.00
Zn454  Zn    0.55104   0.49999   0.25000   0.00000  Uiso   1.00
O455   O     0.61897   0.47569   0.08333   0.00000  Uiso   1.00
C456   C     0.63485   0.51562   0.09207   0.00000  Uiso   1.00
H457   H     0.64967   0.51538   0.12493   0.00000  Uiso   1.00
H458   H     0.60782   0.54134   0.10089   0.00000  Uiso   1.00
H459   H     0.66246   0.52216   0.05759   0.00000  Uiso   1.00
C460   C     0.41221   0.37182   0.28970   0.00000  Uiso   1.00
O461   O     0.41089   0.39623   0.32700   0.00000  Uiso   1.00
O462   O     0.37073   0.36095   0.28085   0.00000  Uiso   1.00
H463   H     0.34250   0.37485   0.30755   0.00000  Uiso   1.00
C464   C     0.43534   0.62734   0.20196   0.00000  Uiso   1.00
O465   O     0.39816   0.64329   0.20309   0.00000  Uiso   1.00
O466   O     0.45375   0.59322   0.16595   0.00000  Uiso   1.00
H467   H     0.43176   0.58315   0.14631   0.00000  Uiso   1.00
C468   C     0.63649   0.43206   0.19592   0.00000  Uiso   1.00
O469   O     0.61218   0.43732   0.16814   0.00000  Uiso   1.00
O470   O     0.65233   0.39173   0.19963   0.00000  Uiso   1.00
H471   H     0.64425   0.37032   0.17459   0.00000  Uiso   1.00
C472   C     0.40045   0.44068   0.18505   0.00000  Uiso   1.00
O473   O     0.42439   0.45417   0.14571   0.00000  Uiso   1.00
O474   O     0.40581   0.39891   0.19270   0.00000  Uiso   1.00
H475   H     0.43091   0.38346   0.16323   0.00000  Uiso   1.00
C476   C     0.36220   0.57234   0.29615   0.00000  Uiso   1.00
O477   O     0.39250   0.57282   0.31671   0.00000  Uiso   1.00
O478   O     0.33749   0.60955   0.29712   0.00000  Uiso   1.00
H479   H     0.34364   0.63198   0.32223   0.00000  Uiso   1.00
O480   O     0.60223   0.56284   0.30268   0.00000  Uiso   1.00
C481   C     0.58956   0.55910   0.35664   0.00000  Uiso   1.00
H482   H     0.57612   0.52816   0.36653   0.00000  Uiso   1.00
H483   H     0.56137   0.58267   0.37607   0.00000  Uiso   1.00
H484   H     0.61864   0.56528   0.37288   0.00000  Uiso   1.00
O485   O     0.60565   0.43232   0.40689   0.00000  Uiso   1.00
C486   C     0.63153   0.45521   0.36649   0.00000  Uiso   1.00
H487   H     0.63547   0.48784   0.38016   0.00000  Uiso   1.00
H488   H     0.61617   0.45487   0.33405   0.00000  Uiso   1.00
H489   H     0.33352   0.44086   0.35120   0.00000  Uiso   1.00
C490   C     0.63265   0.49439   0.47920   0.00000  Uiso   1.00
O491   O     0.33809   0.47786   0.46482   0.00000  Uiso   1.00
O492   O     0.62463   0.53660   0.47461   0.00000  Uiso   1.00
H493   H     0.64986   0.55453   0.48015   0.00000  Uiso   1.00
C494   C     0.39727   0.55636   0.41381   0.00000  Uiso   1.00
O495   O     0.37014   0.53736   0.39612   0.00000  Uiso   1.00
O496   O     0.39660   0.59994   0.41750   0.00000  Uiso   1.00
H497   H     0.37112   0.61275   0.40548   0.00000  Uiso   1.00
O498   O     0.40857   0.49866   0.06320   0.00000  Uiso   1.00
C499   C     0.39774   0.45672   0.05415   0.00000  Uiso   1.00
H500   H     0.42834   0.43523   0.04851   0.00000  Uiso   1.00
H501   H     0.38426   0.45196   0.02025   0.00000  Uiso   1.00
H502   H     0.37026   0.44800   0.08844   0.00000  Uiso   1.00
O503   O     0.38177   0.57018   0.01796   0.00000  Uiso   1.00
C504   C     0.39335   0.59142   0.05968   0.00000  Uiso   1.00
H505   H     0.43073   0.59808   0.04974   0.00000  Uiso   1.00
H506   H     0.38276   0.57366   0.09449   0.00000  Uiso   1.00
H507   H     0.37357   0.62180   0.06971   0.00000  Uiso   1.00
C508   C     0.52287   0.42099   0.37407   0.00000  Uiso   1.00
O509   O     0.55684   0.40273   0.34334   0.00000  Uiso   1.00
O510   O     0.47903   0.40630   0.37831   0.00000  Uiso   1.00
H511   H     0.48055   0.37845   0.35768   0.00000  Uiso   1.00
C512   C     0.59206   0.62484   0.21822   0.00000  Uiso   1.00
O513   O     0.62034   0.63887   0.23844   0.00000  Uiso   1.00
O514   O     0.60533   0.59213   0.17930   0.00000  Uiso   1.00
H515   H     0.63872   0.58230   0.17267   0.00000  Uiso   1.00
C516   C     0.83468   0.57928   0.24454   0.00000  Uiso   1.00
C517   C     0.81185   0.49269   0.48976   0.00000  Uiso   1.00
C518   C     0.82242   0.48366   0.43561   0.00000  Uiso   1.00
C519   C     0.84545   0.48501   0.01493   0.00000  Uiso   1.00
C520   C     0.88998   0.46973   0.48505   0.00000  Uiso   1.00
C521   C     0.89788   0.45445   0.43272   0.00000  Uiso   1.00
C522   C     0.86088   0.45596   0.41095   0.00000  Uiso   1.00
C523   C     0.83782   0.49754   0.06766   0.00000  Uiso   1.00
C524   C     0.91674   0.47896   0.06141   0.00000  Uiso   1.00
C525   C     0.79447   0.50310   0.40880   0.00000  Uiso   1.00
C526   C     0.87811   0.64456   0.23274   0.00000  Uiso   1.00
C527   C     0.80818   0.50007   0.35115   0.00000  Uiso   1.00
C528   C     0.87472   0.35393   0.24053   0.00000  Uiso   1.00
C529   C     0.83233   0.37531   0.25183   0.00000  Uiso   1.00
C530   C     0.79136   0.35374   0.25536   0.00000  Uiso   1.00
C531   C     0.79669   0.64521   0.23516   0.00000  Uiso   1.00
C532   C     0.83739   0.62309   0.23482   0.00000  Uiso   1.00
C533   C     0.98425   0.46807   0.22395   0.00000  Uiso   1.00
C534   C     0.69881   0.46883   0.22303   0.00000  Uiso   1.00
C535   C     0.68210   0.53270   0.27439   0.00000  Uiso   1.00
C536   C     0.96733   0.53106   0.27681   0.00000  Uiso   1.00
C537   C     0.83280   0.42019   0.25213   0.00000  Uiso   1.00
C538   C     0.85855   0.49831   0.14898   0.00000  Uiso   1.00
C539   C     0.92638   0.47237   0.00737   0.00000  Uiso   1.00
C540   C     0.87177   0.49147   0.09198   0.00000  Uiso   1.00
C541   C     0.75958   0.53319   0.43760   0.00000  Uiso   1.00
C542   C     0.74889   0.53980   0.49152   0.00000  Uiso   1.00
C543   C     0.76856   0.51192   0.01674   0.00000  Uiso   1.00
H544   H     0.90556   0.37065   0.23812   0.00000  Uiso   1.00
H545   H     0.80563   0.51286   0.09064   0.00000  Uiso   1.00
N546   N     0.71426   0.50001   0.25002   0.00000  Uiso   1.00
N547   N     0.95239   0.49998   0.25001   0.00000  Uiso   1.00
O548   O     0.79512   0.56108   0.25001   0.00000  Uiso   1.00
O549   O     0.87157   0.56107   0.25001   0.00000  Uiso   1.00
O550   O     0.77613   0.50000   0.32681   0.00000  Uiso   1.00
O551   O     0.85258   0.49999   0.32681   0.00000  Uiso   1.00
O552   O     0.79510   0.43893   0.25000   0.00000  Uiso   1.00
O553   O     0.87154   0.43892   0.24999   0.00000  Uiso   1.00
O554   O     0.81409   0.50001   0.17319   0.00000  Uiso   1.00
O555   O     0.89053   0.50000   0.17319   0.00000  Uiso   1.00
Zn556  Zn    0.78229   0.50001   0.25000   0.00000  Uiso   1.00
Zn557  Zn    0.88438   0.49999   0.25000   0.00000  Uiso   1.00
O558   O     0.95230   0.47569   0.08333   0.00000  Uiso   1.00
C559   C     0.96818   0.51562   0.09207   0.00000  Uiso   1.00
H560   H     0.98301   0.51538   0.12493   0.00000  Uiso   1.00
H561   H     0.94115   0.54134   0.10089   0.00000  Uiso   1.00
H562   H     0.99579   0.52216   0.05759   0.00000  Uiso   1.00
C563   C     0.74555   0.37182   0.28970   0.00000  Uiso   1.00
O564   O     0.74422   0.39623   0.32700   0.00000  Uiso   1.00
O565   O     0.70407   0.36095   0.28085   0.00000  Uiso   1.00
H566   H     0.67584   0.37485   0.30755   0.00000  Uiso   1.00
C567   C     0.76867   0.62734   0.20196   0.00000  Uiso   1.00
O568   O     0.73149   0.64329   0.20309   0.00000  Uiso   1.00
O569   O     0.78708   0.59322   0.16595   0.00000  Uiso   1.00
H570   H     0.76509   0.58315   0.14631   0.00000  Uiso   1.00
C571   C     0.96983   0.43206   0.19592   0.00000  Uiso   1.00
O572   O     0.94551   0.43732   0.16814   0.00000  Uiso   1.00
O573   O     0.98566   0.39173   0.19963   0.00000  Uiso   1.00
H574   H     0.97758   0.37032   0.17459   0.00000  Uiso   1.00
C575   C     0.73378   0.44068   0.18505   0.00000  Uiso   1.00
O576   O     0.75773   0.45417   0.14571   0.00000  Uiso   1.00
O577   O     0.73915   0.39891   0.19270   0.00000  Uiso   1.00
H578   H     0.76424   0.38346   0.16323   0.00000  Uiso   1.00
C579   C     0.69554   0.57234   0.29615   0.00000  Uiso   1.00
O580   O     0.72583   0.57282   0.31671   0.00000  Uiso   1.00
O581   O     0.67082   0.60955   0.29712   0.00000  Uiso   1.00
H582   H     0.67697   0.63198   0.32223   0.00000  Uiso   1.00
O583   O     0.93556   0.56284   0.30268   0.00000  Uiso   1.00
C584   C     0.92289   0.55910   0.35664   0.00000  Uiso   1.00
H585   H     0.90945   0.52816   0.36653   0.00000  Uiso   1.00
H586   H     0.89470   0.58267   0.37607   0.00000  Uiso   1.00
H587   H     0.95197   0.56528   0.37288   0.00000  Uiso   1.00
O588   O     0.93899   0.43232   0.40689   0.00000  Uiso   1.00
C589   C     0.96486   0.45521   0.36649   0.00000  Uiso   1.00
H590   H     0.96880   0.48784   0.38016   0.00000  Uiso   1.00
H591   H     0.94951   0.45487   0.33405   0.00000  Uiso   1.00
H592   H     0.66686   0.44086   0.35120   0.00000  Uiso   1.00
C593   C     0.96598   0.49439   0.47920   0.00000  Uiso   1.00
O594   O     0.67142   0.47786   0.46482   0.00000  Uiso   1.00
O595   O     0.95797   0.53660   0.47461   0.00000  Uiso   1.00
H596   H     0.98319   0.55453   0.48015   0.00000  Uiso   1.00
C597   C     0.73060   0.55636   0.41381   0.00000  Uiso   1.00
O598   O     0.70347   0.53736   0.39612   0.00000  Uiso   1.00
O599   O     0.72993   0.59994   0.41750   0.00000  Uiso   1.00
H600   H     0.70446   0.61275   0.40548   0.00000  Uiso   1.00
O601   O     0.74191   0.49866   0.06320   0.00000  Uiso   1.00
C602   C     0.73108   0.45672   0.05415   0.00000  Uiso   1.00
H603   H     0.76168   0.43523   0.04851   0.00000  Uiso   1.00
H604   H     0.71759   0.45196   0.02025   0.00000  Uiso   1.00
H605   H     0.70359   0.44800   0.08844   0.00000  Uiso   1.00
O606   O     0.71510   0.57018   0.01796   0.00000  Uiso   1.00
C607   C     0.72668   0.59142   0.05968   0.00000  Uiso   1.00
H608   H     0.76407   0.59808   0.04974   0.00000  Uiso   1.00
H609   H     0.71609   0.57366   0.09449   0.00000  Uiso   1.00
H610   H     0.70690   0.62180   0.06971   0.00000  Uiso   1.00
C611   C     0.85620   0.42099   0.37407   0.00000  Uiso   1.00
O612   O     0.89017   0.40273   0.34334   0.00000  Uiso   1.00
O613   O     0.81236   0.40630   0.37831   0.00000  Uiso   1.00
H614   H     0.81388   0.37845   0.35768   0.00000  Uiso   1.00
C615   C     0.92539   0.62484   0.21822   0.00000  Uiso   1.00
O616   O     0.95367   0.63887   0.23844   0.00000  Uiso   1.00
O617   O     0.93866   0.59213   0.17930   0.00000  Uiso   1.00
H618   H     0.97205   0.58230   0.17267   0.00000  Uiso   1.00
C619   C     0.16802   0.91261   0.24454   0.00000  Uiso   1.00
C620   C     0.14518   0.82602   0.48976   0.00000  Uiso   1.00
C621   C     0.15576   0.81699   0.43561   0.00000  Uiso   1.00
C622   C     0.17879   0.81834   0.01493   0.00000  Uiso   1.00
C623   C     0.22331   0.80307   0.48505   0.00000  Uiso   1.00
C624   C     0.23121   0.78778   0.43272   0.00000  Uiso   1.00
C625   C     0.19422   0.78929   0.41095   0.00000  Uiso   1.00
C626   C     0.17115   0.83087   0.06766   0.00000  Uiso   1.00
C627   C     0.25008   0.81230   0.06141   0.00000  Uiso   1.00
C628   C     0.12780   0.83644   0.40880   0.00000  Uiso   1.00
C629   C     0.21145   0.97789   0.23274   0.00000  Uiso   1.00
C630   C     0.14151   0.83341   0.35115   0.00000  Uiso   1.00
C631   C     0.20805   0.68726   0.24053   0.00000  Uiso   1.00
C632   C     0.16567   0.70865   0.25183   0.00000  Uiso   1.00
C633   C     0.12469   0.68708   0.25536   0.00000  Uiso   1.00
C634   C     0.13002   0.97854   0.23516   0.00000  Uiso   1.00
C635   C     0.17073   0.95643   0.23482   0.00000  Uiso   1.00
C636   C     0.31758   0.80141   0.22395   0.00000  Uiso   1.00
C637   C     0.03214   0.80217   0.22303   0.00000  Uiso   1.00
C638   C     0.01543   0.86603   0.27439   0.00000  Uiso   1.00
C639   C     0.30066   0.86439   0.27681   0.00000  Uiso   1.00
C640   C     0.16613   0.75352   0.25213   0.00000  Uiso   1.00
C641   C     0.19188   0.83164   0.14898   0.00000  Uiso   1.00
C642   C     0.25971   0.80570   0.00737   0.00000  Uiso   1.00
C643   C     0.20511   0.82480   0.09198   0.00000  Uiso   1.00
C644   C     0.09291   0.86653   0.43760   0.00000  Uiso   1.00
C645   C     0.08223   0.87314   0.49152   0.00000  Uiso   1.00
C646   C     0.10189   0.84525   0.01674   0.00000  Uiso   1.00
H647   H     0.23889   0.70398   0.23812   0.00000  Uiso   1.00
H648   H     0.13896   0.84619   0.09064   0.00000  Uiso   1.00
N649   N     0.04760   0.83334   0.25002   0.00000  Uiso   1.00
N650   N     0.28573   0.83331   0.25001   0.00000  Uiso   1.00
O651   O     0.12846   0.89442   0.25001   0.00000  Uiso   1.00
O652   O     0.20490   0.89441   0.25001   0.00000  Uiso   1.00
O653   O     0.10947   0.83333   0.32681   0.00000  Uiso   1.00
O654   O     0.18591   0.83332   0.32681   0.00000  Uiso   1.00
O655   O     0.12843   0.77226   0.25000   0.00000  Uiso   1.00
O656   O     0.20488   0.77225   0.24999   0.00000  Uiso   1.00
O657   O     0.14742   0.83335   0.17319   0.00000  Uiso   1.00
O658   O     0.22387   0.83334   0.17319   0.00000  Uiso   1.00
Zn659  Zn    0.11562   0.83334   0.25000   0.00000  Uiso   1.00
Zn660  Zn    0.21771   0.83333   0.25000   0.00000  Uiso   1.00
O661   O     0.28563   0.80903   0.08333   0.00000  Uiso   1.00
C662   C     0.30151   0.84896   0.09207   0.00000  Uiso   1.00
H663   H     0.31634   0.84871   0.12493   0.00000  Uiso   1.00
H664   H     0.27449   0.87468   0.10089   0.00000  Uiso   1.00
H665   H     0.32913   0.85550   0.05759   0.00000  Uiso   1.00
C666   C     0.07888   0.70515   0.28970   0.00000  Uiso   1.00
O667   O     0.07755   0.72957   0.32700   0.00000  Uiso   1.00
O668   O     0.03740   0.69428   0.28085   0.00000  Uiso   1.00
H669   H     0.00917   0.70819   0.30755   0.00000  Uiso   1.00
C670   C     0.10201   0.96067   0.20196   0.00000  Uiso   1.00
O671   O     0.06482   0.97662   0.20309   0.00000  Uiso   1.00
O672   O     0.12042   0.92655   0.16595   0.00000  Uiso   1.00
H673   H     0.09843   0.91648   0.14631   0.00000  Uiso   1.00
C674   C     0.30316   0.76539   0.19592   0.00000  Uiso   1.00
O675   O     0.27885   0.77065   0.16814   0.00000  Uiso   1.00
O676   O     0.31900   0.72506   0.19963   0.00000  Uiso   1.00
H677   H     0.31092   0.70366   0.17459   0.00000  Uiso   1.00
C678   C     0.06712   0.77401   0.18505   0.00000  Uiso   1.00
O679   O     0.09106   0.78751   0.14571   0.00000  Uiso   1.00
O680   O     0.07248   0.73225   0.19270   0.00000  Uiso   1.00
H681   H     0.09758   0.71680   0.16323   0.00000  Uiso   1.00
C682   C     0.02887   0.90568   0.29615   0.00000  Uiso   1.00
O683   O     0.05917   0.90616   0.31671   0.00000  Uiso   1.00
O684   O     0.00415   0.94288   0.29712   0.00000  Uiso   1.00
H685   H     0.01030   0.96531   0.32223   0.00000  Uiso   1.00
O686   O     0.26890   0.89617   0.30268   0.00000  Uiso   1.00
C687   C     0.25622   0.89244   0.35664   0.00000  Uiso   1.00
H688   H     0.24279   0.86150   0.36653   0.00000  Uiso   1.00
H689   H     0.22804   0.91600   0.37607   0.00000  Uiso   1.00
H690   H     0.28530   0.89861   0.37288   0.00000  Uiso   1.00
O691   O     0.27232   0.76565   0.40689   0.00000  Uiso   1.00
C692   C     0.29819   0.78854   0.36649   0.00000  Uiso   1.00
H693   H     0.30214   0.82118   0.38016   0.00000  Uiso   1.00
H694   H     0.28284   0.78820   0.33405   0.00000  Uiso   1.00
H695   H     0.00019   0.77419   0.35120   0.00000  Uiso   1.00
C696   C     0.29932   0.82772   0.47920   0.00000  Uiso   1.00
O697   O     0.00476   0.81119   0.46482   0.00000  Uiso   1.00
O698   O     0.29130   0.86994   0.47461   0.00000  Uiso   1.00
H699   H     0.31653   0.88787   0.48015   0.00000  Uiso   1.00
C700   C     0.06393   0.88969   0.41381   0.00000  Uiso   1.00
O701   O     0.03681   0.87069   0.39612   0.00000  Uiso   1.00
O702   O     0.06326   0.93327   0.41750   0.00000  Uiso   1.00
H703   H     0.03779   0.94609   0.40548   0.00000  Uiso   1.00
O704   O     0.07524   0.83199   0.06320   0.00000  Uiso   1.00
C705   C     0.06441   0.79005   0.05415   0.00000  Uiso   1.00
H706   H     0.09501   0.76856   0.04851   0.00000  Uiso   1.00
H707   H     0.05093   0.78529   0.02025   0.00000  Uiso   1.00
H708   H     0.03692   0.78133   0.08844   0.00000  Uiso   1.00
O709   O     0.04844   0.90352   0.01796   0.00000  Uiso   1.00
C710   C     0.06002   0.92475   0.05968   0.00000  Uiso   1.00
H711   H     0.09740   0.93142   0.04974   0.00000  Uiso   1.00
H712   H     0.04942   0.90699   0.09449   0.00000  Uiso   1.00
H713   H     0.04023   0.95513   0.06971   0.00000  Uiso   1.00
C714   C     0.18953   0.75432   0.37407   0.00000  Uiso   1.00
O715   O     0.22351   0.73606   0.34334   0.00000  Uiso   1.00
O716   O     0.14570   0.73963   0.37831   0.00000  Uiso   1.00
H717   H     0.14722   0.71178   0.35768   0.00000  Uiso   1.00
C718   C     0.25873   0.95817   0.21822   0.00000  Uiso   1.00
O719   O     0.28701   0.97220   0.23844   0.00000  Uiso   1.00
O720   O     0.27199   0.92546   0.17930   0.00000  Uiso   1.00
H721   H     0.30539   0.91563   0.17267   0.00000  Uiso   1.00
C722   C     0.50135   0.91261   0.24454   0.00000  Uiso   1.00
C723   C     0.47851   0.82602   0.48976   0.00000  Uiso   1.00
C724   C     0.48909   0.81699   0.43561   0.00000  Uiso   1.00
C725   C     0.51212   0.81834   0.01493   0.00000  Uiso   1.00
C726   C     0.55664   0.80307   0.48505   0.00000  Uiso   1.00
C727   C     0.56455   0.78778   0.43272   0.00000  Uiso   1.00
C728   C     0.52755   0.78929   0.41095   0.00000  Uiso   1.00
C729   C     0.50448   0.83087   0.06766   0.00000  Uiso   1.00
C730   C     0.58341   0.81230   0.06141   0.00000  Uiso   1.00
C731   C     0.46114   0.83644   0.40880   0.00000  Uiso   1.00
C732   C     0.54478   0.97789   0.23274   0.00000  Uiso   1.00
C733   C     0.47484   0.83341   0.35115   0.00000  Uiso   1.00
C734   C     0.54139   0.68726   0.24053   0.00000  Uiso   1.00
C735   C     0.49900   0.70865   0.25183   0.00000  Uiso   1.00
C736   C     0.45803   0.68708   0.25536   0.00000  Uiso   1.00
C737   C     0.46335   0.97854   0.23516   0.00000  Uiso   1.00
C738   C     0.50406   0.95643   0.23482   0.00000  Uiso   1.00
C739   C     0.65092   0.80141   0.22395   0.00000  Uiso   1.00
C740   C     0.36547   0.80217   0.22303   0.00000  Uiso   1.00
C741   C     0.34876   0.86603   0.27439   0.00000  Uiso   1.00
C742   C     0.63399   0.86439   0.27681   0.00000  Uiso   1.00
C743   C     0.49947   0.75352   0.25213   0.00000  Uiso   1.00
C744   C     0.52521   0.83164   0.14898   0.00000  Uiso   1.00
C745   C     0.59304   0.80570   0.00737   0.00000  Uiso   1.00
C746   C     0.53844   0.82480   0.09198   0.00000  Uiso   1.00
C747   C     0.42624   0.86653   0.43760   0.00000  Uiso   1.00
C748   C     0.41556   0.87314   0.49152   0.00000  Uiso   1.00
C749   C     0.43523   0.84525   0.01674   0.00000  Uiso   1.00
H750   H     0.57223   0.70398   0.23812   0.00000  Uiso   1.00
H751   H     0.47229   0.84619   0.09064   0.00000  Uiso   1.00
N752   N     0.38093   0.83334   0.25002   0.00000  Uiso   1.00
N753   N     0.61906   0.83331   0.25001   0.00000  Uiso   1.00
O754   O     0.46179   0.89442   0.25001   0.00000  Uiso   1.00
O755   O     0.53823   0.89441   0.25001   0.00000  Uiso   1.00
O756   O     0.44280   0.83333   0.32681   0.00000  Uiso   1.00
O757   O     0.51924   0.83332   0.32681   0.00000  Uiso   1.00
O758   O     0.46177   0.77226   0.25000   0.00000  Uiso   1.00
O759   O     0.53821   0.77225   0.24999   0.00000  Uiso   1.00
O760   O     0.48076   0.83335   0.17319   0.00000  Uiso   1.00
O761   O     0.55720   0.83334   0.17319   0.00000  Uiso   1.00
Zn762  Zn    0.44896   0.83334   0.25000   0.00000  Uiso   1.00
Zn763  Zn    0.55104   0.83333   0.25000   0.00000  Uiso   1.00
O764   O     0.61897   0.80903   0.08333   0.00000  Uiso   1.00
C765   C     0.63485   0.84896   0.09207   0.00000  Uiso   1.00
H766   H     0.64967   0.84871   0.12493   0.00000  Uiso   1.00
H767   H     0.60782   0.87468   0.10089   0.00000  Uiso   1.00
H768   H     0.66246   0.85550   0.05759   0.00000  Uiso   1.00
C769   C     0.41221   0.70515   0.28970   0.00000  Uiso   1.00
O770   O     0.41089   0.72957   0.32700   0.00000  Uiso   1.00
O771   O     0.37073   0.69428   0.28085   0.00000  Uiso   1.00
H772   H     0.34250   0.70819   0.30755   0.00000  Uiso   1.00
C773   C     0.43534   0.96067   0.20196   0.00000  Uiso   1.00
O774   O     0.39816   0.97662   0.20309   0.00000  Uiso   1.00
O775   O     0.45375   0.92655   0.16595   0.00000  Uiso   1.00
H776   H     0.43176   0.91648   0.14631   0.00000  Uiso   1.00
C777   C     0.63649   0.76539   0.19592   0.00000  Uiso   1.00
O778   O     0.61218   0.77065   0.16814   0.00000  Uiso   1.00
O779   O     0.65233   0.72506   0.19963   0.00000  Uiso   1.00
H780   H     0.64425   0.70366   0.17459   0.00000  Uiso   1.00
C781   C     0.40045   0.77401   0.18505   0.00000  Uiso   1.00
O782   O     0.42439   0.78751   0.14571   0.00000  Uiso   1.00
O783   O     0.40581   0.73225   0.19270   0.00000  Uiso   1.00
H784   H     0.43091   0.71680   0.16323   0.00000  Uiso   1.00
C785   C     0.36220   0.90568   0.29615   0.00000  Uiso   1.00
O786   O     0.39250   0.90616   0.31671   0.00000  Uiso   1.00
O787   O     0.33749   0.94288   0.29712   0.00000  Uiso   1.00
H788   H     0.34364   0.96531   0.32223   0.00000  Uiso   1.00
O789   O     0.60223   0.89617   0.30268   0.00000  Uiso   1.00
C790   C     0.58956   0.89244   0.35664   0.00000  Uiso   1.00
H791   H     0.57612   0.86150   0.36653   0.00000  Uiso   1.00
H792   H     0.56137   0.91600   0.37607   0.00000  Uiso   1.00
H793   H     0.61864   0.89861   0.37288   0.00000  Uiso   1.00
O794   O     0.60565   0.76565   0.40689   0.00000  Uiso   1.00
C795   C     0.63153   0.78854   0.36649   0.00000  Uiso   1.00
H796   H     0.63547   0.82118   0.38016   0.00000  Uiso   1.00
H797   H     0.61617   0.78820   0.33405   0.00000  Uiso   1.00
H798   H     0.33352   0.77419   0.35120   0.00000  Uiso   1.00
C799   C     0.63265   0.82772   0.47920   0.00000  Uiso   1.00
O800   O     0.33809   0.81119   0.46482   0.00000  Uiso   1.00
O801   O     0.62463   0.86994   0.47461   0.00000  Uiso   1.00
H802   H     0.64986   0.88787   0.48015   0.00000  Uiso   1.00
C803   C     0.39727   0.88969   0.41381   0.00000  Uiso   1.00
O804   O     0.37014   0.87069   0.39612   0.00000  Uiso   1.00
O805   O     0.39660   0.93327   0.41750   0.00000  Uiso   1.00
H806   H     0.37112   0.94609   0.40548   0.00000  Uiso   1.00
O807   O     0.40857   0.83199   0.06320   0.00000  Uiso   1.00
C808   C     0.39774   0.79005   0.05415   0.00000  Uiso   1.00
H809   H     0.42834   0.76856   0.04851   0.00000  Uiso   1.00
H810   H     0.38426   0.78529   0.02025   0.00000  Uiso   1.00
H811   H     0.37026   0.78133   0.08844   0.00000  Uiso   1.00
O812   O     0.38177   0.90352   0.01796   0.00000  Uiso   1.00
C813   C     0.39335   0.92475   0.05968   0.00000  Uiso   1.00
H814   H     0.43073   0.93142   0.04974   0.00000  Uiso   1.00
H815   H     0.38276   0.90699   0.09449   0.00000  Uiso   1.00
H816   H     0.37357   0.95513   0.06971   0.00000  Uiso   1.00
C817   C     0.52287   0.75432   0.37407   0.00000  Uiso   1.00
O818   O     0.55684   0.73606   0.34334   0.00000  Uiso   1.00
O819   O     0.47903   0.73963   0.37831   0.00000  Uiso   1.00
H820   H     0.48055   0.71178   0.35768   0.00000  Uiso   1.00
C821   C     0.59206   0.95817   0.21822   0.00000  Uiso   1.00
O822   O     0.62034   0.97220   0.23844   0.00000  Uiso   1.00
O823   O     0.60533   0.92546   0.17930   0.00000  Uiso   1.00
H824   H     0.63872   0.91563   0.17267   0.00000  Uiso   1.00
C825   C     0.83468   0.91261   0.24454   0.00000  Uiso   1.00
C826   C     0.81185   0.82602   0.48976   0.00000  Uiso   1.00
C827   C     0.82242   0.81699   0.43561   0.00000  Uiso   1.00
C828   C     0.84545   0.81834   0.01493   0.00000  Uiso   1.00
C829   C     0.88998   0.80307   0.48505   0.00000  Uiso   1.00
C830   C     0.89788   0.78778   0.43272   0.00000  Uiso   1.00
C831   C     0.86088   0.78929   0.41095   0.00000  Uiso   1.00
C832   C     0.83782   0.83087   0.06766   0.00000  Uiso   1.00
C833   C     0.91674   0.81230   0.06141   0.00000  Uiso   1.00
C834   C     0.79447   0.83644   0.40880   0.00000  Uiso   1.00
C835   C     0.87811   0.97789   0.23274   0.00000  Uiso   1.00
C836   C     0.80818   0.83341   0.35115   0.00000  Uiso   1.00
C837   C     0.87472   0.68726   0.24053   0.00000  Uiso   1.00
C838   C     0.83233   0.70865   0.25183   0.00000  Uiso   1.00
C839   C     0.79136   0.68708   0.25536   0.00000  Uiso   1.00
C840   C     0.79669   0.97854   0.23516   0.00000  Uiso   1.00
C841   C     0.83739   0.95643   0.23482   0.00000  Uiso   1.00
C842   C     0.98425   0.80141   0.22395   0.00000  Uiso   1.00
C843   C     0.69881   0.80217   0.22303   0.00000  Uiso   1.00
C844   C     0.68210   0.86603   0.27439   0.00000  Uiso   1.00
C845   C     0.96733   0.86439   0.27681   0.00000  Uiso   1.00
C846   C     0.83280   0.75352   0.25213   0.00000  Uiso   1.00
C847   C     0.85855   0.83164   0.14898   0.00000  Uiso   1.00
C848   C     0.92638   0.80570   0.00737   0.00000  Uiso   1.00
C849   C     0.87177   0.82480   0.09198   0.00000  Uiso   1.00
C850   C     0.75958   0.86653   0.43760   0.00000  Uiso   1.00
C851   C     0.74889   0.87314   0.49152   0.00000  Uiso   1.00
C852   C     0.76856   0.84525   0.01674   0.00000  Uiso   1.00
H853   H     0.90556   0.70398   0.23812   0.00000  Uiso   1.00
H854   H     0.80563   0.84619   0.09064   0.00000  Uiso   1.00
N855   N     0.71426   0.83334   0.25002   0.00000  Uiso   1.00
N856   N     0.95239   0.83331   0.25001   0.00000  Uiso   1.00
O857   O     0.79512   0.89442   0.25001   0.00000  Uiso   1.00
O858   O     0.87157   0.89441   0.25001   0.00000  Uiso   1.00
O859   O     0.77613   0.83333   0.32681   0.00000  Uiso   1.00
O860   O     0.85258   0.83332   0.32681   0.00000  Uiso   1.00
O861   O     0.79510   0.77226   0.25000   0.00000  Uiso   1.00
O862   O     0.87154   0.77225   0.24999   0.00000  Uiso   1.00
O863   O     0.81409   0.83335   0.17319   0.00000  Uiso   1.00
O864   O     0.89053   0.83334   0.17319   0.00000  Uiso   1.00
Zn865  Zn    0.78229   0.83334   0.25000   0.00000  Uiso   1.00
Zn866  Zn    0.88438   0.83333   0.25000   0.00000  Uiso   1.00
O867   O     0.95230   0.80903   0.08333   0.00000  Uiso   1.00
C868   C     0.96818   0.84896   0.09207   0.00000  Uiso   1.00
H869   H     0.98301   0.84871   0.12493   0.00000  Uiso   1.00
H870   H     0.94115   0.87468   0.10089   0.00000  Uiso   1.00
H871   H     0.99579   0.85550   0.05759   0.00000  Uiso   1.00
C872   C     0.74555   0.70515   0.28970   0.00000  Uiso   1.00
O873   O     0.74422   0.72957   0.32700   0.00000  Uiso   1.00
O874   O     0.70407   0.69428   0.28085   0.00000  Uiso   1.00
H875   H     0.67584   0.70819   0.30755   0.00000  Uiso   1.00
C876   C     0.76867   0.96067   0.20196   0.00000  Uiso   1.00
O877   O     0.73149   0.97662   0.20309   0.00000  Uiso   1.00
O878   O     0.78708   0.92655   0.16595   0.00000  Uiso   1.00
H879   H     0.76509   0.91648   0.14631   0.00000  Uiso   1.00
C880   C     0.96983   0.76539   0.19592   0.00000  Uiso   1.00
O881   O     0.94551   0.77065   0.16814   0.00000  Uiso   1.00
O882   O     0.98566   0.72506   0.19963   0.00000  Uiso   1.00
H883   H     0.97758   0.70366   0.17459   0.00000  Uiso   1.00
C884   C     0.73378   0.77401   0.18505   0.00000  Uiso   1.00
O885   O     0.75773   0.78751   0.14571   0.00000  Uiso   1.00
O886   O     0.73915   0.73225   0.19270   0.00000  Uiso   1.00
H887   H     0.76424   0.71680   0.16323   0.00000  Uiso   1.00
C888   C     0.69554   0.90568   0.29615   0.00000  Uiso   1.00
O889   O     0.72583   0.90616   0.31671   0.00000  Uiso   1.00
O890   O     0.67082   0.94288   0.29712   0.00000  Uiso   1.00
H891   H     0.67697   0.96531   0.32223   0.00000  Uiso   1.00
O892   O     0.93556   0.89617   0.30268   0.00000  Uiso   1.00
C893   C     0.92289   0.89244   0.35664   0.00000  Uiso   1.00
H894   H     0.90945   0.86150   0.36653   0.00000  Uiso   1.00
H895   H     0.89470   0.91600   0.37607   0.00000  Uiso   1.00
H896   H     0.95197   0.89861   0.37288   0.00000  Uiso   1.00
O897   O     0.93899   0.76565   0.40689   0.00000  Uiso   1.00
C898   C     0.96486   0.78854   0.36649   0.00000  Uiso   1.00
H899   H     0.96880   0.82118   0.38016   0.00000  Uiso   1.00
H900   H     0.94951   0.78820   0.33405   0.00000  Uiso   1.00
H901   H     0.66686   0.77419   0.35120   0.00000  Uiso   1.00
C902   C     0.96598   0.82772   0.47920   0.00000  Uiso   1.00
O903   O     0.67142   0.81119   0.46482   0.00000  Uiso   1.00
O904   O     0.95797   0.86994   0.47461   0.00000  Uiso   1.00
H905   H     0.98319   0.88787   0.48015   0.00000  Uiso   1.00
C906   C     0.73060   0.88969   0.41381   0.00000  Uiso   1.00
O907   O     0.70347   0.87069   0.39612   0.00000  Uiso   1.00
O908   O     0.72993   0.93327   0.41750   0.00000  Uiso   1.00
H909   H     0.70446   0.94609   0.40548   0.00000  Uiso   1.00
O910   O     0.74191   0.83199   0.06320   0.00000  Uiso   1.00
C911   C     0.73108   0.79005   0.05415   0.00000  Uiso   1.00
H912   H     0.76168   0.76856   0.04851   0.00000  Uiso   1.00
H913   H     0.71759   0.78529   0.02025   0.00000  Uiso   1.00
H914   H     0.70359   0.78133   0.08844   0.00000  Uiso   1.00
O915   O     0.71510   0.90352   0.01796   0.00000  Uiso   1.00
C916   C     0.72668   0.92475   0.05968   0.00000  Uiso   1.00
H917   H     0.76407   0.93142   0.04974   0.00000  Uiso   1.00
H918   H     0.71609   0.90699   0.09449   0.00000  Uiso   1.00
H919   H     0.70690   0.95513   0.06971   0.00000  Uiso   1.00
C920   C     0.85620   0.75432   0.37407   0.00000  Uiso   1.00
O921   O     0.89017   0.73606   0.34334   0.00000  Uiso   1.00
O922   O     0.81236   0.73963   0.37831   0.00000  Uiso   1.00
H923   H     0.81388   0.71178   0.35768   0.00000  Uiso   1.00
C924   C     0.92539   0.95817   0.21822   0.00000  Uiso   1.00
O925   O     0.95367   0.97220   0.23844   0.00000  Uiso   1.00
O926   O     0.93866   0.92546   0.17930   0.00000  Uiso   1.00
H927   H     0.97205   0.91563   0.17267   0.00000  Uiso   1.00
C928   C     0.16802   0.24594   0.74454   0.00000  Uiso   1.00
C929   C     0.14518   0.15935   0.98976   0.00000  Uiso   1.00
C930   C     0.15576   0.15033   0.93561   0.00000  Uiso   1.00
C931   C     0.17879   0.15167   0.51493   0.00000  Uiso   1.00
C932   C     0.22331   0.13640   0.98505   0.00000  Uiso   1.00
C933   C     0.23121   0.12112   0.93272   0.00000  Uiso   1.00
C934   C     0.19422   0.12263   0.91095   0.00000  Uiso   1.00
C935   C     0.17115   0.16420   0.56766   0.00000  Uiso   1.00
C936   C     0.25008   0.14563   0.56141   0.00000  Uiso   1.00
C937   C     0.12780   0.16977   0.90880   0.00000  Uiso   1.00
C938   C     0.21145   0.31123   0.73274   0.00000  Uiso   1.00
C939   C     0.14151   0.16674   0.85115   0.00000  Uiso   1.00
C940   C     0.20805   0.02060   0.74053   0.00000  Uiso   1.00
C941   C     0.16567   0.04198   0.75183   0.00000  Uiso   1.00
C942   C     0.12469   0.02041   0.75536   0.00000  Uiso   1.00
C943   C     0.13002   0.31187   0.73516   0.00000  Uiso   1.00
C944   C     0.17073   0.28976   0.73482   0.00000  Uiso   1.00
C945   C     0.31758   0.13474   0.72395   0.00000  Uiso   1.00
C946   C     0.03214   0.13550   0.72303   0.00000  Uiso   1.00
C947   C     0.01543   0.19936   0.77439   0.00000  Uiso   1.00
C948   C     0.30066   0.19772   0.77681   0.00000  Uiso   1.00
C949   C     0.16613   0.08685   0.75213   0.00000  Uiso   1.00
C950   C     0.19188   0.16497   0.64898   0.00000  Uiso   1.00
C951   C     0.25971   0.13904   0.50737   0.00000  Uiso   1.00
C952   C     0.20511   0.15813   0.59198   0.00000  Uiso   1.00
C953   C     0.09291   0.19986   0.93760   0.00000  Uiso   1.00
C954   C     0.08223   0.20647   0.99152   0.00000  Uiso   1.00
C955   C     0.10189   0.17859   0.51674   0.00000  Uiso   1.00
H956   H     0.23889   0.03732   0.73812   0.00000  Uiso   1.00
H957   H     0.13896   0.17952   0.59064   0.00000  Uiso   1.00
N958   N     0.04760   0.16668   0.75002   0.00000  Uiso   1.00
N959   N     0.28573   0.16665   0.75001   0.00000  Uiso   1.00
O960   O     0.12846   0.22775   0.75001   0.00000  Uiso   1.00
O961   O     0.20490   0.22774   0.75001   0.00000  Uiso   1.00
O962   O     0.10947   0.16666   0.82681   0.00000  Uiso   1.00
O963   O     0.18591   0.16665   0.82681   0.00000  Uiso   1.00
O964   O     0.12843   0.10559   0.75000   0.00000  Uiso   1.00
O965   O     0.20488   0.10558   0.74999   0.00000  Uiso   1.00
O966   O     0.14742   0.16668   0.67319   0.00000  Uiso   1.00
O967   O     0.22387   0.16667   0.67319   0.00000  Uiso   1.00
Zn968  Zn    0.11562   0.16667   0.75000   0.00000  Uiso   1.00
Zn969  Zn    0.21771   0.16666   0.75000   0.00000  Uiso   1.00
O970   O     0.28563   0.14236   0.58333   0.00000  Uiso   1.00
C971   C     0.30151   0.18229   0.59207   0.00000  Uiso   1.00
H972   H     0.31634   0.18205   0.62493   0.00000  Uiso   1.00
H973   H     0.27449   0.20801   0.60089   0.00000  Uiso   1.00
H974   H     0.32913   0.18883   0.55759   0.00000  Uiso   1.00
C975   C     0.07888   0.03848   0.78970   0.00000  Uiso   1.00
O976   O     0.07755   0.06290   0.82700   0.00000  Uiso   1.00
O977   O     0.03740   0.02761   0.78085   0.00000  Uiso   1.00
H978   H     0.00917   0.04152   0.80755   0.00000  Uiso   1.00
C979   C     0.10201   0.29401   0.70196   0.00000  Uiso   1.00
O980   O     0.06482   0.30995   0.70309   0.00000  Uiso   1.00
O981   O     0.12042   0.25989   0.66595   0.00000  Uiso   1.00
H982   H     0.09843   0.24982   0.64631   0.00000  Uiso   1.00
C983   C     0.30316   0.09873   0.69592   0.00000  Uiso   1.00
O984   O     0.27885   0.10398   0.66814   0.00000  Uiso   1.00
O985   O     0.31900   0.05839   0.69963   0.00000  Uiso   1.00
H986   H     0.31092   0.03699   0.67459   0.00000  Uiso   1.00
C987   C     0.06712   0.10735   0.68505   0.00000  Uiso   1.00
O988   O     0.09106   0.12084   0.64571   0.00000  Uiso   1.00
O989   O     0.07248   0.06558   0.69270   0.00000  Uiso   1.00
H990   H     0.09758   0.05013   0.66323   0.00000  Uiso   1.00
C991   C     0.02887   0.23901   0.79615   0.00000  Uiso   1.00
O992   O     0.05917   0.23949   0.81671   0.00000  Uiso   1.00
O993   O     0.00415   0.27621   0.79712   0.00000  Uiso   1.00
H994   H     0.01030   0.29864   0.82223   0.00000  Uiso   1.00
O995   O     0.26890   0.22950   0.80268   0.00000  Uiso   1.00
C996   C     0.25622   0.22577   0.85664   0.00000  Uiso   1.00
H997   H     0.24279   0.19483   0.86653   0.00000  Uiso   1.00
H998   H     0.22804   0.24933   0.87607   0.00000  Uiso   1.00
H999   H     0.28530   0.23195   0.87288   0.00000  Uiso   1.00
O1000  O     0.27232   0.09899   0.90689   0.00000  Uiso   1.00
C1001  C     0.29819   0.12188   0.86649   0.00000  Uiso   1.00
H1002  H     0.30214   0.15451   0.88016   0.00000  Uiso   1.00
H1003  H     0.28284   0.12154   0.83405   0.00000  Uiso   1.00
H1004  H     0.00019   0.10753   0.85120   0.00000  Uiso   1.00
C1005  C     0.29932   0.16105   0.97920   0.00000  Uiso   1.00
O1006  O     0.00476   0.14452   0.96482   0.00000  Uiso   1.00
O1007  O     0.29130   0.20327   0.97461   0.00000  Uiso   1.00
H1008  H     0.31653   0.22120   0.98015   0.00000  Uiso   1.00
C1009  C     0.06393   0.22303   0.91381   0.00000  Uiso   1.00
O1010  O     0.03681   0.20403   0.89612   0.00000  Uiso   1.00
O1011  O     0.06326   0.26661   0.91750   0.00000  Uiso   1.00
H1012  H     0.03779   0.27942   0.90548   0.00000  Uiso   1.00
O1013  O     0.07524   0.16532   0.56320   0.00000  Uiso   1.00
C1014  C     0.06441   0.12339   0.55415   0.00000  Uiso   1.00
H1015  H     0.09501   0.10190   0.54851   0.00000  Uiso   1.00
H1016  H     0.05093   0.11863   0.52025   0.00000  Uiso   1.00
H1017  H     0.03692   0.11466   0.58844   0.00000  Uiso   1.00
O1018  O     0.04844   0.23685   0.51796   0.00000  Uiso   1.00
C1019  C     0.06002   0.25809   0.55968   0.00000  Uiso   1.00
H1020  H     0.09740   0.26475   0.54974   0.00000  Uiso   1.00
H1021  H     0.04942   0.24033   0.59449   0.00000  Uiso   1.00
H1022  H     0.04023   0.28847   0.56971   0.00000  Uiso   1.00
C1023  C     0.18953   0.08765   0.87407   0.00000  Uiso   1.00
O1024  O     0.22351   0.06940   0.84334   0.00000  Uiso   1.00
O1025  O     0.14570   0.07296   0.87831   0.00000  Uiso   1.00
H1026  H     0.14722   0.04512   0.85768   0.00000  Uiso   1.00
C1027  C     0.25873   0.29151   0.71822   0.00000  Uiso   1.00
O1028  O     0.28701   0.30553   0.73844   0.00000  Uiso   1.00
O1029  O     0.27199   0.25879   0.67930   0.00000  Uiso   1.00
H1030  H     0.30539   0.24897   0.67267   0.00000  Uiso   1.00
C1031  C     0.50135   0.24594   0.74454   0.00000  Uiso   1.00
C1032  C     0.47851   0.15935   0.98976   0.00000  Uiso   1.00
C1033  C     0.48909   0.15033   0.93561   0.00000  Uiso   1.00
C1034  C     0.51212   0.15167   0.51493   0.00000  Uiso   1.00
C1035  C     0.55664   0.13640   0.98505   0.00000  Uiso   1.00
C1036  C     0.56455   0.12112   0.93272   0.00000  Uiso   1.00
C1037  C     0.52755   0.12263   0.91095   0.00000  Uiso   1.00
C1038  C     0.50448   0.16420   0.56766   0.00000  Uiso   1.00
C1039  C     0.58341   0.14563   0.56141   0.00000  Uiso   1.00
C1040  C     0.46114   0.16977   0.90880   0.00000  Uiso   1.00
C1041  C     0.54478   0.31123   0.73274   0.00000  Uiso   1.00
C1042  C     0.47484   0.16674   0.85115   0.00000  Uiso   1.00
C1043  C     0.54139   0.02060   0.74053   0.00000  Uiso   1.00
C1044  C     0.49900   0.04198   0.75183   0.00000  Uiso   1.00
C1045  C     0.45803   0.02041   0.75536   0.00000  Uiso   1.00
C1046  C     0.46335   0.31187   0.73516   0.00000  Uiso   1.00
C1047  C     0.50406   0.28976   0.73482   0.00000  Uiso   1.00
C1048  C     0.65092   0.13474   0.72395   0.00000  Uiso   1.00
C1049  C     0.36547   0.13550   0.72303   0.00000  Uiso   1.00
C1050  C     0.34876   0.19936   0.77439   0.00000  Uiso   1.00
C1051  C     0.63399   0.19772   0.77681   0.00000  Uiso   1.00
C1052  C     0.49947   0.08685   0.75213   0.00000  Uiso   1.00
C1053  C     0.52521   0.16497   0.64898   0.00000  Uiso   1.00
C1054  C     0.59304   0.13904   0.50737   0.00000  Uiso   1.00
C1055  C     0.53844   0.15813   0.59198   0.00000  Uiso   1.00
C1056  C     0.42624   0.19986   0.93760   0.00000  Uiso   1.00
C1057  C     0.41556   0.20647   0.99152   0.00000  Uiso   1.00
C1058  C     0.43523   0.17859   0.51674   0.00000  Uiso   1.00
H1059  H     0.57223   0.03732   0.73812   0.00000  Uiso   1.00
H1060  H     0.47229   0.17952   0.59064   0.00000  Uiso   1.00
N1061  N     0.38093   0.16668   0.75002   0.00000  Uiso   1.00
N1062  N     0.61906   0.16665   0.75001   0.00000  Uiso   1.00
O1063  O     0.46179   0.22775   0.75001   0.00000  Uiso   1.00
O1064  O     0.53823   0.22774   0.75001   0.00000  Uiso   1.00
O1065  O     0.44280   0.16666   0.82681   0.00000  Uiso   1.00
O1066  O     0.51924   0.16665   0.82681   0.00000  Uiso   1.00
O1067  O     0.46177   0.10559   0.75000   0.00000  Uiso   1.00
O1068  O     0.53821   0.10558   0.74999   0.00000  Uiso   1.00
O1069  O     0.48076   0.16668   0.67319   0.00000  Uiso   1.00
O1070  O     0.55720   0.16667   0.67319   0.00000  Uiso   1.00
Zn1071 Zn    0.44896   0.16667   0.75000   0.00000  Uiso   1.00
Zn1072 Zn    0.55104   0.16666   0.75000   0.00000  Uiso   1.00
O1073  O     0.61897   0.14236   0.58333   0.00000  Uiso   1.00
C1074  C     0.63485   0.18229   0.59207   0.00000  Uiso   1.00
H1075  H     0.64967   0.18205   0.62493   0.00000  Uiso   1.00
H1076  H     0.60782   0.20801   0.60089   0.00000  Uiso   1.00
H1077  H     0.66246   0.18883   0.55759   0.00000  Uiso   1.00
C1078  C     0.41221   0.03848   0.78970   0.00000  Uiso   1.00
O1079  O     0.41089   0.06290   0.82700   0.00000  Uiso   1.00
O1080  O     0.37073   0.02761   0.78085   0.00000  Uiso   1.00
H1081  H     0.34250   0.04152   0.80755   0.00000  Uiso   1.00
C1082  C     0.43534   0.29401   0.70196   0.00000  Uiso   1.00
O1083  O     0.39816   0.30995   0.70309   0.00000  Uiso   1.00
O1084  O     0.45375   0.25989   0.66595   0.00000  Uiso   1.00
H1085  H     0.43176   0.24982   0.64631   0.00000  Uiso   1.00
C1086  C     0.63649   0.09873   0.69592   0.00000  Uiso   1.00
O1087  O     0.61218   0.10398   0.66814   0.00000  Uiso   1.00
O1088  O     0.65233   0.05839   0.69963   0.00000  Uiso   1.00
H1089  H     0.64425   0.03699   0.67459   0.00000  Uiso   1.00
C1090  C     0.40045   0.10735   0.68505   0.00000  Uiso   1.00
O1091  O     0.42439   0.12084   0.64571   0.00000  Uiso   1.00
O1092  O     0.40581   0.06558   0.69270   0.00000  Uiso   1.00
H1093  H     0.43091   0.05013   0.66323   0.00000  Uiso   1.00
C1094  C     0.36220   0.23901   0.79615   0.00000  Uiso   1.00
O1095  O     0.39250   0.23949   0.81671   0.00000  Uiso   1.00
O1096  O     0.33749   0.27621   0.79712   0.00000  Uiso   1.00
H1097  H     0.34364   0.29864   0.82223   0.00000  Uiso   1.00
O1098  O     0.60223   0.22950   0.80268   0.00000  Uiso   1.00
C1099  C     0.58956   0.22577   0.85664   0.00000  Uiso   1.00
H1100  H     0.57612   0.19483   0.86653   0.00000  Uiso   1.00
H1101  H     0.56137   0.24933   0.87607   0.00000  Uiso   1.00
H1102  H     0.61864   0.23195   0.87288   0.00000  Uiso   1.00
O1103  O     0.60565   0.09899   0.90689   0.00000  Uiso   1.00
C1104  C     0.63153   0.12188   0.86649   0.00000  Uiso   1.00
H1105  H     0.63547   0.15451   0.88016   0.00000  Uiso   1.00
H1106  H     0.61617   0.12154   0.83405   0.00000  Uiso   1.00
H1107  H     0.33352   0.10753   0.85120   0.00000  Uiso   1.00
C1108  C     0.63265   0.16105   0.97920   0.00000  Uiso   1.00
O1109  O     0.33809   0.14452   0.96482   0.00000  Uiso   1.00
O1110  O     0.62463   0.20327   0.97461   0.00000  Uiso   1.00
H1111  H     0.64986   0.22120   0.98015   0.00000  Uiso   1.00
C1112  C     0.39727   0.22303   0.91381   0.00000  Uiso   1.00
O1113  O     0.37014   0.20403   0.89612   0.00000  Uiso   1.00
O1114  O     0.39660   0.26661   0.91750   0.00000  Uiso   1.00
H1115  H     0.37112   0.27942   0.90548   0.00000  Uiso   1.00
O1116  O     0.40857   0.16532   0.56320   0.00000  Uiso   1.00
C1117  C     0.39774   0.12339   0.55415   0.00000  Uiso   1.00
H1118  H     0.42834   0.10190   0.54851   0.00000  Uiso   1.00
H1119  H     0.38426   0.11863   0.52025   0.00000  Uiso   1.00
H1120  H     0.37026   0.11466   0.58844   0.00000  Uiso   1.00
O1121  O     0.38177   0.23685   0.51796   0.00000  Uiso   1.00
C1122  C     0.39335   0.25809   0.55968   0.00000  Uiso   1.00
H1123  H     0.43073   0.26475   0.54974   0.00000  Uiso   1.00
H1124  H     0.38276   0.24033   0.59449   0.00000  Uiso   1.00
H1125  H     0.37357   0.28847   0.56971   0.00000  Uiso   1.00
C1126  C     0.52287   0.08765   0.87407   0.00000  Uiso   1.00
O1127  O     0.55684   0.06940   0.84334   0.00000  Uiso   1.00
O1128  O     0.47903   0.07296   0.87831   0.00000  Uiso   1.00
H1129  H     0.48055   0.04512   0.85768   0.00000  Uiso   1.00
C1130  C     0.59206   0.29151   0.71822   0.00000  Uiso   1.00
O1131  O     0.62034   0.30553   0.73844   0.00000  Uiso   1.00
O1132  O     0.60533   0.25879   0.67930   0.00000  Uiso   1.00
H1133  H     0.63872   0.24897   0.67267   0.00000  Uiso   1.00
C1134  C     0.83468   0.24594   0.74454   0.00000  Uiso   1.00
C1135  C     0.81185   0.15935   0.98976   0.00000  Uiso   1.00
C1136  C     0.82242   0.15033   0.93561   0.00000  Uiso   1.00
C1137  C     0.84545   0.15167   0.51493   0.00000  Uiso   1.00
C1138  C     0.88998   0.13640   0.98505   0.00000  Uiso   1.00
C1139  C     0.89788   0.12112   0.93272   0.00000  Uiso   1.00
C1140  C     0.86088   0.12263   0.91095   0.00000  Uiso   1.00
C1141  C     0.83782   0.16420   0.56766   0.00000  Uiso   1.00
C1142  C     0.91674   0.14563   0.56141   0.00000  Uiso   1.00
C1143  C     0.79447   0.16977   0.90880   0.00000  Uiso   1.00
C1144  C     0.87811   0.31123   0.73274   0.00000  Uiso   1.00
C1145  C     0.80818   0.16674   0.85115   0.00000  Uiso   1.00
C1146  C     0.87472   0.02060   0.74053   0.00000  Uiso   1.00
C1147  C     0.83233   0.04198   0.75183   0.00000  Uiso   1.00
C1148  C     0.79136   0.02041   0.75536   0.00000  Uiso   1.00
C1149  C     0.79669   0.31187   0.73516   0.00000  Uiso   1.00
C1150  C     0.83739   0.28976   0.73482   0.00000  Uiso   1.00
C1151  C     0.98425   0.13474   0.72395   0.00000  Uiso   1.00
C1152  C     0.69881   0.13550   0.72303   0.00000  Uiso   1.00
C1153  C     0.68210   0.19936   0.77439   0.00000  Uiso   1.00
C1154  C     0.96733   0.19772   0.77681   0.00000  Uiso   1.00
C1155  C     0.83280   0.08685   0.75213   0.00000  Uiso   1.00
C1156  C     0.85855   0.16497   0.64898   0.00000  Uiso   1.00
C1157  C     0.92638   0.13904   0.50737   0.00000  Uiso   1.00
C1158  C     0.87177   0.15813   0.59198   0.00000  Uiso   1.00
C1159  C     0.75958   0.19986   0.93760   0.00000  Uiso   1.00
C1160  C     0.74889   0.20647   0.99152   0.00000  Uiso   1.00
C1161  C     0.76856   0.17859   0.51674   0.00000  Uiso   1.00
H1162  H     0.90556   0.03732   0.73812   0.00000  Uiso   1.00
H1163  H     0.80563   0.17952   0.59064   0.00000  Uiso   1.00
N1164  N     0.71426   0.16668   0.75002   0.00000  Uiso   1.00
N1165  N     0.95239   0.16665   0.75001   0.00000  Uiso   1.00
O1166  O     0.79512   0.22775   0.75001   0.00000  Uiso   1.00
O1167  O     0.87157   0.22774   0.75001   0.00000  Uiso   1.00
O1168  O     0.77613   0.16666   0.82681   0.00000  Uiso   1.00
O1169  O     0.85258   0.16665   0.82681   0.00000  Uiso   1.00
O1170  O     0.79510   0.10559   0.75000   0.00000  Uiso   1.00
O1171  O     0.87154   0.10558   0.74999   0.00000  Uiso   1.00
O1172  O     0.81409   0.16668   0.67319   0.00000  Uiso   1.00
O1173  O     0.89053   0.16667   0.67319   0.00000  Uiso   1.00
Zn1174 Zn    0.78229   0.16667   0.75000   0.00000  Uiso   1.00
Zn1175 Zn    0.88438   0.16666   0.75000   0.00000  Uiso   1.00
O1176  O     0.95230   0.14236   0.58333   0.00000  Uiso   1.00
C1177  C     0.96818   0.18229   0.59207   0.00000  Uiso   1.00
H1178  H     0.98301   0.18205   0.62493   0.00000  Uiso   1.00
H1179  H     0.94115   0.20801   0.60089   0.00000  Uiso   1.00
H1180  H     0.99579   0.18883   0.55759   0.00000  Uiso   1.00
C1181  C     0.74555   0.03848   0.78970   0.00000  Uiso   1.00
O1182  O     0.74422   0.06290   0.82700   0.00000  Uiso   1.00
O1183  O     0.70407   0.02761   0.78085   0.00000  Uiso   1.00
H1184  H     0.67584   0.04152   0.80755   0.00000  Uiso   1.00
C1185  C     0.76867   0.29401   0.70196   0.00000  Uiso   1.00
O1186  O     0.73149   0.30995   0.70309   0.00000  Uiso   1.00
O1187  O     0.78708   0.25989   0.66595   0.00000  Uiso   1.00
H1188  H     0.76509   0.24982   0.64631   0.00000  Uiso   1.00
C1189  C     0.96983   0.09873   0.69592   0.00000  Uiso   1.00
O1190  O     0.94551   0.10398   0.66814   0.00000  Uiso   1.00
O1191  O     0.98566   0.05839   0.69963   0.00000  Uiso   1.00
H1192  H     0.97758   0.03699   0.67459   0.00000  Uiso   1.00
C1193  C     0.73378   0.10735   0.68505   0.00000  Uiso   1.00
O1194  O     0.75773   0.12084   0.64571   0.00000  Uiso   1.00
O1195  O     0.73915   0.06558   0.69270   0.00000  Uiso   1.00
H1196  H     0.76424   0.05013   0.66323   0.00000  Uiso   1.00
C1197  C     0.69554   0.23901   0.79615   0.00000  Uiso   1.00
O1198  O     0.72583   0.23949   0.81671   0.00000  Uiso   1.00
O1199  O     0.67082   0.27621   0.79712   0.00000  Uiso   1.00
H1200  H     0.67697   0.29864   0.82223   0.00000  Uiso   1.00
O1201  O     0.93556   0.22950   0.80268   0.00000  Uiso   1.00
C1202  C     0.92289   0.22577   0.85664   0.00000  Uiso   1.00
H1203  H     0.90945   0.19483   0.86653   0.00000  Uiso   1.00
H1204  H     0.89470   0.24933   0.87607   0.00000  Uiso   1.00
H1205  H     0.95197   0.23195   0.87288   0.00000  Uiso   1.00
O1206  O     0.93899   0.09899   0.90689   0.00000  Uiso   1.00
C1207  C     0.96486   0.12188   0.86649   0.00000  Uiso   1.00
H1208  H     0.96880   0.15451   0.88016   0.00000  Uiso   1.00
H1209  H     0.94951   0.12154   0.83405   0.00000  Uiso   1.00
H1210  H     0.66686   0.10753   0.85120   0.00000  Uiso   1.00
C1211  C     0.96598   0.16105   0.97920   0.00000  Uiso   1.00
O1212  O     0.67142   0.14452   0.96482   0.00000  Uiso   1.00
O1213  O     0.95797   0.20327   0.97461   0.00000  Uiso   1.00
H1214  H     0.98319   0.22120   0.98015   0.00000  Uiso   1.00
C1215  C     0.73060   0.22303   0.91381   0.00000  Uiso   1.00
O1216  O     0.70347   0.20403   0.89612   0.00000  Uiso   1.00
O1217  O     0.72993   0.26661   0.91750   0.00000  Uiso   1.00
H1218  H     0.70446   0.27942   0.90548   0.00000  Uiso   1.00
O1219  O     0.74191   0.16532   0.56320   0.00000  Uiso   1.00
C1220  C     0.73108   0.12339   0.55415   0.00000  Uiso   1.00
H1221  H     0.76168   0.10190   0.54851   0.00000  Uiso   1.00
H1222  H     0.71759   0.11863   0.52025   0.00000  Uiso   1.00
H1223  H     0.70359   0.11466   0.58844   0.00000  Uiso   1.00
O1224  O     0.71510   0.23685   0.51796   0.00000  Uiso   1.00
C1225  C     0.72668   0.25809   0.55968   0.00000  Uiso   1.00
H1226  H     0.76407   0.26475   0.54974   0.00000  Uiso   1.00
H1227  H     0.71609   0.24033   0.59449   0.00000  Uiso   1.00
H1228  H     0.70690   0.28847   0.56971   0.00000  Uiso   1.00
C1229  C     0.85620   0.08765   0.87407   0.00000  Uiso   1.00
O1230  O     0.89017   0.06940   0.84334   0.00000  Uiso   1.00
O1231  O     0.81236   0.07296   0.87831   0.00000  Uiso   1.00
H1232  H     0.81388   0.04512   0.85768   0.00000  Uiso   1.00
C1233  C     0.92539   0.29151   0.71822   0.00000  Uiso   1.00
O1234  O     0.95367   0.30553   0.73844   0.00000  Uiso   1.00
O1235  O     0.93866   0.25879   0.67930   0.00000  Uiso   1.00
H1236  H     0.97205   0.24897   0.67267   0.00000  Uiso   1.00
C1237  C     0.16802   0.57928   0.74454   0.00000  Uiso   1.00
C1238  C     0.14518   0.49269   0.98976   0.00000  Uiso   1.00
C1239  C     0.15576   0.48366   0.93561   0.00000  Uiso   1.00
C1240  C     0.17879   0.48501   0.51493   0.00000  Uiso   1.00
C1241  C     0.22331   0.46973   0.98505   0.00000  Uiso   1.00
C1242  C     0.23121   0.45445   0.93272   0.00000  Uiso   1.00
C1243  C     0.19422   0.45596   0.91095   0.00000  Uiso   1.00
C1244  C     0.17115   0.49754   0.56766   0.00000  Uiso   1.00
C1245  C     0.25008   0.47896   0.56141   0.00000  Uiso   1.00
C1246  C     0.12780   0.50310   0.90880   0.00000  Uiso   1.00
C1247  C     0.21145   0.64456   0.73274   0.00000  Uiso   1.00
C1248  C     0.14151   0.50007   0.85115   0.00000  Uiso   1.00
C1249  C     0.20805   0.35393   0.74053   0.00000  Uiso   1.00
C1250  C     0.16567   0.37531   0.75183   0.00000  Uiso   1.00
C1251  C     0.12469   0.35374   0.75536   0.00000  Uiso   1.00
C1252  C     0.13002   0.64521   0.73516   0.00000  Uiso   1.00
C1253  C     0.17073   0.62309   0.73482   0.00000  Uiso   1.00
C1254  C     0.31758   0.46807   0.72395   0.00000  Uiso   1.00
C1255  C     0.03214   0.46883   0.72303   0.00000  Uiso   1.00
C1256  C     0.01543   0.53270   0.77439   0.00000  Uiso   1.00
C1257  C     0.30066   0.53106   0.77681   0.00000  Uiso   1.00
C1258  C     0.16613   0.42019   0.75213   0.00000  Uiso   1.00
C1259  C     0.19188   0.49831   0.64898   0.00000  Uiso   1.00
C1260  C     0.25971   0.47237   0.50737   0.00000  Uiso   1.00
C1261  C     0.20511   0.49147   0.59198   0.00000  Uiso   1.00
C1262  C     0.09291   0.53319   0.93760   0.00000  Uiso   1.00
C1263  C     0.08223   0.53980   0.99152   0.00000  Uiso   1.00
C1264  C     0.10189   0.51192   0.51674   0.00000  Uiso   1.00
H1265  H     0.23889   0.37065   0.73812   0.00000  Uiso   1.00
H1266  H     0.13896   0.51286   0.59064   0.00000  Uiso   1.00
N1267  N     0.04760   0.50001   0.75002   0.00000  Uiso   1.00
N1268  N     0.28573   0.49998   0.75001   0.00000  Uiso   1.00
O1269  O     0.12846   0.56108   0.75001   0.00000  Uiso   1.00
O1270  O     0.20490   0.56107   0.75001   0.00000  Uiso   1.00
O1271  O     0.10947   0.50000   0.82681   0.00000  Uiso   1.00
O1272  O     0.18591   0.49999   0.82681   0.00000  Uiso   1.00
O1273  O     0.12843   0.43893   0.75000   0.00000  Uiso   1.00
O1274  O     0.20488   0.43892   0.74999   0.00000  Uiso   1.00
O1275  O     0.14742   0.50001   0.67319   0.00000  Uiso   1.00
O1276  O     0.22387   0.50000   0.67319   0.00000  Uiso   1.00
Zn1277 Zn    0.11562   0.50001   0.75000   0.00000  Uiso   1.00
Zn1278 Zn    0.21771   0.49999   0.75000   0.00000  Uiso   1.00
O1279  O     0.28563   0.47569   0.58333   0.00000  Uiso   1.00
C1280  C     0.30151   0.51562   0.59207   0.00000  Uiso   1.00
H1281  H     0.31634   0.51538   0.62493   0.00000  Uiso   1.00
H1282  H     0.27449   0.54134   0.60089   0.00000  Uiso   1.00
H1283  H     0.32913   0.52216   0.55759   0.00000  Uiso   1.00
C1284  C     0.07888   0.37182   0.78970   0.00000  Uiso   1.00
O1285  O     0.07755   0.39623   0.82700   0.00000  Uiso   1.00
O1286  O     0.03740   0.36095   0.78085   0.00000  Uiso   1.00
H1287  H     0.00917   0.37485   0.80755   0.00000  Uiso   1.00
C1288  C     0.10201   0.62734   0.70196   0.00000  Uiso   1.00
O1289  O     0.06482   0.64329   0.70309   0.00000  Uiso   1.00
O1290  O     0.12042   0.59322   0.66595   0.00000  Uiso   1.00
H1291  H     0.09843   0.58315   0.64631   0.00000  Uiso   1.00
C1292  C     0.30316   0.43206   0.69592   0.00000  Uiso   1.00
O1293  O     0.27885   0.43732   0.66814   0.00000  Uiso   1.00
O1294  O     0.31900   0.39173   0.69963   0.00000  Uiso   1.00
H1295  H     0.31092   0.37032   0.67459   0.00000  Uiso   1.00
C1296  C     0.06712   0.44068   0.68505   0.00000  Uiso   1.00
O1297  O     0.09106   0.45417   0.64571   0.00000  Uiso   1.00
O1298  O     0.07248   0.39891   0.69270   0.00000  Uiso   1.00
H1299  H     0.09758   0.38346   0.66323   0.00000  Uiso   1.00
C1300  C     0.02887   0.57234   0.79615   0.00000  Uiso   1.00
O1301  O     0.05917   0.57282   0.81671   0.00000  Uiso   1.00
O1302  O     0.00415   0.60955   0.79712   0.00000  Uiso   1.00
H1303  H     0.01030   0.63198   0.82223   0.00000  Uiso   1.00
O1304  O     0.26890   0.56284   0.80268   0.00000  Uiso   1.00
C1305  C     0.25622   0.55910   0.85664   0.00000  Uiso   1.00
H1306  H     0.24279   0.52816   0.86653   0.00000  Uiso   1.00
H1307  H     0.22804   0.58267   0.87607   0.00000  Uiso   1.00
H1308  H     0.28530   0.56528   0.87288   0.00000  Uiso   1.00
O1309  O     0.27232   0.43232   0.90689   0.00000  Uiso   1.00
C1310  C     0.29819   0.45521   0.86649   0.00000  Uiso   1.00
H1311  H     0.30214   0.48784   0.88016   0.00000  Uiso   1.00
H1312  H     0.28284   0.45487   0.83405   0.00000  Uiso   1.00
H1313  H     0.00019   0.44086   0.85120   0.00000  Uiso   1.00
C1314  C     0.29932   0.49439   0.97920   0.00000  Uiso   1.00
O1315  O     0.00476   0.47786   0.96482   0.00000  Uiso   1.00
O1316  O     0.29130   0.53660   0.97461   0.00000  Uiso   1.00
H1317  H     0.31653   0.55453   0.98015   0.00000  Uiso   1.00
C1318  C     0.06393   0.55636   0.91381   0.00000  Uiso   1.00
O1319  O     0.03681   0.53736   0.89612   0.00000  Uiso   1.00
O1320  O     0.06326   0.59994   0.91750   0.00000  Uiso   1.00
H1321  H     0.03779   0.61275   0.90548   0.00000  Uiso   1.00
O1322  O     0.07524   0.49866   0.56320   0.00000  Uiso   1.00
C1323  C     0.06441   0.45672   0.55415   0.00000  Uiso   1.00
H1324  H     0.09501   0.43523   0.54851   0.00000  Uiso   1.00
H1325  H     0.05093   0.45196   0.52025   0.00000  Uiso   1.00
H1326  H     0.03692   0.44800   0.58844   0.00000  Uiso   1.00
O1327  O     0.04844   0.57018   0.51796   0.00000  Uiso   1.00
C1328  C     0.06002   0.59142   0.55968   0.00000  Uiso   1.00
H1329  H     0.09740   0.59808   0.54974   0.00000  Uiso   1.00
H1330  H     0.04942   0.57366   0.59449   0.00000  Uiso   1.00
H1331  H     0.04023   0.62180   0.56971   0.00000  Uiso   1.00
C1332  C     0.18953   0.42099   0.87407   0.00000  Uiso   1.00
O1333  O     0.22351   0.40273   0.84334   0.00000  Uiso   1.00
O1334  O     0.14570   0.40630   0.87831   0.00000  Uiso   1.00
H1335  H     0.14722   0.37845   0.85768   0.00000  Uiso   1.00
C1336  C     0.25873   0.62484   0.71822   0.00000  Uiso   1.00
O1337  O     0.28701   0.63887   0.73844   0.00000  Uiso   1.00
O1338  O     0.27199   0.59213   0.67930   0.00000  Uiso   1.00
H1339  H     0.30539   0.58230   0.67267   0.00000  Uiso   1.00
C1340  C     0.50135   0.57928   0.74454   0.00000  Uiso   1.00
C1341  C     0.47851   0.49269   0.98976   0.00000  Uiso   1.00
C1342  C     0.48909   0.48366   0.93561   0.00000  Uiso   1.00
C1343  C     0.51212   0.48501   0.51493   0.00000  Uiso   1.00
C1344  C     0.55664   0.46973   0.98505   0.00000  Uiso   1.00
C1345  C     0.56455   0.45445   0.93272   0.00000  Uiso   1.00
C1346  C     0.52755   0.45596   0.91095   0.00000  Uiso   1.00
C1347  C     0.50448   0.49754   0.56766   0.00000  Uiso   1.00
C1348  C     0.58341   0.47896   0.56141   0.00000  Uiso   1.00
C1349  C     0.46114   0.50310   0.90880   0.00000  Uiso   1.00
C1350  C     0.54478   0.64456   0.73274   0.00000  Uiso   1.00
C1351  C     0.47484   0.50007   0.85115   0.00000  Uiso   1.00
C1352  C     0.54139   0.35393   0.74053   0.00000  Uiso   1.00
C1353  C     0.49900   0.37531   0.75183   0.00000  Uiso   1.00
C1354  C     0.45803   0.35374   0.75536   0.00000  Uiso   1.00
C1355  C     0.46335   0.64521   0.73516   0.00000  Uiso   1.00
C1356  C     0.50406   0.62309   0.73482   0.00000  Uiso   1.00
C1357  C     0.65092   0.46807   0.72395   0.00000  Uiso   1.00
C1358  C     0.36547   0.46883   0.72303   0.00000  Uiso   1.00
C1359  C     0.34876   0.53270   0.77439   0.00000  Uiso   1.00
C1360  C     0.63399   0.53106   0.77681   0.00000  Uiso   1.00
C1361  C     0.49947   0.42019   0.75213   0.00000  Uiso   1.00
C1362  C     0.52521   0.49831   0.64898   0.00000  Uiso   1.00
C1363  C     0.59304   0.47237   0.50737   0.00000  Uiso   1.00
C1364  C     0.53844   0.49147   0.59198   0.00000  Uiso   1.00
C1365  C     0.42624   0.53319   0.93760   0.00000  Uiso   1.00
C1366  C     0.41556   0.53980   0.99152   0.00000  Uiso   1.00
C1367  C     0.43523   0.51192   0.51674   0.00000  Uiso   1.00
H1368  H     0.57223   0.37065   0.73812   0.00000  Uiso   1.00
H1369  H     0.47229   0.51286   0.59064   0.00000  Uiso   1.00
N1370  N     0.38093   0.50001   0.75002   0.00000  Uiso   1.00
N1371  N     0.61906   0.49998   0.75001   0.00000  Uiso   1.00
O1372  O     0.46179   0.56108   0.75001   0.00000  Uiso   1.00
O1373  O     0.53823   0.56107   0.75001   0.00000  Uiso   1.00
O1374  O     0.44280   0.50000   0.82681   0.00000  Uiso   1.00
O1375  O     0.51924   0.49999   0.82681   0.00000  Uiso   1.00
O1376  O     0.46177   0.43893   0.75000   0.00000  Uiso   1.00
O1377  O     0.53821   0.43892   0.74999   0.00000  Uiso   1.00
O1378  O     0.48076   0.50001   0.67319   0.00000  Uiso   1.00
O1379  O     0.55720   0.50000   0.67319   0.00000  Uiso   1.00
Zn1380 Zn    0.44896   0.50001   0.75000   0.00000  Uiso   1.00
Zn1381 Zn    0.55104   0.49999   0.75000   0.00000  Uiso   1.00
O1382  O     0.61897   0.47569   0.58333   0.00000  Uiso   1.00
C1383  C     0.63485   0.51562   0.59207   0.00000  Uiso   1.00
H1384  H     0.64967   0.51538   0.62493   0.00000  Uiso   1.00
H1385  H     0.60782   0.54134   0.60089   0.00000  Uiso   1.00
H1386  H     0.66246   0.52216   0.55759   0.00000  Uiso   1.00
C1387  C     0.41221   0.37182   0.78970   0.00000  Uiso   1.00
O1388  O     0.41089   0.39623   0.82700   0.00000  Uiso   1.00
O1389  O     0.37073   0.36095   0.78085   0.00000  Uiso   1.00
H1390  H     0.34250   0.37485   0.80755   0.00000  Uiso   1.00
C1391  C     0.43534   0.62734   0.70196   0.00000  Uiso   1.00
O1392  O     0.39816   0.64329   0.70309   0.00000  Uiso   1.00
O1393  O     0.45375   0.59322   0.66595   0.00000  Uiso   1.00
H1394  H     0.43176   0.58315   0.64631   0.00000  Uiso   1.00
C1395  C     0.63649   0.43206   0.69592   0.00000  Uiso   1.00
O1396  O     0.61218   0.43732   0.66814   0.00000  Uiso   1.00
O1397  O     0.65233   0.39173   0.69963   0.00000  Uiso   1.00
H1398  H     0.64425   0.37032   0.67459   0.00000  Uiso   1.00
C1399  C     0.40045   0.44068   0.68505   0.00000  Uiso   1.00
O1400  O     0.42439   0.45417   0.64571   0.00000  Uiso   1.00
O1401  O     0.40581   0.39891   0.69270   0.00000  Uiso   1.00
H1402  H     0.43091   0.38346   0.66323   0.00000  Uiso   1.00
C1403  C     0.36220   0.57234   0.79615   0.00000  Uiso   1.00
O1404  O     0.39250   0.57282   0.81671   0.00000  Uiso   1.00
O1405  O     0.33749   0.60955   0.79712   0.00000  Uiso   1.00
H1406  H     0.34364   0.63198   0.82223   0.00000  Uiso   1.00
O1407  O     0.60223   0.56284   0.80268   0.00000  Uiso   1.00
C1408  C     0.58956   0.55910   0.85664   0.00000  Uiso   1.00
H1409  H     0.57612   0.52816   0.86653   0.00000  Uiso   1.00
H1410  H     0.56137   0.58267   0.87607   0.00000  Uiso   1.00
H1411  H     0.61864   0.56528   0.87288   0.00000  Uiso   1.00
O1412  O     0.60565   0.43232   0.90689   0.00000  Uiso   1.00
C1413  C     0.63153   0.45521   0.86649   0.00000  Uiso   1.00
H1414  H     0.63547   0.48784   0.88016   0.00000  Uiso   1.00
H1415  H     0.61617   0.45487   0.83405   0.00000  Uiso   1.00
H1416  H     0.33352   0.44086   0.85120   0.00000  Uiso   1.00
C1417  C     0.63265   0.49439   0.97920   0.00000  Uiso   1.00
O1418  O     0.33809   0.47786   0.96482   0.00000  Uiso   1.00
O1419  O     0.62463   0.53660   0.97461   0.00000  Uiso   1.00
H1420  H     0.64986   0.55453   0.98015   0.00000  Uiso   1.00
C1421  C     0.39727   0.55636   0.91381   0.00000  Uiso   1.00
O1422  O     0.37014   0.53736   0.89612   0.00000  Uiso   1.00
O1423  O     0.39660   0.59994   0.91750   0.00000  Uiso   1.00
H1424  H     0.37112   0.61275   0.90548   0.00000  Uiso   1.00
O1425  O     0.40857   0.49866   0.56320   0.00000  Uiso   1.00
C1426  C     0.39774   0.45672   0.55415   0.00000  Uiso   1.00
H1427  H     0.42834   0.43523   0.54851   0.00000  Uiso   1.00
H1428  H     0.38426   0.45196   0.52025   0.00000  Uiso   1.00
H1429  H     0.37026   0.44800   0.58844   0.00000  Uiso   1.00
O1430  O     0.38177   0.57018   0.51796   0.00000  Uiso   1.00
C1431  C     0.39335   0.59142   0.55968   0.00000  Uiso   1.00
H1432  H     0.43073   0.59808   0.54974   0.00000  Uiso   1.00
H1433  H     0.38276   0.57366   0.59449   0.00000  Uiso   1.00
H1434  H     0.37357   0.62180   0.56971   0.00000  Uiso   1.00
C1435  C     0.52287   0.42099   0.87407   0.00000  Uiso   1.00
O1436  O     0.55684   0.40273   0.84334   0.00000  Uiso   1.00
O1437  O     0.47903   0.40630   0.87831   0.00000  Uiso   1.00
H1438  H     0.48055   0.37845   0.85768   0.00000  Uiso   1.00
C1439  C     0.59206   0.62484   0.71822   0.00000  Uiso   1.00
O1440  O     0.62034   0.63887   0.73844   0.00000  Uiso   1.00
O1441  O     0.60533   0.59213   0.67930   0.00000  Uiso   1.00
H1442  H     0.63872   0.58230   0.67267   0.00000  Uiso   1.00
C1443  C     0.83468   0.57928   0.74454   0.00000  Uiso   1.00
C1444  C     0.81185   0.49269   0.98976   0.00000  Uiso   1.00
C1445  C     0.82242   0.48366   0.93561   0.00000  Uiso   1.00
C1446  C     0.84545   0.48501   0.51493   0.00000  Uiso   1.00
C1447  C     0.88998   0.46973   0.98505   0.00000  Uiso   1.00
C1448  C     0.89788   0.45445   0.93272   0.00000  Uiso   1.00
C1449  C     0.86088   0.45596   0.91095   0.00000  Uiso   1.00
C1450  C     0.83782   0.49754   0.56766   0.00000  Uiso   1.00
C1451  C     0.91674   0.47896   0.56141   0.00000  Uiso   1.00
C1452  C     0.79447   0.50310   0.90880   0.00000  Uiso   1.00
C1453  C     0.87811   0.64456   0.73274   0.00000  Uiso   1.00
C1454  C     0.80818   0.50007   0.85115   0.00000  Uiso   1.00
C1455  C     0.87472   0.35393   0.74053   0.00000  Uiso   1.00
C1456  C     0.83233   0.37531   0.75183   0.00000  Uiso   1.00
C1457  C     0.79136   0.35374   0.75536   0.00000  Uiso   1.00
C1458  C     0.79669   0.64521   0.73516   0.00000  Uiso   1.00
C1459  C     0.83739   0.62309   0.73482   0.00000  Uiso   1.00
C1460  C     0.98425   0.46807   0.72395   0.00000  Uiso   1.00
C1461  C     0.69881   0.46883   0.72303   0.00000  Uiso   1.00
C1462  C     0.68210   0.53270   0.77439   0.00000  Uiso   1.00
C1463  C     0.96733   0.53106   0.77681   0.00000  Uiso   1.00
C1464  C     0.83280   0.42019   0.75213   0.00000  Uiso   1.00
C1465  C     0.85855   0.49831   0.64898   0.00000  Uiso   1.00
C1466  C     0.92638   0.47237   0.50737   0.00000  Uiso   1.00
C1467  C     0.87177   0.49147   0.59198   0.00000  Uiso   1.00
C1468  C     0.75958   0.53319   0.93760   0.00000  Uiso   1.00
C1469  C     0.74889   0.53980   0.99152   0.00000  Uiso   1.00
C1470  C     0.76856   0.51192   0.51674   0.00000  Uiso   1.00
H1471  H     0.90556   0.37065   0.73812   0.00000  Uiso   1.00
H1472  H     0.80563   0.51286   0.59064   0.00000  Uiso   1.00
N1473  N     0.71426   0.50001   0.75002   0.00000  Uiso   1.00
N1474  N     0.95239   0.49998   0.75001   0.00000  Uiso   1.00
O1475  O     0.79512   0.56108   0.75001   0.00000  Uiso   1.00
O1476  O     0.87157   0.56107   0.75001   0.00000  Uiso   1.00
O1477  O     0.77613   0.50000   0.82681   0.00000  Uiso   1.00
O1478  O     0.85258   0.49999   0.82681   0.00000  Uiso   1.00
O1479  O     0.79510   0.43893   0.75000   0.00000  Uiso   1.00
O1480  O     0.87154   0.43892   0.74999   0.00000  Uiso   1.00
O1481  O     0.81409   0.50001   0.67319   0.00000  Uiso   1.00
O1482  O     0.89053   0.50000   0.67319   0.00000  Uiso   1.00
Zn1483 Zn    0.78229   0.50001   0.75000   0.00000  Uiso   1.00
Zn1484 Zn    0.88438   0.49999   0.75000   0.00000  Uiso   1.00
O1485  O     0.95230   0.47569   0.58333   0.00000  Uiso   1.00
C1486  C     0.96818   0.51562   0.59207   0.00000  Uiso   1.00
H1487  H     0.98301   0.51538   0.62493   0.00000  Uiso   1.00
H1488  H     0.94115   0.54134   0.60089   0.00000  Uiso   1.00
H1489  H     0.99579   0.52216   0.55759   0.00000  Uiso   1.00
C1490  C     0.74555   0.37182   0.78970   0.00000  Uiso   1.00
O1491  O     0.74422   0.39623   0.82700   0.00000  Uiso   1.00
O1492  O     0.70407   0.36095   0.78085   0.00000  Uiso   1.00
H1493  H     0.67584   0.37485   0.80755   0.00000  Uiso   1.00
C1494  C     0.76867   0.62734   0.70196   0.00000  Uiso   1.00
O1495  O     0.73149   0.64329   0.70309   0.00000  Uiso   1.00
O1496  O     0.78708   0.59322   0.66595   0.00000  Uiso   1.00
H1497  H     0.76509   0.58315   0.64631   0.00000  Uiso   1.00
C1498  C     0.96983   0.43206   0.69592   0.00000  Uiso   1.00
O1499  O     0.94551   0.43732   0.66814   0.00000  Uiso   1.00
O1500  O     0.98566   0.39173   0.69963   0.00000  Uiso   1.00
H1501  H     0.97758   0.37032   0.67459   0.00000  Uiso   1.00
C1502  C     0.73378   0.44068   0.68505   0.00000  Uiso   1.00
O1503  O     0.75773   0.45417   0.64571   0.00000  Uiso   1.00
O1504  O     0.73915   0.39891   0.69270   0.00000  Uiso   1.00
H1505  H     0.76424   0.38346   0.66323   0.00000  Uiso   1.00
C1506  C     0.69554   0.57234   0.79615   0.00000  Uiso   1.00
O1507  O     0.72583   0.57282   0.81671   0.00000  Uiso   1.00
O1508  O     0.67082   0.60955   0.79712   0.00000  Uiso   1.00
H1509  H     0.67697   0.63198   0.82223   0.00000  Uiso   1.00
O1510  O     0.93556   0.56284   0.80268   0.00000  Uiso   1.00
C1511  C     0.92289   0.55910   0.85664   0.00000  Uiso   1.00
H1512  H     0.90945   0.52816   0.86653   0.00000  Uiso   1.00
H1513  H     0.89470   0.58267   0.87607   0.00000  Uiso   1.00
H1514  H     0.95197   0.56528   0.87288   0.00000  Uiso   1.00
O1515  O     0.93899   0.43232   0.90689   0.00000  Uiso   1.00
C1516  C     0.96486   0.45521   0.86649   0.00000  Uiso   1.00
H1517  H     0.96880   0.48784   0.88016   0.00000  Uiso   1.00
H1518  H     0.94951   0.45487   0.83405   0.00000  Uiso   1.00
H1519  H     0.66686   0.44086   0.85120   0.00000  Uiso   1.00
C1520  C     0.96598   0.49439   0.97920   0.00000  Uiso   1.00
O1521  O     0.67142   0.47786   0.96482   0.00000  Uiso   1.00
O1522  O     0.95797   0.53660   0.97461   0.00000  Uiso   1.00
H1523  H     0.98319   0.55453   0.98015   0.00000  Uiso   1.00
C1524  C     0.73060   0.55636   0.91381   0.00000  Uiso   1.00
O1525  O     0.70347   0.53736   0.89612   0.00000  Uiso   1.00
O1526  O     0.72993   0.59994   0.91750   0.00000  Uiso   1.00
H1527  H     0.70446   0.61275   0.90548   0.00000  Uiso   1.00
O1528  O     0.74191   0.49866   0.56320   0.00000  Uiso   1.00
C1529  C     0.73108   0.45672   0.55415   0.00000  Uiso   1.00
H1530  H     0.76168   0.43523   0.54851   0.00000  Uiso   1.00
H1531  H     0.71759   0.45196   0.52025   0.00000  Uiso   1.00
H1532  H     0.70359   0.44800   0.58844   0.00000  Uiso   1.00
O1533  O     0.71510   0.57018   0.51796   0.00000  Uiso   1.00
C1534  C     0.72668   0.59142   0.55968   0.00000  Uiso   1.00
H1535  H     0.76407   0.59808   0.54974   0.00000  Uiso   1.00
H1536  H     0.71609   0.57366   0.59449   0.00000  Uiso   1.00
H1537  H     0.70690   0.62180   0.56971   0.00000  Uiso   1.00
C1538  C     0.85620   0.42099   0.87407   0.00000  Uiso   1.00
O1539  O     0.89017   0.40273   0.84334   0.00000  Uiso   1.00
O1540  O     0.81236   0.40630   0.87831   0.00000  Uiso   1.00
H1541  H     0.81388   0.37845   0.85768   0.00000  Uiso   1.00
C1542  C     0.92539   0.62484   0.71822   0.00000  Uiso   1.00
O1543  O     0.95367   0.63887   0.73844   0.00000  Uiso   1.00
O1544  O     0.93866   0.59213   0.67930   0.00000  Uiso   1.00
H1545  H     0.97205   0.58230   0.67267   0.00000  Uiso   1.00
C1546  C     0.16802   0.91261   0.74454   0.00000  Uiso   1.00
C1547  C     0.14518   0.82602   0.98976   0.00000  Uiso   1.00
C1548  C     0.15576   0.81699   0.93561   0.00000  Uiso   1.00
C1549  C     0.17879   0.81834   0.51493   0.00000  Uiso   1.00
C1550  C     0.22331   0.80307   0.98505   0.00000  Uiso   1.00
C1551  C     0.23121   0.78778   0.93272   0.00000  Uiso   1.00
C1552  C     0.19422   0.78929   0.91095   0.00000  Uiso   1.00
C1553  C     0.17115   0.83087   0.56766   0.00000  Uiso   1.00
C1554  C     0.25008   0.81230   0.56141   0.00000  Uiso   1.00
C1555  C     0.12780   0.83644   0.90880   0.00000  Uiso   1.00
C1556  C     0.21145   0.97789   0.73274   0.00000  Uiso   1.00
C1557  C     0.14151   0.83341   0.85115   0.00000  Uiso   1.00
C1558  C     0.20805   0.68726   0.74053   0.00000  Uiso   1.00
C1559  C     0.16567   0.70865   0.75183   0.00000  Uiso   1.00
C1560  C     0.12469   0.68708   0.75536   0.00000  Uiso   1.00
C1561  C     0.13002   0.97854   0.73516   0.00000  Uiso   1.00
C1562  C     0.17073   0.95643   0.73482   0.00000  Uiso   1.00
C1563  C     0.31758   0.80141   0.72395   0.00000  Uiso   1.00
C1564  C     0.03214   0.80217   0.72303   0.00000  Uiso   1.00
C1565  C     0.01543   0.86603   0.77439   0.00000  Uiso   1.00
C1566  C     0.30066   0.86439   0.77681   0.00000  Uiso   1.00
C1567  C     0.16613   0.75352   0.75213   0.00000  Uiso   1.00
C1568  C     0.19188   0.83164   0.64898   0.00000  Uiso   1.00
C1569  C     0.25971   0.80570   0.50737   0.00000  Uiso   1.00
C1570  C     0.20511   0.82480   0.59198   0.00000  Uiso   1.00
C1571  C     0.09291   0.86653   0.93760   0.00000  Uiso   1.00
C1572  C     0.08223   0.87314   0.99152   0.00000  Uiso   1.00
C1573  C     0.10189   0.84525   0.51674   0.00000  Uiso   1.00
H1574  H     0.23889   0.70398   0.73812   0.00000  Uiso   1.00
H1575  H     0.13896   0.84619   0.59064   0.00000  Uiso   1.00
N1576  N     0.04760   0.83334   0.75002   0.00000  Uiso   1.00
N1577  N     0.28573   0.83331   0.75001   0.00000  Uiso   1.00
O1578  O     0.12846   0.89442   0.75001   0.00000  Uiso   1.00
O1579  O     0.20490   0.89441   0.75001   0.00000  Uiso   1.00
O1580  O     0.10947   0.83333   0.82681   0.00000  Uiso   1.00
O1581  O     0.18591   0.83332   0.82681   0.00000  Uiso   1.00
O1582  O     0.12843   0.77226   0.75000   0.00000  Uiso   1.00
O1583  O     0.20488   0.77225   0.74999   0.00000  Uiso   1.00
O1584  O     0.14742   0.83335   0.67319   0.00000  Uiso   1.00
O1585  O     0.22387   0.83334   0.67319   0.00000  Uiso   1.00
Zn1586 Zn    0.11562   0.83334   0.75000   0.00000  Uiso   1.00
Zn1587 Zn    0.21771   0.83333   0.75000   0.00000  Uiso   1.00
O1588  O     0.28563   0.80903   0.58333   0.00000  Uiso   1.00
C1589  C     0.30151   0.84896   0.59207   0.00000  Uiso   1.00
H1590  H     0.31634   0.84871   0.62493   0.00000  Uiso   1.00
H1591  H     0.27449   0.87468   0.60089   0.00000  Uiso   1.00
H1592  H     0.32913   0.85550   0.55759   0.00000  Uiso   1.00
C1593  C     0.07888   0.70515   0.78970   0.00000  Uiso   1.00
O1594  O     0.07755   0.72957   0.82700   0.00000  Uiso   1.00
O1595  O     0.03740   0.69428   0.78085   0.00000  Uiso   1.00
H1596  H     0.00917   0.70819   0.80755   0.00000  Uiso   1.00
C1597  C     0.10201   0.96067   0.70196   0.00000  Uiso   1.00
O1598  O     0.06482   0.97662   0.70309   0.00000  Uiso   1.00
O1599  O     0.12042   0.92655   0.66595   0.00000  Uiso   1.00
H1600  H     0.09843   0.91648   0.64631   0.00000  Uiso   1.00
C1601  C     0.30316   0.76539   0.69592   0.00000  Uiso   1.00
O1602  O     0.27885   0.77065   0.66814   0.00000  Uiso   1.00
O1603  O     0.31900   0.72506   0.69963   0.00000  Uiso   1.00
H1604  H     0.31092   0.70366   0.67459   0.00000  Uiso   1.00
C1605  C     0.06712   0.77401   0.68505   0.00000  Uiso   1.00
O1606  O     0.09106   0.78751   0.64571   0.00000  Uiso   1.00
O1607  O     0.07248   0.73225   0.69270   0.00000  Uiso   1.00
H1608  H     0.09758   0.71680   0.66323   0.00000  Uiso   1.00
C1609  C     0.02887   0.90568   0.79615   0.00000  Uiso   1.00
O1610  O     0.05917   0.90616   0.81671   0.00000  Uiso   1.00
O1611  O     0.00415   0.94288   0.79712   0.00000  Uiso   1.00
H1612  H     0.01030   0.96531   0.82223   0.00000  Uiso   1.00
O1613  O     0.26890   0.89617   0.80268   0.00000  Uiso   1.00
C1614  C     0.25622   0.89244   0.85664   0.00000  Uiso   1.00
H1615  H     0.24279   0.86150   0.86653   0.00000  Uiso   1.00
H1616  H     0.22804   0.91600   0.87607   0.00000  Uiso   1.00
H1617  H     0.28530   0.89861   0.87288   0.00000  Uiso   1.00
O1618  O     0.27232   0.76565   0.90689   0.00000  Uiso   1.00
C1619  C     0.29819   0.78854   0.86649   0.00000  Uiso   1.00
H1620  H     0.30214   0.82118   0.88016   0.00000  Uiso   1.00
H1621  H     0.28284   0.78820   0.83405   0.00000  Uiso   1.00
H1622  H     0.00019   0.77419   0.85120   0.00000  Uiso   1.00
C1623  C     0.29932   0.82772   0.97920   0.00000  Uiso   1.00
O1624  O     0.00476   0.81119   0.96482   0.00000  Uiso   1.00
O1625  O     0.29130   0.86994   0.97461   0.00000  Uiso   1.00
H1626  H     0.31653   0.88787   0.98015   0.00000  Uiso   1.00
C1627  C     0.06393   0.88969   0.91381   0.00000  Uiso   1.00
O1628  O     0.03681   0.87069   0.89612   0.00000  Uiso   1.00
O1629  O     0.06326   0.93327   0.91750   0.00000  Uiso   1.00
H1630  H     0.03779   0.94609   0.90548   0.00000  Uiso   1.00
O1631  O     0.07524   0.83199   0.56320   0.00000  Uiso   1.00
C1632  C     0.06441   0.79005   0.55415   0.00000  Uiso   1.00
H1633  H     0.09501   0.76856   0.54851   0.00000  Uiso   1.00
H1634  H     0.05093   0.78529   0.52025   0.00000  Uiso   1.00
H1635  H     0.03692   0.78133   0.58844   0.00000  Uiso   1.00
O1636  O     0.04844   0.90352   0.51796   0.00000  Uiso   1.00
C1637  C     0.06002   0.92475   0.55968   0.00000  Uiso   1.00
H1638  H     0.09740   0.93142   0.54974   0.00000  Uiso   1.00
H1639  H     0.04942   0.90699   0.59449   0.00000  Uiso   1.00
H1640  H     0.04023   0.95513   0.56971   0.00000  Uiso   1.00
C1641  C     0.18953   0.75432   0.87407   0.00000  Uiso   1.00
O1642  O     0.22351   0.73606   0.84334   0.00000  Uiso   1.00
O1643  O     0.14570   0.73963   0.87831   0.00000  Uiso   1.00
H1644  H     0.14722   0.71178   0.85768   0.00000  Uiso   1.00
C1645  C     0.25873   0.95817   0.71822   0.00000  Uiso   1.00
O1646  O     0.28701   0.97220   0.73844   0.00000  Uiso   1.00
O1647  O     0.27199   0.92546   0.67930   0.00000  Uiso   1.00
H1648  H     0.30539   0.91563   0.67267   0.00000  Uiso   1.00
C1649  C     0.50135   0.91261   0.74454   0.00000  Uiso   1.00
C1650  C     0.47851   0.82602   0.98976   0.00000  Uiso   1.00
C1651  C     0.48909   0.81699   0.93561   0.00000  Uiso   1.00
C1652  C     0.51212   0.81834   0.51493   0.00000  Uiso   1.00
C1653  C     0.55664   0.80307   0.98505   0.00000  Uiso   1.00
C1654  C     0.56455   0.78778   0.93272   0.00000  Uiso   1.00
C1655  C     0.52755   0.78929   0.91095   0.00000  Uiso   1.00
C1656  C     0.50448   0.83087   0.56766   0.00000  Uiso   1.00
C1657  C     0.58341   0.81230   0.56141   0.00000  Uiso   1.00
C1658  C     0.46114   0.83644   0.90880   0.00000  Uiso   1.00
C1659  C     0.54478   0.97789   0.73274   0.00000  Uiso   1.00
C1660  C     0.47484   0.83341   0.85115   0.00000  Uiso   1.00
C1661  C     0.54139   0.68726   0.74053   0.00000  Uiso   1.00
C1662  C     0.49900   0.70865   0.75183   0.00000  Uiso   1.00
C1663  C     0.45803   0.68708   0.75536   0.00000  Uiso   1.00
C1664  C     0.46335   0.97854   0.73516   0.00000  Uiso   1.00
C1665  C     0.50406   0.95643   0.73482   0.00000  Uiso   1.00
C1666  C     0.65092   0.80141   0.72395   0.00000  Uiso   1.00
C1667  C     0.36547   0.80217   0.72303   0.00000  Uiso   1.00
C1668  C     0.34876   0.86603   0.77439   0.00000  Uiso   1.00
C1669  C     0.63399   0.86439   0.77681   0.00000  Uiso   1.00
C1670  C     0.49947   0.75352   0.75213   0.00000  Uiso   1.00
C1671  C     0.52521   0.83164   0.64898   0.00000  Uiso   1.00
C1672  C     0.59304   0.80570   0.50737   0.00000  Uiso   1.00
C1673  C     0.53844   0.82480   0.59198   0.00000  Uiso   1.00
C1674  C     0.42624   0.86653   0.93760   0.00000  Uiso   1.00
C1675  C     0.41556   0.87314   0.99152   0.00000  Uiso   1.00
C1676  C     0.43523   0.84525   0.51674   0.00000  Uiso   1.00
H1677  H     0.57223   0.70398   0.73812   0.00000  Uiso   1.00
H1678  H     0.47229   0.84619   0.59064   0.00000  Uiso   1.00
N1679  N     0.38093   0.83334   0.75002   0.00000  Uiso   1.00
N1680  N     0.61906   0.83331   0.75001   0.00000  Uiso   1.00
O1681  O     0.46179   0.89442   0.75001   0.00000  Uiso   1.00
O1682  O     0.53823   0.89441   0.75001   0.00000  Uiso   1.00
O1683  O     0.44280   0.83333   0.82681   0.00000  Uiso   1.00
O1684  O     0.51924   0.83332   0.82681   0.00000  Uiso   1.00
O1685  O     0.46177   0.77226   0.75000   0.00000  Uiso   1.00
O1686  O     0.53821   0.77225   0.74999   0.00000  Uiso   1.00
O1687  O     0.48076   0.83335   0.67319   0.00000  Uiso   1.00
O1688  O     0.55720   0.83334   0.67319   0.00000  Uiso   1.00
Zn1689 Zn    0.44896   0.83334   0.75000   0.00000  Uiso   1.00
Zn1690 Zn    0.55104   0.83333   0.75000   0.00000  Uiso   1.00
O1691  O     0.61897   0.80903   0.58333   0.00000  Uiso   1.00
C1692  C     0.63485   0.84896   0.59207   0.00000  Uiso   1.00
H1693  H     0.64967   0.84871   0.62493   0.00000  Uiso   1.00
H1694  H     0.60782   0.87468   0.60089   0.00000  Uiso   1.00
H1695  H     0.66246   0.85550   0.55759   0.00000  Uiso   1.00
C1696  C     0.41221   0.70515   0.78970   0.00000  Uiso   1.00
O1697  O     0.41089   0.72957   0.82700   0.00000  Uiso   1.00
O1698  O     0.37073   0.69428   0.78085   0.00000  Uiso   1.00
H1699  H     0.34250   0.70819   0.80755   0.00000  Uiso   1.00
C1700  C     0.43534   0.96067   0.70196   0.00000  Uiso   1.00
O1701  O     0.39816   0.97662   0.70309   0.00000  Uiso   1.00
O1702  O     0.45375   0.92655   0.66595   0.00000  Uiso   1.00
H1703  H     0.43176   0.91648   0.64631   0.00000  Uiso   1.00
C1704  C     0.63649   0.76539   0.69592   0.00000  Uiso   1.00
O1705  O     0.61218   0.77065   0.66814   0.00000  Uiso   1.00
O1706  O     0.65233   0.72506   0.69963   0.00000  Uiso   1.00
H1707  H     0.64425   0.70366   0.67459   0.00000  Uiso   1.00
C1708  C     0.40045   0.77401   0.68505   0.00000  Uiso   1.00
O1709  O     0.42439   0.78751   0.64571   0.00000  Uiso   1.00
O1710  O     0.40581   0.73225   0.69270   0.00000  Uiso   1.00
H1711  H     0.43091   0.71680   0.66323   0.00000  Uiso   1.00
C1712  C     0.36220   0.90568   0.79615   0.00000  Uiso   1.00
O1713  O     0.39250   0.90616   0.81671   0.00000  Uiso   1.00
O1714  O     0.33749   0.94288   0.79712   0.00000  Uiso   1.00
H1715  H     0.34364   0.96531   0.82223   0.00000  Uiso   1.00
O1716  O     0.60223   0.89617   0.80268   0.00000  Uiso   1.00
C1717  C     0.58956   0.89244   0.85664   0.00000  Uiso   1.00
H1718  H     0.57612   0.86150   0.86653   0.00000  Uiso   1.00
H1719  H     0.56137   0.91600   0.87607   0.00000  Uiso   1.00
H1720  H     0.61864   0.89861   0.87288   0.00000  Uiso   1.00
O1721  O     0.60565   0.76565   0.90689   0.00000  Uiso   1.00
C1722  C     0.63153   0.78854   0.86649   0.00000  Uiso   1.00
H1723  H     0.63547   0.82118   0.88016   0.00000  Uiso   1.00
H1724  H     0.61617   0.78820   0.83405   0.00000  Uiso   1.00
H1725  H     0.33352   0.77419   0.85120   0.00000  Uiso   1.00
C1726  C     0.63265   0.82772   0.97920   0.00000  Uiso   1.00
O1727  O     0.33809   0.81119   0.96482   0.00000  Uiso   1.00
O1728  O     0.62463   0.86994   0.97461   0.00000  Uiso   1.00
H1729  H     0.64986   0.88787   0.98015   0.00000  Uiso   1.00
C1730  C     0.39727   0.88969   0.91381   0.00000  Uiso   1.00
O1731  O     0.37014   0.87069   0.89612   0.00000  Uiso   1.00
O1732  O     0.39660   0.93327   0.91750   0.00000  Uiso   1.00
H1733  H     0.37112   0.94609   0.90548   0.00000  Uiso   1.00
O1734  O     0.40857   0.83199   0.56320   0.00000  Uiso   1.00
C1735  C     0.39774   0.79005   0.55415   0.00000  Uiso   1.00
H1736  H     0.42834   0.76856   0.54851   0.00000  Uiso   1.00
H1737  H     0.38426   0.78529   0.52025   0.00000  Uiso   1.00
H1738  H     0.37026   0.78133   0.58844   0.00000  Uiso   1.00
O1739  O     0.38177   0.90352   0.51796   0.00000  Uiso   1.00
C1740  C     0.39335   0.92475   0.55968   0.00000  Uiso   1.00
H1741  H     0.43073   0.93142   0.54974   0.00000  Uiso   1.00
H1742  H     0.38276   0.90699   0.59449   0.00000  Uiso   1.00
H1743  H     0.37357   0.95513   0.56971   0.00000  Uiso   1.00
C1744  C     0.52287   0.75432   0.87407   0.00000  Uiso   1.00
O1745  O     0.55684   0.73606   0.84334   0.00000  Uiso   1.00
O1746  O     0.47903   0.73963   0.87831   0.00000  Uiso   1.00
H1747  H     0.48055   0.71178   0.85768   0.00000  Uiso   1.00
C1748  C     0.59206   0.95817   0.71822   0.00000  Uiso   1.00
O1749  O     0.62034   0.97220   0.73844   0.00000  Uiso   1.00
O1750  O     0.60533   0.92546   0.67930   0.00000  Uiso   1.00
H1751  H     0.63872   0.91563   0.67267   0.00000  Uiso   1.00
C1752  C     0.83468   0.91261   0.74454   0.00000  Uiso   1.00
C1753  C     0.81185   0.82602   0.98976   0.00000  Uiso   1.00
C1754  C     0.82242   0.81699   0.93561   0.00000  Uiso   1.00
C1755  C     0.84545   0.81834   0.51493   0.00000  Uiso   1.00
C1756  C     0.88998   0.80307   0.98505   0.00000  Uiso   1.00
C1757  C     0.89788   0.78778   0.93272   0.00000  Uiso   1.00
C1758  C     0.86088   0.78929   0.91095   0.00000  Uiso   1.00
C1759  C     0.83782   0.83087   0.56766   0.00000  Uiso   1.00
C1760  C     0.91674   0.81230   0.56141   0.00000  Uiso   1.00
C1761  C     0.79447   0.83644   0.90880   0.00000  Uiso   1.00
C1762  C     0.87811   0.97789   0.73274   0.00000  Uiso   1.00
C1763  C     0.80818   0.83341   0.85115   0.00000  Uiso   1.00
C1764  C     0.87472   0.68726   0.74053   0.00000  Uiso   1.00
C1765  C     0.83233   0.70865   0.75183   0.00000  Uiso   1.00
C1766  C     0.79136   0.68708   0.75536   0.00000  Uiso   1.00
C1767  C     0.79669   0.97854   0.73516   0.00000  Uiso   1.00
C1768  C     0.83739   0.95643   0.73482   0.00000  Uiso   1.00
C1769  C     0.98425   0.80141   0.72395   0.00000  Uiso   1.00
C1770  C     0.69881   0.80217   0.72303   0.00000  Uiso   1.00
C1771  C     0.68210   0.86603   0.77439   0.00000  Uiso   1.00
C1772  C     0.96733   0.86439   0.77681   0.00000  Uiso   1.00
C1773  C     0.83280   0.75352   0.75213   0.00000  Uiso   1.00
C1774  C     0.85855   0.83164   0.64898   0.00000  Uiso   1.00
C1775  C     0.92638   0.80570   0.50737   0.00000  Uiso   1.00
C1776  C     0.87177   0.82480   0.59198   0.00000  Uiso   1.00
C1777  C     0.75958   0.86653   0.93760   0.00000  Uiso   1.00
C1778  C     0.74889   0.87314   0.99152   0.00000  Uiso   1.00
C1779  C     0.76856   0.84525   0.51674   0.00000  Uiso   1.00
H1780  H     0.90556   0.70398   0.73812   0.00000  Uiso   1.00
H1781  H     0.80563   0.84619   0.59064   0.00000  Uiso   1.00
N1782  N     0.71426   0.83334   0.75002   0.00000  Uiso   1.00
N1783  N     0.95239   0.83331   0.75001   0.00000  Uiso   1.00
O1784  O     0.79512   0.89442   0.75001   0.00000  Uiso   1.00
O1785  O     0.87157   0.89441   0.75001   0.00000  Uiso   1.00
O1786  O     0.77613   0.83333   0.82681   0.00000  Uiso   1.00
O1787  O     0.85258   0.83332   0.82681   0.00000  Uiso   1.00
O1788  O     0.79510   0.77226   0.75000   0.00000  Uiso   1.00
O1789  O     0.87154   0.77225   0.74999   0.00000  Uiso   1.00
O1790  O     0.81409   0.83335   0.67319   0.00000  Uiso   1.00
O1791  O     0.89053   0.83334   0.67319   0.00000  Uiso   1.00
Zn1792 Zn    0.78229   0.83334   0.75000   0.00000  Uiso   1.00
Zn1793 Zn    0.88438   0.83333   0.75000   0.00000  Uiso   1.00
O1794  O     0.95230   0.80903   0.58333   0.00000  Uiso   1.00
C1795  C     0.96818   0.84896   0.59207   0.00000  Uiso   1.00
H1796  H     0.98301   0.84871   0.62493   0.00000  Uiso   1.00
H1797  H     0.94115   0.87468   0.60089   0.00000  Uiso   1.00
H1798  H     0.99579   0.85550   0.55759   0.00000  Uiso   1.00
C1799  C     0.74555   0.70515   0.78970   0.00000  Uiso   1.00
O1800  O     0.74422   0.72957   0.82700   0.00000  Uiso   1.00
O1801  O     0.70407   0.69428   0.78085   0.00000  Uiso   1.00
H1802  H     0.67584   0.70819   0.80755   0.00000  Uiso   1.00
C1803  C     0.76867   0.96067   0.70196   0.00000  Uiso   1.00
O1804  O     0.73149   0.97662   0.70309   0.00000  Uiso   1.00
O1805  O     0.78708   0.92655   0.66595   0.00000  Uiso   1.00
H1806  H     0.76509   0.91648   0.64631   0.00000  Uiso   1.00
C1807  C     0.96983   0.76539   0.69592   0.00000  Uiso   1.00
O1808  O     0.94551   0.77065   0.66814   0.00000  Uiso   1.00
O1809  O     0.98566   0.72506   0.69963   0.00000  Uiso   1.00
H1810  H     0.97758   0.70366   0.67459   0.00000  Uiso   1.00
C1811  C     0.73378   0.77401   0.68505   0.00000  Uiso   1.00
O1812  O     0.75773   0.78751   0.64571   0.00000  Uiso   1.00
O1813  O     0.73915   0.73225   0.69270   0.00000  Uiso   1.00
H1814  H     0.76424   0.71680   0.66323   0.00000  Uiso   1.00
C1815  C     0.69554   0.90568   0.79615   0.00000  Uiso   1.00
O1816  O     0.72583   0.90616   0.81671   0.00000  Uiso   1.00
O1817  O     0.67082   0.94288   0.79712   0.00000  Uiso   1.00
H1818  H     0.67697   0.96531   0.82223   0.00000  Uiso   1.00
O1819  O     0.93556   0.89617   0.80268   0.00000  Uiso   1.00
C1820  C     0.92289   0.89244   0.85664   0.00000  Uiso   1.00
H1821  H     0.90945   0.86150   0.86653   0.00000  Uiso   1.00
H1822  H     0.89470   0.91600   0.87607   0.00000  Uiso   1.00
H1823  H     0.95197   0.89861   0.87288   0.00000  Uiso   1.00
O1824  O     0.93899   0.76565   0.90689   0.00000  Uiso   1.00
C1825  C     0.96486   0.78854   0.86649   0.00000  Uiso   1.00
H1826  H     0.96880   0.82118   0.88016   0.00000  Uiso   1.00
H1827  H     0.94951   0.78820   0.83405   0.00000  Uiso   1.00
H1828  H     0.66686   0.77419   0.85120   0.00000  Uiso   1.00
C1829  C     0.96598   0.82772   0.97920   0.00000  Uiso   1.00
O1830  O     0.67142   0.81119   0.96482   0.00000  Uiso   1.00
O1831  O     0.95797   0.86994   0.97461   0.00000  Uiso   1.00
H1832  H     0.98319   0.88787   0.98015   0.00000  Uiso   1.00
C1833  C     0.73060   0.88969   0.91381   0.00000  Uiso   1.00
O1834  O     0.70347   0.87069   0.89612   0.00000  Uiso   1.00
O1835  O     0.72993   0.93327   0.91750   0.00000  Uiso   1.00
H1836  H     0.70446   0.94609   0.90548   0.00000  Uiso   1.00
O1837  O     0.74191   0.83199   0.56320   0.00000  Uiso   1.00
C1838  C     0.73108   0.79005   0.55415   0.00000  Uiso   1.00
H1839  H     0.76168   0.76856   0.54851   0.00000  Uiso   1.00
H1840  H     0.71759   0.78529   0.52025   0.00000  Uiso   1.00
H1841  H     0.70359   0.78133   0.58844   0.00000  Uiso   1.00
O1842  O     0.71510   0.90352   0.51796   0.00000  Uiso   1.00
C1843  C     0.72668   0.92475   0.55968   0.00000  Uiso   1.00
H1844  H     0.76407   0.93142   0.54974   0.00000  Uiso   1.00
H1845  H     0.71609   0.90699   0.59449   0.00000  Uiso   1.00
H1846  H     0.70690   0.95513   0.56971   0.00000  Uiso   1.00
C1847  C     0.85620   0.75432   0.87407   0.00000  Uiso   1.00
O1848  O     0.89017   0.73606   0.84334   0.00000  Uiso   1.00
O1849  O     0.81236   0.73963   0.87831   0.00000  Uiso   1.00
H1850  H     0.81388   0.71178   0.85768   0.00000  Uiso   1.00
C1851  C     0.92539   0.95817   0.71822   0.00000  Uiso   1.00
O1852  O     0.95367   0.97220   0.73844   0.00000  Uiso   1.00
O1853  O     0.93866   0.92546   0.67930   0.00000  Uiso   1.00
H1854  H     0.97205   0.91563   0.67267   0.00000  Uiso   1.00
loop_
_geom_bond_atom_site_label_1
_geom_bond_atom_site_label_2
_geom_bond_distance
_geom_bond_site_symmetry_2
_ccdc_geom_bond_type
C1     O34     1.303   .     A
C1     O33     1.320   .     A
C1     C17     1.455   .     S
C2     C3      1.410   .     A
C2     C931    1.409   .     S
C2     C955    1.404   .     S
C3     C7      1.417   .     A
C3     C10     1.430   .     A
C4     C8      1.402   .     A
C4     C929    1.409   1_554 S
C4     C932    1.409   1_554 S
C5     C6      1.412   .     A
C5     C931    1.409   .     S
C5     C951    1.406   .     S
C6     O73     1.387   .     S
C6     C7      1.414   .     A
C7     C96     1.485   .     S
C8     C25     1.393   .     A
C8     H30     1.076   .     S
C9     C25     1.402   .     A
C9     O43     1.380   .     S
C9     C24     1.402   .     A
C10    C26     1.422   .     A
C10    C12     1.486   .     S
C11    C17     1.416   .     A
C11    C100    1.484   .     S
C11    C322    1.373   .     S
C12    O36     1.312   .     A
C12    O35     1.324   .     A
C13    H29     1.076   .     S
C13    C14     1.385   .     A
C13    C629    1.373   1_545 S
C14    C22     1.445   .     S
C14    C15     1.418   .     A
C15    C48     1.501   .     S
C15    C634    1.404   1_545 S
C16    C17     1.409   .     A
C16    C52     1.500   .     S
C16    C324    1.404   .     S
C18    C56     1.482   .     S
C18    N32     1.390   .     A
C18    C122    1.445   .     S
C19    N31     1.368   .     A
C19    C60     1.476   .     S
C19    C224    1.445   1_455 S
C20    C64     1.481   .     S
C20    N31     1.402   .     A
C20    C227    1.442   1_455 S
C21    N32     1.355   .     A
C21    O68     1.385   .     S
C21    C123    1.442   .     S
C22    O38     1.320   .     A
C22    O37     1.299   .     A
C23    O40     1.320   .     A
C23    O39     1.311   .     A
C23    C25     1.472   .     S
C24    C932    1.406   1_554 S
C24    C1005   1.451   1_554 S
C26    C27     1.396   .     A
C26    C82     1.456   .     S
C27    C955    1.392   .     S
C27    O1018   1.392   .     S
C28    O86     1.383   .     S
C28    C954    1.392   1_554 S
C28    C929    1.404   1_554 S
N31    Zn41    2.062   .     S
N32    Zn42    2.062   .     S
O33    Zn41    2.014   .     S
O34    Zn42    1.997   .     S
O35    Zn41    2.031   .     S
O36    Zn42    2.017   .     S
O37    Zn41    1.997   .     S
O38    Zn42    2.014   .     S
O39    Zn41    2.017   .     S
O40    Zn42    2.031   .     S
O43    C44     1.410   .     S
C44    H46     1.114   .     S
C44    H47     1.092   .     S
C44    H45     1.109   .     S
C48    O50     1.394   .     S
C48    O49     1.222   .     D
O50    H51     1.013   .     S
C52    O53     1.220   .     D
C52    O54     1.400   .     S
O54    H55     1.012   .     S
C56    O57     1.215   .     D
C56    O58     1.396   .     S
O58    H59     1.014   .     S
C60    O62     1.390   .     S
C60    O61     1.215   .     D
O62    H63     1.014   .     S
C64    O66     1.394   .     S
C64    O65     1.206   .     D
O66    H67     1.012   .     S
O68    C69     1.411   .     S
C69    H71     1.109   .     S
C69    H70     1.106   .     S
C69    H72     1.110   .     S
O73    C74     1.413   .     S
C74    H76     1.107   .     S
C74    H75     1.108   .     S
C74    H180    1.105   .     S
H77    C280    1.105   1_455 S
C78    O80     1.397   .     S
C78    C951    1.451   .     S
C78    O182    1.220   .     S
O79    C284    1.220   1_455 S
O80    H81     1.007   .     S
C82    O83     1.220   .     D
C82    O84     1.399   .     S
O84    H85     1.013   .     S
O86    C87     1.417   .     S
C87    H88     1.112   .     S
C87    H89     1.111   .     S
C87    H90     1.108   .     S
O91    C92     1.411   .     S
O91    C954    1.392   1_554 S
C92    H93     1.114   .     S
C92    H95     1.109   .     S
C92    H94     1.109   .     S
C96    O98     1.396   .     S
C96    O97     1.222   .     D
O98    H99     1.013   .     S
C100   O102    1.395   .     S
C100   O101    1.222   .     D
O102   H103    1.014   .     S
C104   O137    1.303   .     A
C104   O136    1.320   .     A
C104   C120    1.455   .     S
C105   C106    1.410   .     A
C105   C1034   1.409   .     S
C105   C1058   1.404   .     S
C106   C110    1.417   .     A
C106   C113    1.430   .     A
C107   C111    1.402   .     A
C107   C1032   1.409   1_554 S
C107   C1035   1.409   1_554 S
C108   C109    1.412   .     A
C108   C1034   1.409   .     S
C108   C1054   1.406   .     S
C109   O176    1.387   .     S
C109   C110    1.414   .     A
C110   C199    1.485   .     S
C111   C128    1.393   .     A
C111   H133    1.076   .     S
C112   C128    1.402   .     A
C112   O146    1.380   .     S
C112   C127    1.402   .     A
C113   C129    1.422   .     A
C113   C115    1.486   .     S
C114   C120    1.416   .     A
C114   C203    1.484   .     S
C114   C425    1.373   .     S
C115   O139    1.312   .     A
C115   O138    1.324   .     A
C116   H132    1.076   .     S
C116   C117    1.385   .     A
C116   C732    1.373   1_545 S
C117   C125    1.445   .     S
C117   C118    1.418   .     A
C118   C151    1.501   .     S
C118   C737    1.404   1_545 S
C119   C120    1.409   .     A
C119   C155    1.500   .     S
C119   C427    1.404   .     S
C121   C159    1.482   .     S
C121   N135    1.390   .     A
C121   C225    1.445   .     S
C122   N134    1.368   .     A
C122   C163    1.476   .     S
C123   C167    1.481   .     S
C123   N134    1.402   .     A
C124   N135    1.355   .     A
C124   O171    1.385   .     S
C124   C226    1.442   .     S
C125   O141    1.320   .     A
C125   O140    1.299   .     A
C126   O143    1.320   .     A
C126   O142    1.311   .     A
C126   C128    1.472   .     S
C127   C1035   1.406   1_554 S
C127   C1108   1.451   1_554 S
C129   C130    1.396   .     A
C129   C185    1.456   .     S
C130   C1058   1.392   .     S
C130   O1121   1.392   .     S
C131   O189    1.383   .     S
C131   C1057   1.392   1_554 S
C131   C1032   1.404   1_554 S
N134   Zn144   2.062   .     S
N135   Zn145   2.062   .     S
O136   Zn144   2.014   .     S
O137   Zn145   1.997   .     S
O138   Zn144   2.031   .     S
O139   Zn145   2.017   .     S
O140   Zn144   1.997   .     S
O141   Zn145   2.014   .     S
O142   Zn144   2.017   .     S
O143   Zn145   2.031   .     S
O146   C147    1.410   .     S
C147   H149    1.114   .     S
C147   H150    1.092   .     S
C147   H148    1.109   .     S
C151   O153    1.394   .     S
C151   O152    1.222   .     D
O153   H154    1.013   .     S
C155   O156    1.220   .     D
C155   O157    1.400   .     S
O157   H158    1.012   .     S
C159   O160    1.215   .     D
C159   O161    1.396   .     S
O161   H162    1.014   .     S
C163   O165    1.390   .     S
C163   O164    1.215   .     D
O165   H166    1.014   .     S
C167   O169    1.394   .     S
C167   O168    1.206   .     D
O169   H170    1.012   .     S
O171   C172    1.411   .     S
C172   H174    1.109   .     S
C172   H173    1.106   .     S
C172   H175    1.110   .     S
O176   C177    1.413   .     S
C177   H179    1.107   .     S
C177   H178    1.108   .     S
C177   H283    1.105   .     S
C181   O183    1.397   .     S
C181   C1054   1.451   .     S
C181   O285    1.220   .     S
O183   H184    1.007   .     S
C185   O186    1.220   .     D
C185   O187    1.399   .     S
O187   H188    1.013   .     S
O189   C190    1.417   .     S
C190   H191    1.112   .     S
C190   H192    1.111   .     S
C190   H193    1.108   .     S
O194   C195    1.411   .     S
O194   C1057   1.392   1_554 S
C195   H196    1.114   .     S
C195   H198    1.109   .     S
C195   H197    1.109   .     S
C199   O201    1.396   .     S
C199   O200    1.222   .     D
O201   H202    1.013   .     S
C203   O205    1.395   .     S
C203   O204    1.222   .     D
O205   H206    1.014   .     S
C207   O240    1.303   .     A
C207   O239    1.320   .     A
C207   C223    1.455   .     S
C208   C209    1.410   .     A
C208   C1137   1.409   .     S
C208   C1161   1.404   .     S
C209   C213    1.417   .     A
C209   C216    1.430   .     A
C210   C214    1.402   .     A
C210   C1135   1.409   1_554 S
C210   C1138   1.409   1_554 S
C211   C212    1.412   .     A
C211   C1137   1.409   .     S
C211   C1157   1.406   .     S
C212   O279    1.387   .     S
C212   C213    1.414   .     A
C213   C302    1.485   .     S
C214   C231    1.393   .     A
C214   H236    1.076   .     S
C215   C231    1.402   .     A
C215   O249    1.380   .     S
C215   C230    1.402   .     A
C216   C232    1.422   .     A
C216   C218    1.486   .     S
C217   C223    1.416   .     A
C217   C306    1.484   .     S
C217   C528    1.373   .     S
C218   O242    1.312   .     A
C218   O241    1.324   .     A
C219   H235    1.076   .     S
C219   C220    1.385   .     A
C219   C835    1.373   1_545 S
C220   C228    1.445   .     S
C220   C221    1.418   .     A
C221   C254    1.501   .     S
C221   C840    1.404   1_545 S
C222   C223    1.409   .     A
C222   C258    1.500   .     S
C222   C530    1.404   .     S
C224   C262    1.482   .     S
C224   N238    1.390   .     A
C224   C19     1.445   1_655 S
C225   N237    1.368   .     A
C225   C266    1.476   .     S
C226   C270    1.481   .     S
C226   N237    1.402   .     A
C227   N238    1.355   .     A
C227   O274    1.385   .     S
C227   C20     1.442   1_655 S
C228   O244    1.320   .     A
C228   O243    1.299   .     A
C229   O246    1.320   .     A
C229   O245    1.311   .     A
C229   C231    1.472   .     S
C230   C1138   1.406   1_554 S
C230   C1211   1.451   1_554 S
C232   C233    1.396   .     A
C232   C288    1.456   .     S
C233   C1161   1.392   .     S
C233   O1224   1.392   .     S
C234   O292    1.383   .     S
C234   C1160   1.392   1_554 S
C234   C1135   1.404   1_554 S
N237   Zn247   2.062   .     S
N238   Zn248   2.062   .     S
O239   Zn247   2.014   .     S
O240   Zn248   1.997   .     S
O241   Zn247   2.031   .     S
O242   Zn248   2.017   .     S
O243   Zn247   1.997   .     S
O244   Zn248   2.014   .     S
O245   Zn247   2.017   .     S
O246   Zn248   2.031   .     S
O249   C250    1.410   .     S
C250   H252    1.114   .     S
C250   H253    1.092   .     S
C250   H251    1.109   .     S
C254   O256    1.394   .     S
C254   O255    1.222   .     D
O256   H257    1.013   .     S
C258   O259    1.220   .     D
C258   O260    1.400   .     S
O260   H261    1.012   .     S
C262   O263    1.215   .     D
C262   O264    1.396   .     S
O264   H265    1.014   .     S
C266   O268    1.390   .     S
C266   O267    1.215   .     D
O268   H269    1.014   .     S
C270   O272    1.394   .     S
C270   O271    1.206   .     D
O272   H273    1.012   .     S
O274   C275    1.411   .     S
C275   H277    1.109   .     S
C275   H276    1.106   .     S
C275   H278    1.110   .     S
O279   C280    1.413   .     S
C280   H282    1.107   .     S
C280   H281    1.108   .     S
C280   H77     1.105   1_655 S
C284   O286    1.397   .     S
C284   C1157   1.451   .     S
C284   O79     1.220   1_655 S
O286   H287    1.007   .     S
C288   O289    1.220   .     D
C288   O290    1.399   .     S
O290   H291    1.013   .     S
O292   C293    1.417   .     S
C293   H294    1.112   .     S
C293   H295    1.111   .     S
C293   H296    1.108   .     S
O297   C298    1.411   .     S
O297   C1160   1.392   1_554 S
C298   H299    1.114   .     S
C298   H301    1.109   .     S
C298   H300    1.109   .     S
C302   O304    1.396   .     S
C302   O303    1.222   .     D
O304   H305    1.013   .     S
C306   O308    1.395   .     S
C306   O307    1.222   .     D
O308   H309    1.014   .     S
C310   O343    1.303   .     A
C310   O342    1.320   .     A
C310   C326    1.455   .     S
C311   C312    1.410   .     A
C311   C1240   1.409   .     S
C311   C1264   1.404   .     S
C312   C316    1.417   .     A
C312   C319    1.430   .     A
C313   C317    1.402   .     A
C313   C1238   1.409   1_554 S
C313   C1241   1.409   1_554 S
C314   C315    1.412   .     A
C314   C1240   1.409   .     S
C314   C1260   1.406   .     S
C315   O382    1.387   .     S
C315   C316    1.414   .     A
C316   C405    1.485   .     S
C317   C334    1.393   .     A
C317   H339    1.076   .     S
C318   C334    1.402   .     A
C318   O352    1.380   .     S
C318   C333    1.402   .     A
C319   C335    1.422   .     A
C319   C321    1.486   .     S
C320   C326    1.416   .     A
C320   C409    1.484   .     S
C320   C631    1.373   .     S
C321   O345    1.312   .     A
C321   O344    1.324   .     A
C322   H338    1.076   .     S
C322   C323    1.385   .     A
C323   C331    1.445   .     S
C323   C324    1.418   .     A
C324   C357    1.501   .     S
C325   C326    1.409   .     A
C325   C361    1.500   .     S
C325   C633    1.404   .     S
C327   C365    1.482   .     S
C327   N341    1.390   .     A
C327   C431    1.445   .     S
C328   N340    1.368   .     A
C328   C369    1.476   .     S
C328   C533    1.445   1_455 S
C329   C373    1.481   .     S
C329   N340    1.402   .     A
C329   C536    1.442   1_455 S
C330   N341    1.355   .     A
C330   O377    1.385   .     S
C330   C432    1.442   .     S
C331   O347    1.320   .     A
C331   O346    1.299   .     A
C332   O349    1.320   .     A
C332   O348    1.311   .     A
C332   C334    1.472   .     S
C333   C1241   1.406   1_554 S
C333   C1314   1.451   1_554 S
C335   C336    1.396   .     A
C335   C391    1.456   .     S
C336   C1264   1.392   .     S
C336   O1327   1.392   .     S
C337   O395    1.383   .     S
C337   C1263   1.392   1_554 S
C337   C1238   1.404   1_554 S
N340   Zn350   2.062   .     S
N341   Zn351   2.062   .     S
O342   Zn350   2.014   .     S
O343   Zn351   1.997   .     S
O344   Zn350   2.031   .     S
O345   Zn351   2.017   .     S
O346   Zn350   1.997   .     S
O347   Zn351   2.014   .     S
O348   Zn350   2.017   .     S
O349   Zn351   2.031   .     S
O352   C353    1.410   .     S
C353   H355    1.114   .     S
C353   H356    1.092   .     S
C353   H354    1.109   .     S
C357   O359    1.394   .     S
C357   O358    1.222   .     D
O359   H360    1.013   .     S
C361   O362    1.220   .     D
C361   O363    1.400   .     S
O363   H364    1.012   .     S
C365   O366    1.215   .     D
C365   O367    1.396   .     S
O367   H368    1.014   .     S
C369   O371    1.390   .     S
C369   O370    1.215   .     D
O371   H372    1.014   .     S
C373   O375    1.394   .     S
C373   O374    1.206   .     D
O375   H376    1.012   .     S
O377   C378    1.411   .     S
C378   H380    1.109   .     S
C378   H379    1.106   .     S
C378   H381    1.110   .     S
O382   C383    1.413   .     S
C383   H385    1.107   .     S
C383   H384    1.108   .     S
C383   H489    1.105   .     S
H386   C589    1.105   1_455 S
C387   O389    1.397   .     S
C387   C1260   1.451   .     S
C387   O491    1.220   .     S
O388   C593    1.220   1_455 S
O389   H390    1.007   .     S
C391   O392    1.220   .     D
C391   O393    1.399   .     S
O393   H394    1.013   .     S
O395   C396    1.417   .     S
C396   H397    1.112   .     S
C396   H398    1.111   .     S
C396   H399    1.108   .     S
O400   C401    1.411   .     S
O400   C1263   1.392   1_554 S
C401   H402    1.114   .     S
C401   H404    1.109   .     S
C401   H403    1.109   .     S
C405   O407    1.396   .     S
C405   O406    1.222   .     D
O407   H408    1.013   .     S
C409   O411    1.395   .     S
C409   O410    1.222   .     D
O411   H412    1.014   .     S
C413   O446    1.303   .     A
C413   O445    1.320   .     A
C413   C429    1.455   .     S
C414   C415    1.410   .     A
C414   C1343   1.409   .     S
C414   C1367   1.404   .     S
C415   C419    1.417   .     A
C415   C422    1.430   .     A
C416   C420    1.402   .     A
C416   C1341   1.409   1_554 S
C416   C1344   1.409   1_554 S
C417   C418    1.412   .     A
C417   C1343   1.409   .     S
C417   C1363   1.406   .     S
C418   O485    1.387   .     S
C418   C419    1.414   .     A
C419   C508    1.485   .     S
C420   C437    1.393   .     A
C420   H442    1.076   .     S
C421   C437    1.402   .     A
C421   O455    1.380   .     S
C421   C436    1.402   .     A
C422   C438    1.422   .     A
C422   C424    1.486   .     S
C423   C429    1.416   .     A
C423   C512    1.484   .     S
C423   C734    1.373   .     S
C424   O448    1.312   .     A
C424   O447    1.324   .     A
C425   H441    1.076   .     S
C425   C426    1.385   .     A
C426   C434    1.445   .     S
C426   C427    1.418   .     A
C427   C460    1.501   .     S
C428   C429    1.409   .     A
C428   C464    1.500   .     S
C428   C736    1.404   .     S
C430   C468    1.482   .     S
C430   N444    1.390   .     A
C430   C534    1.445   .     S
C431   N443    1.368   .     A
C431   C472    1.476   .     S
C432   C476    1.481   .     S
C432   N443    1.402   .     A
C433   N444    1.355   .     A
C433   O480    1.385   .     S
C433   C535    1.442   .     S
C434   O450    1.320   .     A
C434   O449    1.299   .     A
C435   O452    1.320   .     A
C435   O451    1.311   .     A
C435   C437    1.472   .     S
C436   C1344   1.406   1_554 S
C436   C1417   1.451   1_554 S
C438   C439    1.396   .     A
C438   C494    1.456   .     S
C439   C1367   1.392   .     S
C439   O1430   1.392   .     S
C440   O498    1.383   .     S
C440   C1366   1.392   1_554 S
C440   C1341   1.404   1_554 S
N443   Zn453   2.062   .     S
N444   Zn454   2.062   .     S
O445   Zn453   2.014   .     S
O446   Zn454   1.997   .     S
O447   Zn453   2.031   .     S
O448   Zn454   2.017   .     S
O449   Zn453   1.997   .     S
O450   Zn454   2.014   .     S
O451   Zn453   2.017   .     S
O452   Zn454   2.031   .     S
O455   C456    1.410   .     S
C456   H458    1.114   .     S
C456   H459    1.092   .     S
C456   H457    1.109   .     S
C460   O462    1.394   .     S
C460   O461    1.222   .     D
O462   H463    1.013   .     S
C464   O465    1.220   .     D
C464   O466    1.400   .     S
O466   H467    1.012   .     S
C468   O469    1.215   .     D
C468   O470    1.396   .     S
O470   H471    1.014   .     S
C472   O474    1.390   .     S
C472   O473    1.215   .     D
O474   H475    1.014   .     S
C476   O478    1.394   .     S
C476   O477    1.206   .     D
O478   H479    1.012   .     S
O480   C481    1.411   .     S
C481   H483    1.109   .     S
C481   H482    1.106   .     S
C481   H484    1.110   .     S
O485   C486    1.413   .     S
C486   H488    1.107   .     S
C486   H487    1.108   .     S
C486   H592    1.105   .     S
C490   O492    1.397   .     S
C490   C1363   1.451   .     S
C490   O594    1.220   .     S
O492   H493    1.007   .     S
C494   O495    1.220   .     D
C494   O496    1.399   .     S
O496   H497    1.013   .     S
O498   C499    1.417   .     S
C499   H500    1.112   .     S
C499   H501    1.111   .     S
C499   H502    1.108   .     S
O503   C504    1.411   .     S
O503   C1366   1.392   1_554 S
C504   H505    1.114   .     S
C504   H507    1.109   .     S
C504   H506    1.109   .     S
C508   O510    1.396   .     S
C508   O509    1.222   .     D
O510   H511    1.013   .     S
C512   O514    1.395   .     S
C512   O513    1.222   .     D
O514   H515    1.014   .     S
C516   O549    1.303   .     A
C516   O548    1.320   .     A
C516   C532    1.455   .     S
C517   C518    1.410   .     A
C517   C1446   1.409   .     S
C517   C1470   1.404   .     S
C518   C522    1.417   .     A
C518   C525    1.430   .     A
C519   C523    1.402   .     A
C519   C1444   1.409   1_554 S
C519   C1447   1.409   1_554 S
C520   C521    1.412   .     A
C520   C1446   1.409   .     S
C520   C1466   1.406   .     S
C521   O588    1.387   .     S
C521   C522    1.414   .     A
C522   C611    1.485   .     S
C523   C540    1.393   .     A
C523   H545    1.076   .     S
C524   C540    1.402   .     A
C524   O558    1.380   .     S
C524   C539    1.402   .     A
C525   C541    1.422   .     A
C525   C527    1.486   .     S
C526   C532    1.416   .     A
C526   C615    1.484   .     S
C526   C837    1.373   .     S
C527   O551    1.312   .     A
C527   O550    1.324   .     A
C528   H544    1.076   .     S
C528   C529    1.385   .     A
C529   C537    1.445   .     S
C529   C530    1.418   .     A
C530   C563    1.501   .     S
C531   C532    1.409   .     A
C531   C567    1.500   .     S
C531   C839    1.404   .     S
C533   C571    1.482   .     S
C533   N547    1.390   .     A
C533   C328    1.445   1_655 S
C534   N546    1.368   .     A
C534   C575    1.476   .     S
C535   C579    1.481   .     S
C535   N546    1.402   .     A
C536   N547    1.355   .     A
C536   O583    1.385   .     S
C536   C329    1.442   1_655 S
C537   O553    1.320   .     A
C537   O552    1.299   .     A
C538   O555    1.320   .     A
C538   O554    1.311   .     A
C538   C540    1.472   .     S
C539   C1447   1.406   1_554 S
C539   C1520   1.451   1_554 S
C541   C542    1.396   .     A
C541   C597    1.456   .     S
C542   C1470   1.392   .     S
C542   O1533   1.392   .     S
C543   O601    1.383   .     S
C543   C1469   1.392   1_554 S
C543   C1444   1.404   1_554 S
N546   Zn556   2.062   .     S
N547   Zn557   2.062   .     S
O548   Zn556   2.014   .     S
O549   Zn557   1.997   .     S
O550   Zn556   2.031   .     S
O551   Zn557   2.017   .     S
O552   Zn556   1.997   .     S
O553   Zn557   2.014   .     S
O554   Zn556   2.017   .     S
O555   Zn557   2.031   .     S
O558   C559    1.410   .     S
C559   H561    1.114   .     S
C559   H562    1.092   .     S
C559   H560    1.109   .     S
C563   O565    1.394   .     S
C563   O564    1.222   .     D
O565   H566    1.013   .     S
C567   O568    1.220   .     D
C567   O569    1.400   .     S
O569   H570    1.012   .     S
C571   O572    1.215   .     D
C571   O573    1.396   .     S
O573   H574    1.014   .     S
C575   O577    1.390   .     S
C575   O576    1.215   .     D
O577   H578    1.014   .     S
C579   O581    1.394   .     S
C579   O580    1.206   .     D
O581   H582    1.012   .     S
O583   C584    1.411   .     S
C584   H586    1.109   .     S
C584   H585    1.106   .     S
C584   H587    1.110   .     S
O588   C589    1.413   .     S
C589   H591    1.107   .     S
C589   H590    1.108   .     S
C589   H386    1.105   1_655 S
C593   O595    1.397   .     S
C593   C1466   1.451   .     S
C593   O388    1.220   1_655 S
O595   H596    1.007   .     S
C597   O598    1.220   .     D
C597   O599    1.399   .     S
O599   H600    1.013   .     S
O601   C602    1.417   .     S
C602   H603    1.112   .     S
C602   H604    1.111   .     S
C602   H605    1.108   .     S
O606   C607    1.411   .     S
O606   C1469   1.392   1_554 S
C607   H608    1.114   .     S
C607   H610    1.109   .     S
C607   H609    1.109   .     S
C611   O613    1.396   .     S
C611   O612    1.222   .     D
O613   H614    1.013   .     S
C615   O617    1.395   .     S
C615   O616    1.222   .     D
O617   H618    1.014   .     S
C619   O652    1.303   .     A
C619   O651    1.320   .     A
C619   C635    1.455   .     S
C620   C621    1.410   .     A
C620   C1549   1.409   .     S
C620   C1573   1.404   .     S
C621   C625    1.417   .     A
C621   C628    1.430   .     A
C622   C626    1.402   .     A
C622   C1547   1.409   1_554 S
C622   C1550   1.409   1_554 S
C623   C624    1.412   .     A
C623   C1549   1.409   .     S
C623   C1569   1.406   .     S
C624   O691    1.387   .     S
C624   C625    1.414   .     A
C625   C714    1.485   .     S
C626   C643    1.393   .     A
C626   H648    1.076   .     S
C627   C643    1.402   .     A
C627   O661    1.380   .     S
C627   C642    1.402   .     A
C628   C644    1.422   .     A
C628   C630    1.486   .     S
C629   C635    1.416   .     A
C629   C718    1.484   .     S
C629   C13     1.373   1_565 S
C630   O654    1.312   .     A
C630   O653    1.324   .     A
C631   H647    1.076   .     S
C631   C632    1.385   .     A
C632   C640    1.445   .     S
C632   C633    1.418   .     A
C633   C666    1.501   .     S
C634   C635    1.409   .     A
C634   C670    1.500   .     S
C634   C15     1.404   1_565 S
C636   C674    1.482   .     S
C636   N650    1.390   .     A
C636   C740    1.445   .     S
C637   N649    1.368   .     A
C637   C678    1.476   .     S
C637   C842    1.445   1_455 S
C638   C682    1.481   .     S
C638   N649    1.402   .     A
C638   C845    1.442   1_455 S
C639   N650    1.355   .     A
C639   O686    1.385   .     S
C639   C741    1.442   .     S
C640   O656    1.320   .     A
C640   O655    1.299   .     A
C641   O658    1.320   .     A
C641   O657    1.311   .     A
C641   C643    1.472   .     S
C642   C1550   1.406   1_554 S
C642   C1623   1.451   1_554 S
C644   C645    1.396   .     A
C644   C700    1.456   .     S
C645   C1573   1.392   .     S
C645   O1636   1.392   .     S
C646   O704    1.383   .     S
C646   C1572   1.392   1_554 S
C646   C1547   1.404   1_554 S
N649   Zn659   2.062   .     S
N650   Zn660   2.062   .     S
O651   Zn659   2.014   .     S
O652   Zn660   1.997   .     S
O653   Zn659   2.031   .     S
O654   Zn660   2.017   .     S
O655   Zn659   1.997   .     S
O656   Zn660   2.014   .     S
O657   Zn659   2.017   .     S
O658   Zn660   2.031   .     S
O661   C662    1.410   .     S
C662   H664    1.114   .     S
C662   H665    1.092   .     S
C662   H663    1.109   .     S
C666   O668    1.394   .     S
C666   O667    1.222   .     D
O668   H669    1.013   .     S
C670   O671    1.220   .     D
C670   O672    1.400   .     S
O672   H673    1.012   .     S
C674   O675    1.215   .     D
C674   O676    1.396   .     S
O676   H677    1.014   .     S
C678   O680    1.390   .     S
C678   O679    1.215   .     D
O680   H681    1.014   .     S
C682   O684    1.394   .     S
C682   O683    1.206   .     D
O684   H685    1.012   .     S
O686   C687    1.411   .     S
C687   H689    1.109   .     S
C687   H688    1.106   .     S
C687   H690    1.110   .     S
O691   C692    1.413   .     S
C692   H694    1.107   .     S
C692   H693    1.108   .     S
C692   H798    1.105   .     S
H695   C898    1.105   1_455 S
C696   O698    1.397   .     S
C696   C1569   1.451   .     S
C696   O800    1.220   .     S
O697   C902    1.220   1_455 S
O698   H699    1.007   .     S
C700   O701    1.220   .     D
C700   O702    1.399   .     S
O702   H703    1.013   .     S
O704   C705    1.417   .     S
C705   H706    1.112   .     S
C705   H707    1.111   .     S
C705   H708    1.108   .     S
O709   C710    1.411   .     S
O709   C1572   1.392   1_554 S
C710   H711    1.114   .     S
C710   H713    1.109   .     S
C710   H712    1.109   .     S
C714   O716    1.396   .     S
C714   O715    1.222   .     D
O716   H717    1.013   .     S
C718   O720    1.395   .     S
C718   O719    1.222   .     D
O720   H721    1.014   .     S
C722   O755    1.303   .     A
C722   O754    1.320   .     A
C722   C738    1.455   .     S
C723   C724    1.410   .     A
C723   C1652   1.409   .     S
C723   C1676   1.404   .     S
C724   C728    1.417   .     A
C724   C731    1.430   .     A
C725   C729    1.402   .     A
C725   C1650   1.409   1_554 S
C725   C1653   1.409   1_554 S
C726   C727    1.412   .     A
C726   C1652   1.409   .     S
C726   C1672   1.406   .     S
C727   O794    1.387   .     S
C727   C728    1.414   .     A
C728   C817    1.485   .     S
C729   C746    1.393   .     A
C729   H751    1.076   .     S
C730   C746    1.402   .     A
C730   O764    1.380   .     S
C730   C745    1.402   .     A
C731   C747    1.422   .     A
C731   C733    1.486   .     S
C732   C738    1.416   .     A
C732   C821    1.484   .     S
C732   C116    1.373   1_565 S
C733   O757    1.312   .     A
C733   O756    1.324   .     A
C734   H750    1.076   .     S
C734   C735    1.385   .     A
C735   C743    1.445   .     S
C735   C736    1.418   .     A
C736   C769    1.501   .     S
C737   C738    1.409   .     A
C737   C773    1.500   .     S
C737   C118    1.404   1_565 S
C739   C777    1.482   .     S
C739   N753    1.390   .     A
C739   C843    1.445   .     S
C740   N752    1.368   .     A
C740   C781    1.476   .     S
C741   C785    1.481   .     S
C741   N752    1.402   .     A
C742   N753    1.355   .     A
C742   O789    1.385   .     S
C742   C844    1.442   .     S
C743   O759    1.320   .     A
C743   O758    1.299   .     A
C744   O761    1.320   .     A
C744   O760    1.311   .     A
C744   C746    1.472   .     S
C745   C1653   1.406   1_554 S
C745   C1726   1.451   1_554 S
C747   C748    1.396   .     A
C747   C803    1.456   .     S
C748   C1676   1.392   .     S
C748   O1739   1.392   .     S
C749   O807    1.383   .     S
C749   C1675   1.392   1_554 S
C749   C1650   1.404   1_554 S
N752   Zn762   2.062   .     S
N753   Zn763   2.062   .     S
O754   Zn762   2.014   .     S
O755   Zn763   1.997   .     S
O756   Zn762   2.031   .     S
O757   Zn763   2.017   .     S
O758   Zn762   1.997   .     S
O759   Zn763   2.014   .     S
O760   Zn762   2.017   .     S
O761   Zn763   2.031   .     S
O764   C765    1.410   .     S
C765   H767    1.114   .     S
C765   H768    1.092   .     S
C765   H766    1.109   .     S
C769   O771    1.394   .     S
C769   O770    1.222   .     D
O771   H772    1.013   .     S
C773   O774    1.220   .     D
C773   O775    1.400   .     S
O775   H776    1.012   .     S
C777   O778    1.215   .     D
C777   O779    1.396   .     S
O779   H780    1.014   .     S
C781   O783    1.390   .     S
C781   O782    1.215   .     D
O783   H784    1.014   .     S
C785   O787    1.394   .     S
C785   O786    1.206   .     D
O787   H788    1.012   .     S
O789   C790    1.411   .     S
C790   H792    1.109   .     S
C790   H791    1.106   .     S
C790   H793    1.110   .     S
O794   C795    1.413   .     S
C795   H797    1.107   .     S
C795   H796    1.108   .     S
C795   H901    1.105   .     S
C799   O801    1.397   .     S
C799   C1672   1.451   .     S
C799   O903    1.220   .     S
O801   H802    1.007   .     S
C803   O804    1.220   .     D
C803   O805    1.399   .     S
O805   H806    1.013   .     S
O807   C808    1.417   .     S
C808   H809    1.112   .     S
C808   H810    1.111   .     S
C808   H811    1.108   .     S
O812   C813    1.411   .     S
O812   C1675   1.392   1_554 S
C813   H814    1.114   .     S
C813   H816    1.109   .     S
C813   H815    1.109   .     S
C817   O819    1.396   .     S
C817   O818    1.222   .     D
O819   H820    1.013   .     S
C821   O823    1.395   .     S
C821   O822    1.222   .     D
O823   H824    1.014   .     S
C825   O858    1.303   .     A
C825   O857    1.320   .     A
C825   C841    1.455   .     S
C826   C827    1.410   .     A
C826   C1755   1.409   .     S
C826   C1779   1.404   .     S
C827   C831    1.417   .     A
C827   C834    1.430   .     A
C828   C832    1.402   .     A
C828   C1753   1.409   1_554 S
C828   C1756   1.409   1_554 S
C829   C830    1.412   .     A
C829   C1755   1.409   .     S
C829   C1775   1.406   .     S
C830   O897    1.387   .     S
C830   C831    1.414   .     A
C831   C920    1.485   .     S
C832   C849    1.393   .     A
C832   H854    1.076   .     S
C833   C849    1.402   .     A
C833   O867    1.380   .     S
C833   C848    1.402   .     A
C834   C850    1.422   .     A
C834   C836    1.486   .     S
C835   C841    1.416   .     A
C835   C924    1.484   .     S
C835   C219    1.373   1_565 S
C836   O860    1.312   .     A
C836   O859    1.324   .     A
C837   H853    1.076   .     S
C837   C838    1.385   .     A
C838   C846    1.445   .     S
C838   C839    1.418   .     A
C839   C872    1.501   .     S
C840   C841    1.409   .     A
C840   C876    1.500   .     S
C840   C221    1.404   1_565 S
C842   C880    1.482   .     S
C842   N856    1.390   .     A
C842   C637    1.445   1_655 S
C843   N855    1.368   .     A
C843   C884    1.476   .     S
C844   C888    1.481   .     S
C844   N855    1.402   .     A
C845   N856    1.355   .     A
C845   O892    1.385   .     S
C845   C638    1.442   1_655 S
C846   O862    1.320   .     A
C846   O861    1.299   .     A
C847   O864    1.320   .     A
C847   O863    1.311   .     A
C847   C849    1.472   .     S
C848   C1756   1.406   1_554 S
C848   C1829   1.451   1_554 S
C850   C851    1.396   .     A
C850   C906    1.456   .     S
C851   C1779   1.392   .     S
C851   O1842   1.392   .     S
C852   O910    1.383   .     S
C852   C1778   1.392   1_554 S
C852   C1753   1.404   1_554 S
N855   Zn865   2.062   .     S
N856   Zn866   2.062   .     S
O857   Zn865   2.014   .     S
O858   Zn866   1.997   .     S
O859   Zn865   2.031   .     S
O860   Zn866   2.017   .     S
O861   Zn865   1.997   .     S
O862   Zn866   2.014   .     S
O863   Zn865   2.017   .     S
O864   Zn866   2.031   .     S
O867   C868    1.410   .     S
C868   H870    1.114   .     S
C868   H871    1.092   .     S
C868   H869    1.109   .     S
C872   O874    1.394   .     S
C872   O873    1.222   .     D
O874   H875    1.013   .     S
C876   O877    1.220   .     D
C876   O878    1.400   .     S
O878   H879    1.012   .     S
C880   O881    1.215   .     D
C880   O882    1.396   .     S
O882   H883    1.014   .     S
C884   O886    1.390   .     S
C884   O885    1.215   .     D
O886   H887    1.014   .     S
C888   O890    1.394   .     S
C888   O889    1.206   .     D
O890   H891    1.012   .     S
O892   C893    1.411   .     S
C893   H895    1.109   .     S
C893   H894    1.106   .     S
C893   H896    1.110   .     S
O897   C898    1.413   .     S
C898   H900    1.107   .     S
C898   H899    1.108   .     S
C898   H695    1.105   1_655 S
C902   O904    1.397   .     S
C902   C1775   1.451   .     S
C902   O697    1.220   1_655 S
O904   H905    1.007   .     S
C906   O907    1.220   .     D
C906   O908    1.399   .     S
O908   H909    1.013   .     S
O910   C911    1.417   .     S
C911   H912    1.112   .     S
C911   H913    1.111   .     S
C911   H914    1.108   .     S
O915   C916    1.411   .     S
O915   C1778   1.392   1_554 S
C916   H917    1.114   .     S
C916   H919    1.109   .     S
C916   H918    1.109   .     S
C920   O922    1.396   .     S
C920   O921    1.222   .     D
O922   H923    1.013   .     S
C924   O926    1.395   .     S
C924   O925    1.222   .     D
O926   H927    1.014   .     S
C928   O961    1.303   .     A
C928   O960    1.320   .     A
C928   C944    1.455   .     S
C929   C930    1.410   .     A
C929   C4      1.409   1_556 S
C929   C28     1.404   1_556 S
C930   C934    1.417   .     A
C930   C937    1.430   .     A
C931   C935    1.402   .     A
C932   C933    1.412   .     A
C932   C4      1.409   1_556 S
C932   C24     1.406   1_556 S
C933   O1000   1.387   .     S
C933   C934    1.414   .     A
C934   C1023   1.485   .     S
C935   C952    1.393   .     A
C935   H957    1.076   .     S
C936   C952    1.402   .     A
C936   O970    1.380   .     S
C936   C951    1.402   .     A
C937   C953    1.422   .     A
C937   C939    1.486   .     S
C938   C944    1.416   .     A
C938   C1027   1.484   .     S
C938   C1249   1.373   .     S
C939   O963    1.312   .     A
C939   O962    1.324   .     A
C940   H956    1.076   .     S
C940   C941    1.385   .     A
C940   C1556   1.373   1_545 S
C941   C949    1.445   .     S
C941   C942    1.418   .     A
C942   C975    1.501   .     S
C942   C1561   1.404   1_545 S
C943   C944    1.409   .     A
C943   C979    1.500   .     S
C943   C1251   1.404   .     S
C945   C983    1.482   .     S
C945   N959    1.390   .     A
C945   C1049   1.445   .     S
C946   N958    1.368   .     A
C946   C987    1.476   .     S
C946   C1151   1.445   1_455 S
C947   C991    1.481   .     S
C947   N958    1.402   .     A
C947   C1154   1.442   1_455 S
C948   N959    1.355   .     A
C948   O995    1.385   .     S
C948   C1050   1.442   .     S
C949   O965    1.320   .     A
C949   O964    1.299   .     A
C950   O967    1.320   .     A
C950   O966    1.311   .     A
C950   C952    1.472   .     S
C953   C954    1.396   .     A
C953   C1009   1.456   .     S
C954   C28     1.392   1_556 S
C954   O91     1.392   1_556 S
C955   O1013   1.383   .     S
N958   Zn968   2.062   .     S
N959   Zn969   2.062   .     S
O960   Zn968   2.014   .     S
O961   Zn969   1.997   .     S
O962   Zn968   2.031   .     S
O963   Zn969   2.017   .     S
O964   Zn968   1.997   .     S
O965   Zn969   2.014   .     S
O966   Zn968   2.017   .     S
O967   Zn969   2.031   .     S
O970   C971    1.410   .     S
C971   H973    1.114   .     S
C971   H974    1.092   .     S
C971   H972    1.109   .     S
C975   O977    1.394   .     S
C975   O976    1.222   .     D
O977   H978    1.013   .     S
C979   O980    1.220   .     D
C979   O981    1.400   .     S
O981   H982    1.012   .     S
C983   O984    1.215   .     D
C983   O985    1.396   .     S
O985   H986    1.014   .     S
C987   O989    1.390   .     S
C987   O988    1.215   .     D
O989   H990    1.014   .     S
C991   O993    1.394   .     S
C991   O992    1.206   .     D
O993   H994    1.012   .     S
O995   C996    1.411   .     S
C996   H998    1.109   .     S
C996   H997    1.106   .     S
C996   H999    1.110   .     S
O1000  C1001   1.413   .     S
C1001  H1003   1.107   .     S
C1001  H1002   1.108   .     S
C1001  H1107   1.105   .     S
H1004  C1207   1.105   1_455 S
C1005  O1007   1.397   .     S
C1005  C24     1.451   1_556 S
C1005  O1109   1.220   .     S
O1006  C1211   1.220   1_455 S
O1007  H1008   1.007   .     S
C1009  O1010   1.220   .     D
C1009  O1011   1.399   .     S
O1011  H1012   1.013   .     S
O1013  C1014   1.417   .     S
C1014  H1015   1.112   .     S
C1014  H1016   1.111   .     S
C1014  H1017   1.108   .     S
O1018  C1019   1.411   .     S
C1019  H1020   1.114   .     S
C1019  H1022   1.109   .     S
C1019  H1021   1.109   .     S
C1023  O1025   1.396   .     S
C1023  O1024   1.222   .     D
O1025  H1026   1.013   .     S
C1027  O1029   1.395   .     S
C1027  O1028   1.222   .     D
O1029  H1030   1.014   .     S
C1031  O1064   1.303   .     A
C1031  O1063   1.320   .     A
C1031  C1047   1.455   .     S
C1032  C1033   1.410   .     A
C1032  C107    1.409   1_556 S
C1032  C131    1.404   1_556 S
C1033  C1037   1.417   .     A
C1033  C1040   1.430   .     A
C1034  C1038   1.402   .     A
C1035  C1036   1.412   .     A
C1035  C107    1.409   1_556 S
C1035  C127    1.406   1_556 S
C1036  O1103   1.387   .     S
C1036  C1037   1.414   .     A
C1037  C1126   1.485   .     S
C1038  C1055   1.393   .     A
C1038  H1060   1.076   .     S
C1039  C1055   1.402   .     A
C1039  O1073   1.380   .     S
C1039  C1054   1.402   .     A
C1040  C1056   1.422   .     A
C1040  C1042   1.486   .     S
C1041  C1047   1.416   .     A
C1041  C1130   1.484   .     S
C1041  C1352   1.373   .     S
C1042  O1066   1.312   .     A
C1042  O1065   1.324   .     A
C1043  H1059   1.076   .     S
C1043  C1044   1.385   .     A
C1043  C1659   1.373   1_545 S
C1044  C1052   1.445   .     S
C1044  C1045   1.418   .     A
C1045  C1078   1.501   .     S
C1045  C1664   1.404   1_545 S
C1046  C1047   1.409   .     A
C1046  C1082   1.500   .     S
C1046  C1354   1.404   .     S
C1048  C1086   1.482   .     S
C1048  N1062   1.390   .     A
C1048  C1152   1.445   .     S
C1049  N1061   1.368   .     A
C1049  C1090   1.476   .     S
C1050  C1094   1.481   .     S
C1050  N1061   1.402   .     A
C1051  N1062   1.355   .     A
C1051  O1098   1.385   .     S
C1051  C1153   1.442   .     S
C1052  O1068   1.320   .     A
C1052  O1067   1.299   .     A
C1053  O1070   1.320   .     A
C1053  O1069   1.311   .     A
C1053  C1055   1.472   .     S
C1056  C1057   1.396   .     A
C1056  C1112   1.456   .     S
C1057  C131    1.392   1_556 S
C1057  O194    1.392   1_556 S
C1058  O1116   1.383   .     S
N1061  Zn1071  2.062   .     S
N1062  Zn1072  2.062   .     S
O1063  Zn1071  2.014   .     S
O1064  Zn1072  1.997   .     S
O1065  Zn1071  2.031   .     S
O1066  Zn1072  2.017   .     S
O1067  Zn1071  1.997   .     S
O1068  Zn1072  2.014   .     S
O1069  Zn1071  2.017   .     S
O1070  Zn1072  2.031   .     S
O1073  C1074   1.410   .     S
C1074  H1076   1.114   .     S
C1074  H1077   1.092   .     S
C1074  H1075   1.109   .     S
C1078  O1080   1.394   .     S
C1078  O1079   1.222   .     D
O1080  H1081   1.013   .     S
C1082  O1083   1.220   .     D
C1082  O1084   1.400   .     S
O1084  H1085   1.012   .     S
C1086  O1087   1.215   .     D
C1086  O1088   1.396   .     S
O1088  H1089   1.014   .     S
C1090  O1092   1.390   .     S
C1090  O1091   1.215   .     D
O1092  H1093   1.014   .     S
C1094  O1096   1.394   .     S
C1094  O1095   1.206   .     D
O1096  H1097   1.012   .     S
O1098  C1099   1.411   .     S
C1099  H1101   1.109   .     S
C1099  H1100   1.106   .     S
C1099  H1102   1.110   .     S
O1103  C1104   1.413   .     S
C1104  H1106   1.107   .     S
C1104  H1105   1.108   .     S
C1104  H1210   1.105   .     S
C1108  O1110   1.397   .     S
C1108  C127    1.451   1_556 S
C1108  O1212   1.220   .     S
O1110  H1111   1.007   .     S
C1112  O1113   1.220   .     D
C1112  O1114   1.399   .     S
O1114  H1115   1.013   .     S
O1116  C1117   1.417   .     S
C1117  H1118   1.112   .     S
C1117  H1119   1.111   .     S
C1117  H1120   1.108   .     S
O1121  C1122   1.411   .     S
C1122  H1123   1.114   .     S
C1122  H1125   1.109   .     S
C1122  H1124   1.109   .     S
C1126  O1128   1.396   .     S
C1126  O1127   1.222   .     D
O1128  H1129   1.013   .     S
C1130  O1132   1.395   .     S
C1130  O1131   1.222   .     D
O1132  H1133   1.014   .     S
C1134  O1167   1.303   .     A
C1134  O1166   1.320   .     A
C1134  C1150   1.455   .     S
C1135  C1136   1.410   .     A
C1135  C210    1.409   1_556 S
C1135  C234    1.404   1_556 S
C1136  C1140   1.417   .     A
C1136  C1143   1.430   .     A
C1137  C1141   1.402   .     A
C1138  C1139   1.412   .     A
C1138  C210    1.409   1_556 S
C1138  C230    1.406   1_556 S
C1139  O1206   1.387   .     S
C1139  C1140   1.414   .     A
C1140  C1229   1.485   .     S
C1141  C1158   1.393   .     A
C1141  H1163   1.076   .     S
C1142  C1158   1.402   .     A
C1142  O1176   1.380   .     S
C1142  C1157   1.402   .     A
C1143  C1159   1.422   .     A
C1143  C1145   1.486   .     S
C1144  C1150   1.416   .     A
C1144  C1233   1.484   .     S
C1144  C1455   1.373   .     S
C1145  O1169   1.312   .     A
C1145  O1168   1.324   .     A
C1146  H1162   1.076   .     S
C1146  C1147   1.385   .     A
C1146  C1762   1.373   1_545 S
C1147  C1155   1.445   .     S
C1147  C1148   1.418   .     A
C1148  C1181   1.501   .     S
C1148  C1767   1.404   1_545 S
C1149  C1150   1.409   .     A
C1149  C1185   1.500   .     S
C1149  C1457   1.404   .     S
C1151  C1189   1.482   .     S
C1151  N1165   1.390   .     A
C1151  C946    1.445   1_655 S
C1152  N1164   1.368   .     A
C1152  C1193   1.476   .     S
C1153  C1197   1.481   .     S
C1153  N1164   1.402   .     A
C1154  N1165   1.355   .     A
C1154  O1201   1.385   .     S
C1154  C947    1.442   1_655 S
C1155  O1171   1.320   .     A
C1155  O1170   1.299   .     A
C1156  O1173   1.320   .     A
C1156  O1172   1.311   .     A
C1156  C1158   1.472   .     S
C1159  C1160   1.396   .     A
C1159  C1215   1.456   .     S
C1160  C234    1.392   1_556 S
C1160  O297    1.392   1_556 S
C1161  O1219   1.383   .     S
N1164  Zn1174  2.062   .     S
N1165  Zn1175  2.062   .     S
O1166  Zn1174  2.014   .     S
O1167  Zn1175  1.997   .     S
O1168  Zn1174  2.031   .     S
O1169  Zn1175  2.017   .     S
O1170  Zn1174  1.997   .     S
O1171  Zn1175  2.014   .     S
O1172  Zn1174  2.017   .     S
O1173  Zn1175  2.031   .     S
O1176  C1177   1.410   .     S
C1177  H1179   1.114   .     S
C1177  H1180   1.092   .     S
C1177  H1178   1.109   .     S
C1181  O1183   1.394   .     S
C1181  O1182   1.222   .     D
O1183  H1184   1.013   .     S
C1185  O1186   1.220   .     D
C1185  O1187   1.400   .     S
O1187  H1188   1.012   .     S
C1189  O1190   1.215   .     D
C1189  O1191   1.396   .     S
O1191  H1192   1.014   .     S
C1193  O1195   1.390   .     S
C1193  O1194   1.215   .     D
O1195  H1196   1.014   .     S
C1197  O1199   1.394   .     S
C1197  O1198   1.206   .     D
O1199  H1200   1.012   .     S
O1201  C1202   1.411   .     S
C1202  H1204   1.109   .     S
C1202  H1203   1.106   .     S
C1202  H1205   1.110   .     S
O1206  C1207   1.413   .     S
C1207  H1209   1.107   .     S
C1207  H1208   1.108   .     S
C1207  H1004   1.105   1_655 S
C1211  O1213   1.397   .     S
C1211  C230    1.451   1_556 S
C1211  O1006   1.220   1_655 S
O1213  H1214   1.007   .     S
C1215  O1216   1.220   .     D
C1215  O1217   1.399   .     S
O1217  H1218   1.013   .     S
O1219  C1220   1.417   .     S
C1220  H1221   1.112   .     S
C1220  H1222   1.111   .     S
C1220  H1223   1.108   .     S
O1224  C1225   1.411   .     S
C1225  H1226   1.114   .     S
C1225  H1228   1.109   .     S
C1225  H1227   1.109   .     S
C1229  O1231   1.396   .     S
C1229  O1230   1.222   .     D
O1231  H1232   1.013   .     S
C1233  O1235   1.395   .     S
C1233  O1234   1.222   .     D
O1235  H1236   1.014   .     S
C1237  O1270   1.303   .     A
C1237  O1269   1.320   .     A
C1237  C1253   1.455   .     S
C1238  C1239   1.410   .     A
C1238  C313    1.409   1_556 S
C1238  C337    1.404   1_556 S
C1239  C1243   1.417   .     A
C1239  C1246   1.430   .     A
C1240  C1244   1.402   .     A
C1241  C1242   1.412   .     A
C1241  C313    1.409   1_556 S
C1241  C333    1.406   1_556 S
C1242  O1309   1.387   .     S
C1242  C1243   1.414   .     A
C1243  C1332   1.485   .     S
C1244  C1261   1.393   .     A
C1244  H1266   1.076   .     S
C1245  C1261   1.402   .     A
C1245  O1279   1.380   .     S
C1245  C1260   1.402   .     A
C1246  C1262   1.422   .     A
C1246  C1248   1.486   .     S
C1247  C1253   1.416   .     A
C1247  C1336   1.484   .     S
C1247  C1558   1.373   .     S
C1248  O1272   1.312   .     A
C1248  O1271   1.324   .     A
C1249  H1265   1.076   .     S
C1249  C1250   1.385   .     A
C1250  C1258   1.445   .     S
C1250  C1251   1.418   .     A
C1251  C1284   1.501   .     S
C1252  C1253   1.409   .     A
C1252  C1288   1.500   .     S
C1252  C1560   1.404   .     S
C1254  C1292   1.482   .     S
C1254  N1268   1.390   .     A
C1254  C1358   1.445   .     S
C1255  N1267   1.368   .     A
C1255  C1296   1.476   .     S
C1255  C1460   1.445   1_455 S
C1256  C1300   1.481   .     S
C1256  N1267   1.402   .     A
C1256  C1463   1.442   1_455 S
C1257  N1268   1.355   .     A
C1257  O1304   1.385   .     S
C1257  C1359   1.442   .     S
C1258  O1274   1.320   .     A
C1258  O1273   1.299   .     A
C1259  O1276   1.320   .     A
C1259  O1275   1.311   .     A
C1259  C1261   1.472   .     S
C1262  C1263   1.396   .     A
C1262  C1318   1.456   .     S
C1263  C337    1.392   1_556 S
C1263  O400    1.392   1_556 S
C1264  O1322   1.383   .     S
N1267  Zn1277  2.062   .     S
N1268  Zn1278  2.062   .     S
O1269  Zn1277  2.014   .     S
O1270  Zn1278  1.997   .     S
O1271  Zn1277  2.031   .     S
O1272  Zn1278  2.017   .     S
O1273  Zn1277  1.997   .     S
O1274  Zn1278  2.014   .     S
O1275  Zn1277  2.017   .     S
O1276  Zn1278  2.031   .     S
O1279  C1280   1.410   .     S
C1280  H1282   1.114   .     S
C1280  H1283   1.092   .     S
C1280  H1281   1.109   .     S
C1284  O1286   1.394   .     S
C1284  O1285   1.222   .     D
O1286  H1287   1.013   .     S
C1288  O1289   1.220   .     D
C1288  O1290   1.400   .     S
O1290  H1291   1.012   .     S
C1292  O1293   1.215   .     D
C1292  O1294   1.396   .     S
O1294  H1295   1.014   .     S
C1296  O1298   1.390   .     S
C1296  O1297   1.215   .     D
O1298  H1299   1.014   .     S
C1300  O1302   1.394   .     S
C1300  O1301   1.206   .     D
O1302  H1303   1.012   .     S
O1304  C1305   1.411   .     S
C1305  H1307   1.109   .     S
C1305  H1306   1.106   .     S
C1305  H1308   1.110   .     S
O1309  C1310   1.413   .     S
C1310  H1312   1.107   .     S
C1310  H1311   1.108   .     S
C1310  H1416   1.105   .     S
H1313  C1516   1.105   1_455 S
C1314  O1316   1.397   .     S
C1314  C333    1.451   1_556 S
C1314  O1418   1.220   .     S
O1315  C1520   1.220   1_455 S
O1316  H1317   1.007   .     S
C1318  O1319   1.220   .     D
C1318  O1320   1.399   .     S
O1320  H1321   1.013   .     S
O1322  C1323   1.417   .     S
C1323  H1324   1.112   .     S
C1323  H1325   1.111   .     S
C1323  H1326   1.108   .     S
O1327  C1328   1.411   .     S
C1328  H1329   1.114   .     S
C1328  H1331   1.109   .     S
C1328  H1330   1.109   .     S
C1332  O1334   1.396   .     S
C1332  O1333   1.222   .     D
O1334  H1335   1.013   .     S
C1336  O1338   1.395   .     S
C1336  O1337   1.222   .     D
O1338  H1339   1.014   .     S
C1340  O1373   1.303   .     A
C1340  O1372   1.320   .     A
C1340  C1356   1.455   .     S
C1341  C1342   1.410   .     A
C1341  C416    1.409   1_556 S
C1341  C440    1.404   1_556 S
C1342  C1346   1.417   .     A
C1342  C1349   1.430   .     A
C1343  C1347   1.402   .     A
C1344  C1345   1.412   .     A
C1344  C416    1.409   1_556 S
C1344  C436    1.406   1_556 S
C1345  O1412   1.387   .     S
C1345  C1346   1.414   .     A
C1346  C1435   1.485   .     S
C1347  C1364   1.393   .     A
C1347  H1369   1.076   .     S
C1348  C1364   1.402   .     A
C1348  O1382   1.380   .     S
C1348  C1363   1.402   .     A
C1349  C1365   1.422   .     A
C1349  C1351   1.486   .     S
C1350  C1356   1.416   .     A
C1350  C1439   1.484   .     S
C1350  C1661   1.373   .     S
C1351  O1375   1.312   .     A
C1351  O1374   1.324   .     A
C1352  H1368   1.076   .     S
C1352  C1353   1.385   .     A
C1353  C1361   1.445   .     S
C1353  C1354   1.418   .     A
C1354  C1387   1.501   .     S
C1355  C1356   1.409   .     A
C1355  C1391   1.500   .     S
C1355  C1663   1.404   .     S
C1357  C1395   1.482   .     S
C1357  N1371   1.390   .     A
C1357  C1461   1.445   .     S
C1358  N1370   1.368   .     A
C1358  C1399   1.476   .     S
C1359  C1403   1.481   .     S
C1359  N1370   1.402   .     A
C1360  N1371   1.355   .     A
C1360  O1407   1.385   .     S
C1360  C1462   1.442   .     S
C1361  O1377   1.320   .     A
C1361  O1376   1.299   .     A
C1362  O1379   1.320   .     A
C1362  O1378   1.311   .     A
C1362  C1364   1.472   .     S
C1365  C1366   1.396   .     A
C1365  C1421   1.456   .     S
C1366  C440    1.392   1_556 S
C1366  O503    1.392   1_556 S
C1367  O1425   1.383   .     S
N1370  Zn1380  2.062   .     S
N1371  Zn1381  2.062   .     S
O1372  Zn1380  2.014   .     S
O1373  Zn1381  1.997   .     S
O1374  Zn1380  2.031   .     S
O1375  Zn1381  2.017   .     S
O1376  Zn1380  1.997   .     S
O1377  Zn1381  2.014   .     S
O1378  Zn1380  2.017   .     S
O1379  Zn1381  2.031   .     S
O1382  C1383   1.410   .     S
C1383  H1385   1.114   .     S
C1383  H1386   1.092   .     S
C1383  H1384   1.109   .     S
C1387  O1389   1.394   .     S
C1387  O1388   1.222   .     D
O1389  H1390   1.013   .     S
C1391  O1392   1.220   .     D
C1391  O1393   1.400   .     S
O1393  H1394   1.012   .     S
C1395  O1396   1.215   .     D
C1395  O1397   1.396   .     S
O1397  H1398   1.014   .     S
C1399  O1401   1.390   .     S
C1399  O1400   1.215   .     D
O1401  H1402   1.014   .     S
C1403  O1405   1.394   .     S
C1403  O1404   1.206   .     D
O1405  H1406   1.012   .     S
O1407  C1408   1.411   .     S
C1408  H1410   1.109   .     S
C1408  H1409   1.106   .     S
C1408  H1411   1.110   .     S
O1412  C1413   1.413   .     S
C1413  H1415   1.107   .     S
C1413  H1414   1.108   .     S
C1413  H1519   1.105   .     S
C1417  O1419   1.397   .     S
C1417  C436    1.451   1_556 S
C1417  O1521   1.220   .     S
O1419  H1420   1.007   .     S
C1421  O1422   1.220   .     D
C1421  O1423   1.399   .     S
O1423  H1424   1.013   .     S
O1425  C1426   1.417   .     S
C1426  H1427   1.112   .     S
C1426  H1428   1.111   .     S
C1426  H1429   1.108   .     S
O1430  C1431   1.411   .     S
C1431  H1432   1.114   .     S
C1431  H1434   1.109   .     S
C1431  H1433   1.109   .     S
C1435  O1437   1.396   .     S
C1435  O1436   1.222   .     D
O1437  H1438   1.013   .     S
C1439  O1441   1.395   .     S
C1439  O1440   1.222   .     D
O1441  H1442   1.014   .     S
C1443  O1476   1.303   .     A
C1443  O1475   1.320   .     A
C1443  C1459   1.455   .     S
C1444  C1445   1.410   .     A
C1444  C519    1.409   1_556 S
C1444  C543    1.404   1_556 S
C1445  C1449   1.417   .     A
C1445  C1452   1.430   .     A
C1446  C1450   1.402   .     A
C1447  C1448   1.412   .     A
C1447  C519    1.409   1_556 S
C1447  C539    1.406   1_556 S
C1448  O1515   1.387   .     S
C1448  C1449   1.414   .     A
C1449  C1538   1.485   .     S
C1450  C1467   1.393   .     A
C1450  H1472   1.076   .     S
C1451  C1467   1.402   .     A
C1451  O1485   1.380   .     S
C1451  C1466   1.402   .     A
C1452  C1468   1.422   .     A
C1452  C1454   1.486   .     S
C1453  C1459   1.416   .     A
C1453  C1542   1.484   .     S
C1453  C1764   1.373   .     S
C1454  O1478   1.312   .     A
C1454  O1477   1.324   .     A
C1455  H1471   1.076   .     S
C1455  C1456   1.385   .     A
C1456  C1464   1.445   .     S
C1456  C1457   1.418   .     A
C1457  C1490   1.501   .     S
C1458  C1459   1.409   .     A
C1458  C1494   1.500   .     S
C1458  C1766   1.404   .     S
C1460  C1498   1.482   .     S
C1460  N1474   1.390   .     A
C1460  C1255   1.445   1_655 S
C1461  N1473   1.368   .     A
C1461  C1502   1.476   .     S
C1462  C1506   1.481   .     S
C1462  N1473   1.402   .     A
C1463  N1474   1.355   .     A
C1463  O1510   1.385   .     S
C1463  C1256   1.442   1_655 S
C1464  O1480   1.320   .     A
C1464  O1479   1.299   .     A
C1465  O1482   1.320   .     A
C1465  O1481   1.311   .     A
C1465  C1467   1.472   .     S
C1468  C1469   1.396   .     A
C1468  C1524   1.456   .     S
C1469  C543    1.392   1_556 S
C1469  O606    1.392   1_556 S
C1470  O1528   1.383   .     S
N1473  Zn1483  2.062   .     S
N1474  Zn1484  2.062   .     S
O1475  Zn1483  2.014   .     S
O1476  Zn1484  1.997   .     S
O1477  Zn1483  2.031   .     S
O1478  Zn1484  2.017   .     S
O1479  Zn1483  1.997   .     S
O1480  Zn1484  2.014   .     S
O1481  Zn1483  2.017   .     S
O1482  Zn1484  2.031   .     S
O1485  C1486   1.410   .     S
C1486  H1488   1.114   .     S
C1486  H1489   1.092   .     S
C1486  H1487   1.109   .     S
C1490  O1492   1.394   .     S
C1490  O1491   1.222   .     D
O1492  H1493   1.013   .     S
C1494  O1495   1.220   .     D
C1494  O1496   1.400   .     S
O1496  H1497   1.012   .     S
C1498  O1499   1.215   .     D
C1498  O1500   1.396   .     S
O1500  H1501   1.014   .     S
C1502  O1504   1.390   .     S
C1502  O1503   1.215   .     D
O1504  H1505   1.014   .     S
C1506  O1508   1.394   .     S
C1506  O1507   1.206   .     D
O1508  H1509   1.012   .     S
O1510  C1511   1.411   .     S
C1511  H1513   1.109   .     S
C1511  H1512   1.106   .     S
C1511  H1514   1.110   .     S
O1515  C1516   1.413   .     S
C1516  H1518   1.107   .     S
C1516  H1517   1.108   .     S
C1516  H1313   1.105   1_655 S
C1520  O1522   1.397   .     S
C1520  C539    1.451   1_556 S
C1520  O1315   1.220   1_655 S
O1522  H1523   1.007   .     S
C1524  O1525   1.220   .     D
C1524  O1526   1.399   .     S
O1526  H1527   1.013   .     S
O1528  C1529   1.417   .     S
C1529  H1530   1.112   .     S
C1529  H1531   1.111   .     S
C1529  H1532   1.108   .     S
O1533  C1534   1.411   .     S
C1534  H1535   1.114   .     S
C1534  H1537   1.109   .     S
C1534  H1536   1.109   .     S
C1538  O1540   1.396   .     S
C1538  O1539   1.222   .     D
O1540  H1541   1.013   .     S
C1542  O1544   1.395   .     S
C1542  O1543   1.222   .     D
O1544  H1545   1.014   .     S
C1546  O1579   1.303   .     A
C1546  O1578   1.320   .     A
C1546  C1562   1.455   .     S
C1547  C1548   1.410   .     A
C1547  C622    1.409   1_556 S
C1547  C646    1.404   1_556 S
C1548  C1552   1.417   .     A
C1548  C1555   1.430   .     A
C1549  C1553   1.402   .     A
C1550  C1551   1.412   .     A
C1550  C622    1.409   1_556 S
C1550  C642    1.406   1_556 S
C1551  O1618   1.387   .     S
C1551  C1552   1.414   .     A
C1552  C1641   1.485   .     S
C1553  C1570   1.393   .     A
C1553  H1575   1.076   .     S
C1554  C1570   1.402   .     A
C1554  O1588   1.380   .     S
C1554  C1569   1.402   .     A
C1555  C1571   1.422   .     A
C1555  C1557   1.486   .     S
C1556  C1562   1.416   .     A
C1556  C1645   1.484   .     S
C1556  C940    1.373   1_565 S
C1557  O1581   1.312   .     A
C1557  O1580   1.324   .     A
C1558  H1574   1.076   .     S
C1558  C1559   1.385   .     A
C1559  C1567   1.445   .     S
C1559  C1560   1.418   .     A
C1560  C1593   1.501   .     S
C1561  C1562   1.409   .     A
C1561  C1597   1.500   .     S
C1561  C942    1.404   1_565 S
C1563  C1601   1.482   .     S
C1563  N1577   1.390   .     A
C1563  C1667   1.445   .     S
C1564  N1576   1.368   .     A
C1564  C1605   1.476   .     S
C1564  C1769   1.445   1_455 S
C1565  C1609   1.481   .     S
C1565  N1576   1.402   .     A
C1565  C1772   1.442   1_455 S
C1566  N1577   1.355   .     A
C1566  O1613   1.385   .     S
C1566  C1668   1.442   .     S
C1567  O1583   1.320   .     A
C1567  O1582   1.299   .     A
C1568  O1585   1.320   .     A
C1568  O1584   1.311   .     A
C1568  C1570   1.472   .     S
C1571  C1572   1.396   .     A
C1571  C1627   1.456   .     S
C1572  C646    1.392   1_556 S
C1572  O709    1.392   1_556 S
C1573  O1631   1.383   .     S
N1576  Zn1586  2.062   .     S
N1577  Zn1587  2.062   .     S
O1578  Zn1586  2.014   .     S
O1579  Zn1587  1.997   .     S
O1580  Zn1586  2.031   .     S
O1581  Zn1587  2.017   .     S
O1582  Zn1586  1.997   .     S
O1583  Zn1587  2.014   .     S
O1584  Zn1586  2.017   .     S
O1585  Zn1587  2.031   .     S
O1588  C1589   1.410   .     S
C1589  H1591   1.114   .     S
C1589  H1592   1.092   .     S
C1589  H1590   1.109   .     S
C1593  O1595   1.394   .     S
C1593  O1594   1.222   .     D
O1595  H1596   1.013   .     S
C1597  O1598   1.220   .     D
C1597  O1599   1.400   .     S
O1599  H1600   1.012   .     S
C1601  O1602   1.215   .     D
C1601  O1603   1.396   .     S
O1603  H1604   1.014   .     S
C1605  O1607   1.390   .     S
C1605  O1606   1.215   .     D
O1607  H1608   1.014   .     S
C1609  O1611   1.394   .     S
C1609  O1610   1.206   .     D
O1611  H1612   1.012   .     S
O1613  C1614   1.411   .     S
C1614  H1616   1.109   .     S
C1614  H1615   1.106   .     S
C1614  H1617   1.110   .     S
O1618  C1619   1.413   .     S
C1619  H1621   1.107   .     S
C1619  H1620   1.108   .     S
C1619  H1725   1.105   .     S
H1622  C1825   1.105   1_455 S
C1623  O1625   1.397   .     S
C1623  C642    1.451   1_556 S
C1623  O1727   1.220   .     S
O1624  C1829   1.220   1_455 S
O1625  H1626   1.007   .     S
C1627  O1628   1.220   .     D
C1627  O1629   1.399   .     S
O1629  H1630   1.013   .     S
O1631  C1632   1.417   .     S
C1632  H1633   1.112   .     S
C1632  H1634   1.111   .     S
C1632  H1635   1.108   .     S
O1636  C1637   1.411   .     S
C1637  H1638   1.114   .     S
C1637  H1640   1.109   .     S
C1637  H1639   1.109   .     S
C1641  O1643   1.396   .     S
C1641  O1642   1.222   .     D
O1643  H1644   1.013   .     S
C1645  O1647   1.395   .     S
C1645  O1646   1.222   .     D
O1647  H1648   1.014   .     S
C1649  O1682   1.303   .     A
C1649  O1681   1.320   .     A
C1649  C1665   1.455   .     S
C1650  C1651   1.410   .     A
C1650  C725    1.409   1_556 S
C1650  C749    1.404   1_556 S
C1651  C1655   1.417   .     A
C1651  C1658   1.430   .     A
C1652  C1656   1.402   .     A
C1653  C1654   1.412   .     A
C1653  C725    1.409   1_556 S
C1653  C745    1.406   1_556 S
C1654  O1721   1.387   .     S
C1654  C1655   1.414   .     A
C1655  C1744   1.485   .     S
C1656  C1673   1.393   .     A
C1656  H1678   1.076   .     S
C1657  C1673   1.402   .     A
C1657  O1691   1.380   .     S
C1657  C1672   1.402   .     A
C1658  C1674   1.422   .     A
C1658  C1660   1.486   .     S
C1659  C1665   1.416   .     A
C1659  C1748   1.484   .     S
C1659  C1043   1.373   1_565 S
C1660  O1684   1.312   .     A
C1660  O1683   1.324   .     A
C1661  H1677   1.076   .     S
C1661  C1662   1.385   .     A
C1662  C1670   1.445   .     S
C1662  C1663   1.418   .     A
C1663  C1696   1.501   .     S
C1664  C1665   1.409   .     A
C1664  C1700   1.500   .     S
C1664  C1045   1.404   1_565 S
C1666  C1704   1.482   .     S
C1666  N1680   1.390   .     A
C1666  C1770   1.445   .     S
C1667  N1679   1.368   .     A
C1667  C1708   1.476   .     S
C1668  C1712   1.481   .     S
C1668  N1679   1.402   .     A
C1669  N1680   1.355   .     A
C1669  O1716   1.385   .     S
C1669  C1771   1.442   .     S
C1670  O1686   1.320   .     A
C1670  O1685   1.299   .     A
C1671  O1688   1.320   .     A
C1671  O1687   1.311   .     A
C1671  C1673   1.472   .     S
C1674  C1675   1.396   .     A
C1674  C1730   1.456   .     S
C1675  C749    1.392   1_556 S
C1675  O812    1.392   1_556 S
C1676  O1734   1.383   .     S
N1679  Zn1689  2.062   .     S
N1680  Zn1690  2.062   .     S
O1681  Zn1689  2.014   .     S
O1682  Zn1690  1.997   .     S
O1683  Zn1689  2.031   .     S
O1684  Zn1690  2.017   .     S
O1685  Zn1689  1.997   .     S
O1686  Zn1690  2.014   .     S
O1687  Zn1689  2.017   .     S
O1688  Zn1690  2.031   .     S
O1691  C1692   1.410   .     S
C1692  H1694   1.114   .     S
C1692  H1695   1.092   .     S
C1692  H1693   1.109   .     S
C1696  O1698   1.394   .     S
C1696  O1697   1.222   .     D
O1698  H1699   1.013   .     S
C1700  O1701   1.220   .     D
C1700  O1702   1.400   .     S
O1702  H1703   1.012   .     S
C1704  O1705   1.215   .     D
C1704  O1706   1.396   .     S
O1706  H1707   1.014   .     S
C1708  O1710   1.390   .     S
C1708  O1709   1.215   .     D
O1710  H1711   1.014   .     S
C1712  O1714   1.394   .     S
C1712  O1713   1.206   .     D
O1714  H1715   1.012   .     S
O1716  C1717   1.411   .     S
C1717  H1719   1.109   .     S
C1717  H1718   1.106   .     S
C1717  H1720   1.110   .     S
O1721  C1722   1.413   .     S
C1722  H1724   1.107   .     S
C1722  H1723   1.108   .     S
C1722  H1828   1.105   .     S
C1726  O1728   1.397   .     S
C1726  C745    1.451   1_556 S
C1726  O1830   1.220   .     S
O1728  H1729   1.007   .     S
C1730  O1731   1.220   .     D
C1730  O1732   1.399   .     S
O1732  H1733   1.013   .     S
O1734  C1735   1.417   .     S
C1735  H1736   1.112   .     S
C1735  H1737   1.111   .     S
C1735  H1738   1.108   .     S
O1739  C1740   1.411   .     S
C1740  H1741   1.114   .     S
C1740  H1743   1.109   .     S
C1740  H1742   1.109   .     S
C1744  O1746   1.396   .     S
C1744  O1745   1.222   .     D
O1746  H1747   1.013   .     S
C1748  O1750   1.395   .     S
C1748  O1749   1.222   .     D
O1750  H1751   1.014   .     S
C1752  O1785   1.303   .     A
C1752  O1784   1.320   .     A
C1752  C1768   1.455   .     S
C1753  C1754   1.410   .     A
C1753  C828    1.409   1_556 S
C1753  C852    1.404   1_556 S
C1754  C1758   1.417   .     A
C1754  C1761   1.430   .     A
C1755  C1759   1.402   .     A
C1756  C1757   1.412   .     A
C1756  C828    1.409   1_556 S
C1756  C848    1.406   1_556 S
C1757  O1824   1.387   .     S
C1757  C1758   1.414   .     A
C1758  C1847   1.485   .     S
C1759  C1776   1.393   .     A
C1759  H1781   1.076   .     S
C1760  C1776   1.402   .     A
C1760  O1794   1.380   .     S
C1760  C1775   1.402   .     A
C1761  C1777   1.422   .     A
C1761  C1763   1.486   .     S
C1762  C1768   1.416   .     A
C1762  C1851   1.484   .     S
C1762  C1146   1.373   1_565 S
C1763  O1787   1.312   .     A
C1763  O1786   1.324   .     A
C1764  H1780   1.076   .     S
C1764  C1765   1.385   .     A
C1765  C1773   1.445   .     S
C1765  C1766   1.418   .     A
C1766  C1799   1.501   .     S
C1767  C1768   1.409   .     A
C1767  C1803   1.500   .     S
C1767  C1148   1.404   1_565 S
C1769  C1807   1.482   .     S
C1769  N1783   1.390   .     A
C1769  C1564   1.445   1_655 S
C1770  N1782   1.368   .     A
C1770  C1811   1.476   .     S
C1771  C1815   1.481   .     S
C1771  N1782   1.402   .     A
C1772  N1783   1.355   .     A
C1772  O1819   1.385   .     S
C1772  C1565   1.442   1_655 S
C1773  O1789   1.320   .     A
C1773  O1788   1.299   .     A
C1774  O1791   1.320   .     A
C1774  O1790   1.311   .     A
C1774  C1776   1.472   .     S
C1777  C1778   1.396   .     A
C1777  C1833   1.456   .     S
C1778  C852    1.392   1_556 S
C1778  O915    1.392   1_556 S
C1779  O1837   1.383   .     S
N1782  Zn1792  2.062   .     S
N1783  Zn1793  2.062   .     S
O1784  Zn1792  2.014   .     S
O1785  Zn1793  1.997   .     S
O1786  Zn1792  2.031   .     S
O1787  Zn1793  2.017   .     S
O1788  Zn1792  1.997   .     S
O1789  Zn1793  2.014   .     S
O1790  Zn1792  2.017   .     S
O1791  Zn1793  2.031   .     S
O1794  C1795   1.410   .     S
C1795  H1797   1.114   .     S
C1795  H1798   1.092   .     S
C1795  H1796   1.109   .     S
C1799  O1801   1.394   .     S
C1799  O1800   1.222   .     D
O1801  H1802   1.013   .     S
C1803  O1804   1.220   .     D
C1803  O1805   1.400   .     S
O1805  H1806   1.012   .     S
C1807  O1808   1.215   .     D
C1807  O1809   1.396   .     S
O1809  H1810   1.014   .     S
C1811  O1813   1.390   .     S
C1811  O1812   1.215   .     D
O1813  H1814   1.014   .     S
C1815  O1817   1.394   .     S
C1815  O1816   1.206   .     D
O1817  H1818   1.012   .     S
O1819  C1820   1.411   .     S
C1820  H1822   1.109   .     S
C1820  H1821   1.106   .     S
C1820  H1823   1.110   .     S
O1824  C1825   1.413   .     S
C1825  H1827   1.107   .     S
C1825  H1826   1.108   .     S
C1825  H1622   1.105   1_655 S
C1829  O1831   1.397   .     S
C1829  C848    1.451   1_556 S
C1829  O1624   1.220   1_655 S
O1831  H1832   1.007   .     S
C1833  O1834   1.220   .     D
C1833  O1835   1.399   .     S
O1835  H1836   1.013   .     S
O1837  C1838   1.417   .     S
C1838  H1839   1.112   .     S
C1838  H1840   1.111   .     S
C1838  H1841   1.108   .     S
O1842  C1843   1.411   .     S
C1843  H1844   1.114   .     S
C1843  H1846   1.109   .     S
C1843  H1845   1.109   .     S
C1847  O1849   1.396   .     S
C1847  O1848   1.222   .     D
O1849  H1850   1.013   .     S
C1851  O1853   1.395   .     S
C1851  O1852   1.222   .     D
O1853  H1854   1.014   .     S
