data_str_m3_o1_o16_pcu_sym.263
_audit_creation_date              2020-01-03
_audit_creation_method            'Materials Studio'
_symmetry_space_group_name_H-M    'P1'
_symmetry_Int_Tables_number       1
_symmetry_cell_setting            triclinic
loop_
_symmetry_equiv_pos_as_xyz
  x,y,z
_cell_length_a                    29.6425
_cell_length_b                    32.1217
_cell_length_c                    26.2749
_cell_angle_alpha                 90.4965
_cell_angle_beta                  69.5701
_cell_angle_gamma                 89.6962
loop_
_atom_site_label
_atom_site_type_symbol
_atom_site_fract_x
_atom_site_fract_y
_atom_site_fract_z
_atom_site_U_iso_or_equiv
_atom_site_adp_type
_atom_site_occupancy
C1     C     0.16653   0.24667   0.25025   0.00000  Uiso   1.00
C2     C     0.14450   0.15606   0.49197   0.00000  Uiso   1.00
C3     C     0.15516   0.14558   0.43686   0.00000  Uiso   1.00
C4     C     0.18170   0.15265   0.01385   0.00000  Uiso   1.00
C5     C     0.22583   0.13245   0.48396   0.00000  Uiso   1.00
C6     C     0.23274   0.11647   0.43234   0.00000  Uiso   1.00
C7     C     0.19779   0.12276   0.40910   0.00000  Uiso   1.00
C8     C     0.17641   0.16959   0.06444   0.00000  Uiso   1.00
C9     C     0.25356   0.14138   0.05991   0.00000  Uiso   1.00
C10    C     0.12301   0.15870   0.41100   0.00000  Uiso   1.00
C11    C     0.20173   0.31194   0.26424   0.00000  Uiso   1.00
C12    C     0.14003   0.16377   0.35203   0.00000  Uiso   1.00
C13    C     0.20190   0.02127   0.26401   0.00000  Uiso   1.00
C14    C     0.16669   0.04251   0.25016   0.00000  Uiso   1.00
C15    C     0.13119   0.02140   0.23675   0.00000  Uiso   1.00
C16    C     0.13099   0.31209   0.23703   0.00000  Uiso   1.00
C17    C     0.16634   0.29084   0.25061   0.00000  Uiso   1.00
C18    C     0.32222   0.14765   0.20903   0.00000  Uiso   1.00
C19    C     0.03672   0.14757   0.20908   0.00000  Uiso   1.00
C20    C     0.01023   0.18564   0.29149   0.00000  Uiso   1.00
C21    C     0.29599   0.18523   0.29105   0.00000  Uiso   1.00
C22    C     0.16674   0.08667   0.24996   0.00000  Uiso   1.00
C23    C     0.19350   0.16659   0.14777   0.00000  Uiso   1.00
C24    C     0.26193   0.12778   0.00679   0.00000  Uiso   1.00
C25    C     0.20995   0.16129   0.08913   0.00000  Uiso   1.00
C26    C     0.07643   0.17203   0.44230   0.00000  Uiso   1.00
C27    C     0.06306   0.17591   0.49829   0.00000  Uiso   1.00
C28    C     0.09701   0.16926   0.02300   0.00000  Uiso   1.00
H29    H     0.27995   0.13476   0.07877   0.00000  Uiso   1.00
H30    H     0.22919   0.03750   0.27499   0.00000  Uiso   1.00
H31    H     0.10396   0.03773   0.22564   0.00000  Uiso   1.00
H32    H     0.10365   0.29587   0.22612   0.00000  Uiso   1.00
H33    H     0.31445   0.13245   0.17615   0.00000  Uiso   1.00
H34    H     0.06490   0.13220   0.17629   0.00000  Uiso   1.00
H35    H     0.26711   0.20051   0.32325   0.00000  Uiso   1.00
H36    H     0.26545   0.09962   0.40957   0.00000  Uiso   1.00
H37    H     0.29563   0.11215   0.48445   0.00000  Uiso   1.00
H38    H     0.14525   0.18828   0.08657   0.00000  Uiso   1.00
H39    H     0.05081   0.18048   0.42336   0.00000  Uiso   1.00
H40    H     0.08476   0.17342   0.06653   0.00000  Uiso   1.00
H41    H     0.02686   0.18584   0.02236   0.00000  Uiso   1.00
H42    H     0.20422   0.10891   0.36949   0.00000  Uiso   1.00
H43    H     0.22896   0.29559   0.27533   0.00000  Uiso   1.00
N44    N     0.04760   0.16668   0.25002   0.00000  Uiso   1.00
N45    N     0.28573   0.16665   0.25001   0.00000  Uiso   1.00
O46    O     0.12846   0.22775   0.25001   0.00000  Uiso   1.00
O47    O     0.20490   0.22774   0.25001   0.00000  Uiso   1.00
O48    O     0.10947   0.16666   0.32681   0.00000  Uiso   1.00
O49    O     0.18591   0.16665   0.32681   0.00000  Uiso   1.00
O50    O     0.12843   0.10559   0.25000   0.00000  Uiso   1.00
O51    O     0.20488   0.10558   0.25000   0.00000  Uiso   1.00
O52    O     0.14742   0.16668   0.17319   0.00000  Uiso   1.00
O53    O     0.22387   0.16667   0.17319   0.00000  Uiso   1.00
Zn54   Zn    0.11562   0.16667   0.25000   0.00000  Uiso   1.00
Zn55   Zn    0.21771   0.16666   0.25000   0.00000  Uiso   1.00
C56    C     0.01678   0.20755   0.33803   0.00000  Uiso   1.00
O57    O     0.05038   0.23110   0.33142   0.00000  Uiso   1.00
O58    O     0.31458   0.20422   0.38951   0.00000  Uiso   1.00
H59    H     0.32055   0.22306   0.41763   0.00000  Uiso   1.00
C60    C     0.49986   0.24667   0.25025   0.00000  Uiso   1.00
C61    C     0.47783   0.15606   0.49197   0.00000  Uiso   1.00
C62    C     0.48849   0.14558   0.43686   0.00000  Uiso   1.00
C63    C     0.51503   0.15265   0.01385   0.00000  Uiso   1.00
C64    C     0.55916   0.13245   0.48396   0.00000  Uiso   1.00
C65    C     0.56607   0.11647   0.43234   0.00000  Uiso   1.00
C66    C     0.53112   0.12276   0.40910   0.00000  Uiso   1.00
C67    C     0.50974   0.16959   0.06444   0.00000  Uiso   1.00
C68    C     0.58689   0.14138   0.05991   0.00000  Uiso   1.00
C69    C     0.45634   0.15870   0.41100   0.00000  Uiso   1.00
C70    C     0.53506   0.31194   0.26424   0.00000  Uiso   1.00
C71    C     0.47336   0.16377   0.35203   0.00000  Uiso   1.00
C72    C     0.53524   0.02127   0.26401   0.00000  Uiso   1.00
C73    C     0.50002   0.04251   0.25016   0.00000  Uiso   1.00
C74    C     0.46453   0.02140   0.23675   0.00000  Uiso   1.00
C75    C     0.46432   0.31209   0.23703   0.00000  Uiso   1.00
C76    C     0.49967   0.29084   0.25061   0.00000  Uiso   1.00
C77    C     0.65555   0.14765   0.20903   0.00000  Uiso   1.00
C78    C     0.37006   0.14757   0.20908   0.00000  Uiso   1.00
C79    C     0.34356   0.18564   0.29149   0.00000  Uiso   1.00
C80    C     0.62932   0.18523   0.29105   0.00000  Uiso   1.00
C81    C     0.50007   0.08667   0.24996   0.00000  Uiso   1.00
C82    C     0.52683   0.16659   0.14777   0.00000  Uiso   1.00
C83    C     0.59526   0.12778   0.00679   0.00000  Uiso   1.00
C84    C     0.54328   0.16129   0.08913   0.00000  Uiso   1.00
C85    C     0.40976   0.17203   0.44230   0.00000  Uiso   1.00
C86    C     0.39640   0.17591   0.49829   0.00000  Uiso   1.00
C87    C     0.43034   0.16926   0.02300   0.00000  Uiso   1.00
H88    H     0.61328   0.13476   0.07877   0.00000  Uiso   1.00
H89    H     0.56253   0.03750   0.27499   0.00000  Uiso   1.00
H90    H     0.43729   0.03773   0.22564   0.00000  Uiso   1.00
H91    H     0.43698   0.29587   0.22612   0.00000  Uiso   1.00
H92    H     0.64778   0.13245   0.17615   0.00000  Uiso   1.00
H93    H     0.39824   0.13220   0.17629   0.00000  Uiso   1.00
H94    H     0.60045   0.20051   0.32325   0.00000  Uiso   1.00
H95    H     0.59878   0.09962   0.40957   0.00000  Uiso   1.00
H96    H     0.62896   0.11215   0.48445   0.00000  Uiso   1.00
H97    H     0.47858   0.18828   0.08657   0.00000  Uiso   1.00
H98    H     0.38415   0.18048   0.42336   0.00000  Uiso   1.00
H99    H     0.41809   0.17342   0.06653   0.00000  Uiso   1.00
H100   H     0.36020   0.18584   0.02236   0.00000  Uiso   1.00
H101   H     0.53755   0.10891   0.36949   0.00000  Uiso   1.00
H102   H     0.56229   0.29559   0.27533   0.00000  Uiso   1.00
N103   N     0.38093   0.16668   0.25002   0.00000  Uiso   1.00
N104   N     0.61906   0.16665   0.25001   0.00000  Uiso   1.00
O105   O     0.46179   0.22775   0.25001   0.00000  Uiso   1.00
O106   O     0.53823   0.22774   0.25001   0.00000  Uiso   1.00
O107   O     0.44280   0.16666   0.32681   0.00000  Uiso   1.00
O108   O     0.51924   0.16665   0.32681   0.00000  Uiso   1.00
O109   O     0.46177   0.10559   0.25000   0.00000  Uiso   1.00
O110   O     0.53821   0.10558   0.25000   0.00000  Uiso   1.00
O111   O     0.48076   0.16668   0.17319   0.00000  Uiso   1.00
O112   O     0.55720   0.16667   0.17319   0.00000  Uiso   1.00
Zn113  Zn    0.44896   0.16667   0.25000   0.00000  Uiso   1.00
Zn114  Zn    0.55104   0.16666   0.25000   0.00000  Uiso   1.00
C115   C     0.35011   0.20755   0.33803   0.00000  Uiso   1.00
O116   O     0.38372   0.23110   0.33142   0.00000  Uiso   1.00
O117   O     0.64791   0.20422   0.38951   0.00000  Uiso   1.00
H118   H     0.65388   0.22306   0.41763   0.00000  Uiso   1.00
C119   C     0.83320   0.24667   0.25025   0.00000  Uiso   1.00
C120   C     0.81117   0.15606   0.49197   0.00000  Uiso   1.00
C121   C     0.82183   0.14558   0.43686   0.00000  Uiso   1.00
C122   C     0.84836   0.15265   0.01385   0.00000  Uiso   1.00
C123   C     0.89250   0.13245   0.48396   0.00000  Uiso   1.00
C124   C     0.89940   0.11647   0.43234   0.00000  Uiso   1.00
C125   C     0.86445   0.12276   0.40910   0.00000  Uiso   1.00
C126   C     0.84307   0.16959   0.06444   0.00000  Uiso   1.00
C127   C     0.92023   0.14138   0.05991   0.00000  Uiso   1.00
C128   C     0.78967   0.15870   0.41100   0.00000  Uiso   1.00
C129   C     0.86839   0.31194   0.26424   0.00000  Uiso   1.00
C130   C     0.80669   0.16377   0.35203   0.00000  Uiso   1.00
C131   C     0.86857   0.02127   0.26401   0.00000  Uiso   1.00
C132   C     0.83336   0.04251   0.25016   0.00000  Uiso   1.00
C133   C     0.79786   0.02140   0.23675   0.00000  Uiso   1.00
C134   C     0.79765   0.31209   0.23703   0.00000  Uiso   1.00
C135   C     0.83301   0.29084   0.25061   0.00000  Uiso   1.00
C136   C     0.98889   0.14765   0.20903   0.00000  Uiso   1.00
C137   C     0.70339   0.14757   0.20908   0.00000  Uiso   1.00
C138   C     0.67690   0.18564   0.29149   0.00000  Uiso   1.00
C139   C     0.96266   0.18523   0.29105   0.00000  Uiso   1.00
C140   C     0.83340   0.08667   0.24996   0.00000  Uiso   1.00
C141   C     0.86016   0.16659   0.14777   0.00000  Uiso   1.00
C142   C     0.92859   0.12778   0.00679   0.00000  Uiso   1.00
C143   C     0.87661   0.16129   0.08913   0.00000  Uiso   1.00
C144   C     0.74309   0.17203   0.44230   0.00000  Uiso   1.00
C145   C     0.72973   0.17591   0.49829   0.00000  Uiso   1.00
C146   C     0.76368   0.16926   0.02300   0.00000  Uiso   1.00
H147   H     0.94662   0.13476   0.07877   0.00000  Uiso   1.00
H148   H     0.89586   0.03750   0.27499   0.00000  Uiso   1.00
H149   H     0.77063   0.03773   0.22564   0.00000  Uiso   1.00
H150   H     0.77031   0.29587   0.22612   0.00000  Uiso   1.00
H151   H     0.98111   0.13245   0.17615   0.00000  Uiso   1.00
H152   H     0.73157   0.13220   0.17629   0.00000  Uiso   1.00
H153   H     0.93378   0.20051   0.32325   0.00000  Uiso   1.00
H154   H     0.93211   0.09962   0.40957   0.00000  Uiso   1.00
H155   H     0.96229   0.11215   0.48445   0.00000  Uiso   1.00
H156   H     0.81192   0.18828   0.08657   0.00000  Uiso   1.00
H157   H     0.71748   0.18048   0.42336   0.00000  Uiso   1.00
H158   H     0.75143   0.17342   0.06653   0.00000  Uiso   1.00
H159   H     0.69353   0.18584   0.02236   0.00000  Uiso   1.00
H160   H     0.87088   0.10891   0.36949   0.00000  Uiso   1.00
H161   H     0.89562   0.29559   0.27533   0.00000  Uiso   1.00
N162   N     0.71426   0.16668   0.25002   0.00000  Uiso   1.00
N163   N     0.95239   0.16665   0.25001   0.00000  Uiso   1.00
O164   O     0.79512   0.22775   0.25001   0.00000  Uiso   1.00
O165   O     0.87157   0.22774   0.25001   0.00000  Uiso   1.00
O166   O     0.77613   0.16666   0.32681   0.00000  Uiso   1.00
O167   O     0.85258   0.16665   0.32681   0.00000  Uiso   1.00
O168   O     0.79510   0.10559   0.25000   0.00000  Uiso   1.00
O169   O     0.87154   0.10558   0.25000   0.00000  Uiso   1.00
O170   O     0.81409   0.16668   0.17319   0.00000  Uiso   1.00
O171   O     0.89053   0.16667   0.17319   0.00000  Uiso   1.00
Zn172  Zn    0.78229   0.16667   0.25000   0.00000  Uiso   1.00
Zn173  Zn    0.88438   0.16666   0.25000   0.00000  Uiso   1.00
C174   C     0.68344   0.20755   0.33803   0.00000  Uiso   1.00
O175   O     0.71705   0.23110   0.33142   0.00000  Uiso   1.00
O176   O     0.98125   0.20422   0.38951   0.00000  Uiso   1.00
H177   H     0.98722   0.22306   0.41763   0.00000  Uiso   1.00
C178   C     0.16653   0.58000   0.25025   0.00000  Uiso   1.00
C179   C     0.14450   0.48940   0.49197   0.00000  Uiso   1.00
C180   C     0.15516   0.47891   0.43686   0.00000  Uiso   1.00
C181   C     0.18170   0.48598   0.01385   0.00000  Uiso   1.00
C182   C     0.22583   0.46578   0.48396   0.00000  Uiso   1.00
C183   C     0.23274   0.44981   0.43234   0.00000  Uiso   1.00
C184   C     0.19779   0.45609   0.40910   0.00000  Uiso   1.00
C185   C     0.17641   0.50292   0.06444   0.00000  Uiso   1.00
C186   C     0.25356   0.47472   0.05991   0.00000  Uiso   1.00
C187   C     0.12301   0.49204   0.41100   0.00000  Uiso   1.00
C188   C     0.20173   0.64527   0.26424   0.00000  Uiso   1.00
C189   C     0.14003   0.49710   0.35203   0.00000  Uiso   1.00
C190   C     0.20190   0.35460   0.26401   0.00000  Uiso   1.00
C191   C     0.16669   0.37584   0.25016   0.00000  Uiso   1.00
C192   C     0.13119   0.35474   0.23675   0.00000  Uiso   1.00
C193   C     0.13099   0.64542   0.23703   0.00000  Uiso   1.00
C194   C     0.16634   0.62417   0.25061   0.00000  Uiso   1.00
C195   C     0.32222   0.48098   0.20903   0.00000  Uiso   1.00
C196   C     0.03672   0.48091   0.20908   0.00000  Uiso   1.00
C197   C     0.01023   0.51898   0.29149   0.00000  Uiso   1.00
C198   C     0.29599   0.51856   0.29105   0.00000  Uiso   1.00
C199   C     0.16674   0.42000   0.24996   0.00000  Uiso   1.00
C200   C     0.19350   0.49993   0.14777   0.00000  Uiso   1.00
C201   C     0.26193   0.46111   0.00679   0.00000  Uiso   1.00
C202   C     0.20995   0.49463   0.08913   0.00000  Uiso   1.00
C203   C     0.07643   0.50536   0.44230   0.00000  Uiso   1.00
C204   C     0.06306   0.50924   0.49829   0.00000  Uiso   1.00
C205   C     0.09701   0.50260   0.02300   0.00000  Uiso   1.00
H206   H     0.27995   0.46810   0.07877   0.00000  Uiso   1.00
H207   H     0.22919   0.37084   0.27499   0.00000  Uiso   1.00
H208   H     0.10396   0.37106   0.22564   0.00000  Uiso   1.00
H209   H     0.10365   0.62921   0.22612   0.00000  Uiso   1.00
H210   H     0.31445   0.46579   0.17615   0.00000  Uiso   1.00
H211   H     0.06490   0.46553   0.17629   0.00000  Uiso   1.00
H212   H     0.26711   0.53384   0.32325   0.00000  Uiso   1.00
H213   H     0.26545   0.43295   0.40957   0.00000  Uiso   1.00
H214   H     0.29563   0.44549   0.48445   0.00000  Uiso   1.00
H215   H     0.14525   0.52162   0.08657   0.00000  Uiso   1.00
H216   H     0.05081   0.51382   0.42336   0.00000  Uiso   1.00
H217   H     0.08476   0.50676   0.06653   0.00000  Uiso   1.00
H218   H     0.02686   0.51918   0.02236   0.00000  Uiso   1.00
H219   H     0.20422   0.44224   0.36949   0.00000  Uiso   1.00
H220   H     0.22896   0.62893   0.27533   0.00000  Uiso   1.00
N221   N     0.04760   0.50001   0.25002   0.00000  Uiso   1.00
N222   N     0.28573   0.49998   0.25001   0.00000  Uiso   1.00
O223   O     0.12846   0.56108   0.25001   0.00000  Uiso   1.00
O224   O     0.20490   0.56107   0.25001   0.00000  Uiso   1.00
O225   O     0.10947   0.50000   0.32681   0.00000  Uiso   1.00
O226   O     0.18591   0.49999   0.32681   0.00000  Uiso   1.00
O227   O     0.12843   0.43893   0.25000   0.00000  Uiso   1.00
O228   O     0.20488   0.43892   0.25000   0.00000  Uiso   1.00
O229   O     0.14742   0.50001   0.17319   0.00000  Uiso   1.00
O230   O     0.22387   0.50000   0.17319   0.00000  Uiso   1.00
Zn231  Zn    0.11562   0.50001   0.25000   0.00000  Uiso   1.00
Zn232  Zn    0.21771   0.49999   0.25000   0.00000  Uiso   1.00
C233   C     0.01678   0.54088   0.33803   0.00000  Uiso   1.00
O234   O     0.05038   0.56443   0.33142   0.00000  Uiso   1.00
O235   O     0.31458   0.53755   0.38951   0.00000  Uiso   1.00
H236   H     0.32055   0.55639   0.41763   0.00000  Uiso   1.00
C237   C     0.49986   0.58000   0.25025   0.00000  Uiso   1.00
C238   C     0.47783   0.48940   0.49197   0.00000  Uiso   1.00
C239   C     0.48849   0.47891   0.43686   0.00000  Uiso   1.00
C240   C     0.51503   0.48598   0.01385   0.00000  Uiso   1.00
C241   C     0.55916   0.46578   0.48396   0.00000  Uiso   1.00
C242   C     0.56607   0.44981   0.43234   0.00000  Uiso   1.00
C243   C     0.53112   0.45609   0.40910   0.00000  Uiso   1.00
C244   C     0.50974   0.50292   0.06444   0.00000  Uiso   1.00
C245   C     0.58689   0.47472   0.05991   0.00000  Uiso   1.00
C246   C     0.45634   0.49204   0.41100   0.00000  Uiso   1.00
C247   C     0.53506   0.64527   0.26424   0.00000  Uiso   1.00
C248   C     0.47336   0.49710   0.35203   0.00000  Uiso   1.00
C249   C     0.53524   0.35460   0.26401   0.00000  Uiso   1.00
C250   C     0.50002   0.37584   0.25016   0.00000  Uiso   1.00
C251   C     0.46453   0.35474   0.23675   0.00000  Uiso   1.00
C252   C     0.46432   0.64542   0.23703   0.00000  Uiso   1.00
C253   C     0.49967   0.62417   0.25061   0.00000  Uiso   1.00
C254   C     0.65555   0.48098   0.20903   0.00000  Uiso   1.00
C255   C     0.37006   0.48091   0.20908   0.00000  Uiso   1.00
C256   C     0.34356   0.51898   0.29149   0.00000  Uiso   1.00
C257   C     0.62932   0.51856   0.29105   0.00000  Uiso   1.00
C258   C     0.50007   0.42000   0.24996   0.00000  Uiso   1.00
C259   C     0.52683   0.49993   0.14777   0.00000  Uiso   1.00
C260   C     0.59526   0.46111   0.00679   0.00000  Uiso   1.00
C261   C     0.54328   0.49463   0.08913   0.00000  Uiso   1.00
C262   C     0.40976   0.50536   0.44230   0.00000  Uiso   1.00
C263   C     0.39640   0.50924   0.49829   0.00000  Uiso   1.00
C264   C     0.43034   0.50260   0.02300   0.00000  Uiso   1.00
H265   H     0.61328   0.46810   0.07877   0.00000  Uiso   1.00
H266   H     0.56253   0.37084   0.27499   0.00000  Uiso   1.00
H267   H     0.43729   0.37106   0.22564   0.00000  Uiso   1.00
H268   H     0.43698   0.62921   0.22612   0.00000  Uiso   1.00
H269   H     0.64778   0.46579   0.17615   0.00000  Uiso   1.00
H270   H     0.39824   0.46553   0.17629   0.00000  Uiso   1.00
H271   H     0.60045   0.53384   0.32325   0.00000  Uiso   1.00
H272   H     0.59878   0.43295   0.40957   0.00000  Uiso   1.00
H273   H     0.62896   0.44549   0.48445   0.00000  Uiso   1.00
H274   H     0.47858   0.52162   0.08657   0.00000  Uiso   1.00
H275   H     0.38415   0.51382   0.42336   0.00000  Uiso   1.00
H276   H     0.41809   0.50676   0.06653   0.00000  Uiso   1.00
H277   H     0.36020   0.51918   0.02236   0.00000  Uiso   1.00
H278   H     0.53755   0.44224   0.36949   0.00000  Uiso   1.00
H279   H     0.56229   0.62893   0.27533   0.00000  Uiso   1.00
N280   N     0.38093   0.50001   0.25002   0.00000  Uiso   1.00
N281   N     0.61906   0.49998   0.25001   0.00000  Uiso   1.00
O282   O     0.46179   0.56108   0.25001   0.00000  Uiso   1.00
O283   O     0.53823   0.56107   0.25001   0.00000  Uiso   1.00
O284   O     0.44280   0.50000   0.32681   0.00000  Uiso   1.00
O285   O     0.51924   0.49999   0.32681   0.00000  Uiso   1.00
O286   O     0.46177   0.43893   0.25000   0.00000  Uiso   1.00
O287   O     0.53821   0.43892   0.25000   0.00000  Uiso   1.00
O288   O     0.48076   0.50001   0.17319   0.00000  Uiso   1.00
O289   O     0.55720   0.50000   0.17319   0.00000  Uiso   1.00
Zn290  Zn    0.44896   0.50001   0.25000   0.00000  Uiso   1.00
Zn291  Zn    0.55104   0.49999   0.25000   0.00000  Uiso   1.00
C292   C     0.35011   0.54088   0.33803   0.00000  Uiso   1.00
O293   O     0.38372   0.56443   0.33142   0.00000  Uiso   1.00
O294   O     0.64791   0.53755   0.38951   0.00000  Uiso   1.00
H295   H     0.65388   0.55639   0.41763   0.00000  Uiso   1.00
C296   C     0.83320   0.58000   0.25025   0.00000  Uiso   1.00
C297   C     0.81117   0.48940   0.49197   0.00000  Uiso   1.00
C298   C     0.82183   0.47891   0.43686   0.00000  Uiso   1.00
C299   C     0.84836   0.48598   0.01385   0.00000  Uiso   1.00
C300   C     0.89250   0.46578   0.48396   0.00000  Uiso   1.00
C301   C     0.89940   0.44981   0.43234   0.00000  Uiso   1.00
C302   C     0.86445   0.45609   0.40910   0.00000  Uiso   1.00
C303   C     0.84307   0.50292   0.06444   0.00000  Uiso   1.00
C304   C     0.92023   0.47472   0.05991   0.00000  Uiso   1.00
C305   C     0.78967   0.49204   0.41100   0.00000  Uiso   1.00
C306   C     0.86839   0.64527   0.26424   0.00000  Uiso   1.00
C307   C     0.80669   0.49710   0.35203   0.00000  Uiso   1.00
C308   C     0.86857   0.35460   0.26401   0.00000  Uiso   1.00
C309   C     0.83336   0.37584   0.25016   0.00000  Uiso   1.00
C310   C     0.79786   0.35474   0.23675   0.00000  Uiso   1.00
C311   C     0.79765   0.64542   0.23703   0.00000  Uiso   1.00
C312   C     0.83301   0.62417   0.25061   0.00000  Uiso   1.00
C313   C     0.98889   0.48098   0.20903   0.00000  Uiso   1.00
C314   C     0.70339   0.48091   0.20908   0.00000  Uiso   1.00
C315   C     0.67690   0.51898   0.29149   0.00000  Uiso   1.00
C316   C     0.96266   0.51856   0.29105   0.00000  Uiso   1.00
C317   C     0.83340   0.42000   0.24996   0.00000  Uiso   1.00
C318   C     0.86016   0.49993   0.14777   0.00000  Uiso   1.00
C319   C     0.92859   0.46111   0.00679   0.00000  Uiso   1.00
C320   C     0.87661   0.49463   0.08913   0.00000  Uiso   1.00
C321   C     0.74309   0.50536   0.44230   0.00000  Uiso   1.00
C322   C     0.72973   0.50924   0.49829   0.00000  Uiso   1.00
C323   C     0.76368   0.50260   0.02300   0.00000  Uiso   1.00
H324   H     0.94662   0.46810   0.07877   0.00000  Uiso   1.00
H325   H     0.89586   0.37084   0.27499   0.00000  Uiso   1.00
H326   H     0.77063   0.37106   0.22564   0.00000  Uiso   1.00
H327   H     0.77031   0.62921   0.22612   0.00000  Uiso   1.00
H328   H     0.98111   0.46579   0.17615   0.00000  Uiso   1.00
H329   H     0.73157   0.46553   0.17629   0.00000  Uiso   1.00
H330   H     0.93378   0.53384   0.32325   0.00000  Uiso   1.00
H331   H     0.93211   0.43295   0.40957   0.00000  Uiso   1.00
H332   H     0.96229   0.44549   0.48445   0.00000  Uiso   1.00
H333   H     0.81192   0.52162   0.08657   0.00000  Uiso   1.00
H334   H     0.71748   0.51382   0.42336   0.00000  Uiso   1.00
H335   H     0.75143   0.50676   0.06653   0.00000  Uiso   1.00
H336   H     0.69353   0.51918   0.02236   0.00000  Uiso   1.00
H337   H     0.87088   0.44224   0.36949   0.00000  Uiso   1.00
H338   H     0.89562   0.62893   0.27533   0.00000  Uiso   1.00
N339   N     0.71426   0.50001   0.25002   0.00000  Uiso   1.00
N340   N     0.95239   0.49998   0.25001   0.00000  Uiso   1.00
O341   O     0.79512   0.56108   0.25001   0.00000  Uiso   1.00
O342   O     0.87157   0.56107   0.25001   0.00000  Uiso   1.00
O343   O     0.77613   0.50000   0.32681   0.00000  Uiso   1.00
O344   O     0.85258   0.49999   0.32681   0.00000  Uiso   1.00
O345   O     0.79510   0.43893   0.25000   0.00000  Uiso   1.00
O346   O     0.87154   0.43892   0.25000   0.00000  Uiso   1.00
O347   O     0.81409   0.50001   0.17319   0.00000  Uiso   1.00
O348   O     0.89053   0.50000   0.17319   0.00000  Uiso   1.00
Zn349  Zn    0.78229   0.50001   0.25000   0.00000  Uiso   1.00
Zn350  Zn    0.88438   0.49999   0.25000   0.00000  Uiso   1.00
C351   C     0.68344   0.54088   0.33803   0.00000  Uiso   1.00
O352   O     0.71705   0.56443   0.33142   0.00000  Uiso   1.00
O353   O     0.98125   0.53755   0.38951   0.00000  Uiso   1.00
H354   H     0.98722   0.55639   0.41763   0.00000  Uiso   1.00
C355   C     0.16653   0.91333   0.25025   0.00000  Uiso   1.00
C356   C     0.14450   0.82273   0.49197   0.00000  Uiso   1.00
C357   C     0.15516   0.81224   0.43686   0.00000  Uiso   1.00
C358   C     0.18170   0.81931   0.01385   0.00000  Uiso   1.00
C359   C     0.22583   0.79911   0.48396   0.00000  Uiso   1.00
C360   C     0.23274   0.78314   0.43234   0.00000  Uiso   1.00
C361   C     0.19779   0.78942   0.40910   0.00000  Uiso   1.00
C362   C     0.17641   0.83626   0.06444   0.00000  Uiso   1.00
C363   C     0.25356   0.80805   0.05991   0.00000  Uiso   1.00
C364   C     0.12301   0.82537   0.41100   0.00000  Uiso   1.00
C365   C     0.20173   0.97860   0.26424   0.00000  Uiso   1.00
C366   C     0.14003   0.83044   0.35203   0.00000  Uiso   1.00
C367   C     0.20190   0.68793   0.26401   0.00000  Uiso   1.00
C368   C     0.16669   0.70917   0.25016   0.00000  Uiso   1.00
C369   C     0.13119   0.68807   0.23675   0.00000  Uiso   1.00
C370   C     0.13099   0.97875   0.23703   0.00000  Uiso   1.00
C371   C     0.16634   0.95750   0.25061   0.00000  Uiso   1.00
C372   C     0.32222   0.81432   0.20903   0.00000  Uiso   1.00
C373   C     0.03672   0.81424   0.20908   0.00000  Uiso   1.00
C374   C     0.01023   0.85231   0.29149   0.00000  Uiso   1.00
C375   C     0.29599   0.85189   0.29105   0.00000  Uiso   1.00
C376   C     0.16674   0.75333   0.24996   0.00000  Uiso   1.00
C377   C     0.19350   0.83326   0.14777   0.00000  Uiso   1.00
C378   C     0.26193   0.79444   0.00679   0.00000  Uiso   1.00
C379   C     0.20995   0.82796   0.08913   0.00000  Uiso   1.00
C380   C     0.07643   0.83870   0.44230   0.00000  Uiso   1.00
C381   C     0.06306   0.84257   0.49829   0.00000  Uiso   1.00
C382   C     0.09701   0.83593   0.02300   0.00000  Uiso   1.00
H383   H     0.27995   0.80143   0.07877   0.00000  Uiso   1.00
H384   H     0.22919   0.70417   0.27499   0.00000  Uiso   1.00
H385   H     0.10396   0.70439   0.22564   0.00000  Uiso   1.00
H386   H     0.10365   0.96254   0.22612   0.00000  Uiso   1.00
H387   H     0.31445   0.79912   0.17615   0.00000  Uiso   1.00
H388   H     0.06490   0.79886   0.17629   0.00000  Uiso   1.00
H389   H     0.26711   0.86717   0.32325   0.00000  Uiso   1.00
H390   H     0.26545   0.76628   0.40957   0.00000  Uiso   1.00
H391   H     0.29563   0.77882   0.48445   0.00000  Uiso   1.00
H392   H     0.14525   0.85495   0.08657   0.00000  Uiso   1.00
H393   H     0.05081   0.84715   0.42336   0.00000  Uiso   1.00
H394   H     0.08476   0.84009   0.06653   0.00000  Uiso   1.00
H395   H     0.02686   0.85251   0.02236   0.00000  Uiso   1.00
H396   H     0.20422   0.77557   0.36949   0.00000  Uiso   1.00
H397   H     0.22896   0.96226   0.27533   0.00000  Uiso   1.00
N398   N     0.04760   0.83334   0.25002   0.00000  Uiso   1.00
N399   N     0.28573   0.83331   0.25001   0.00000  Uiso   1.00
O400   O     0.12846   0.89442   0.25001   0.00000  Uiso   1.00
O401   O     0.20490   0.89441   0.25001   0.00000  Uiso   1.00
O402   O     0.10947   0.83333   0.32681   0.00000  Uiso   1.00
O403   O     0.18591   0.83332   0.32681   0.00000  Uiso   1.00
O404   O     0.12843   0.77226   0.25000   0.00000  Uiso   1.00
O405   O     0.20488   0.77225   0.25000   0.00000  Uiso   1.00
O406   O     0.14742   0.83335   0.17319   0.00000  Uiso   1.00
O407   O     0.22387   0.83334   0.17319   0.00000  Uiso   1.00
Zn408  Zn    0.11562   0.83334   0.25000   0.00000  Uiso   1.00
Zn409  Zn    0.21771   0.83333   0.25000   0.00000  Uiso   1.00
C410   C     0.01678   0.87422   0.33803   0.00000  Uiso   1.00
O411   O     0.05038   0.89776   0.33142   0.00000  Uiso   1.00
O412   O     0.31458   0.87089   0.38951   0.00000  Uiso   1.00
H413   H     0.32055   0.88972   0.41763   0.00000  Uiso   1.00
C414   C     0.49986   0.91333   0.25025   0.00000  Uiso   1.00
C415   C     0.47783   0.82273   0.49197   0.00000  Uiso   1.00
C416   C     0.48849   0.81224   0.43686   0.00000  Uiso   1.00
C417   C     0.51503   0.81931   0.01385   0.00000  Uiso   1.00
C418   C     0.55916   0.79911   0.48396   0.00000  Uiso   1.00
C419   C     0.56607   0.78314   0.43234   0.00000  Uiso   1.00
C420   C     0.53112   0.78942   0.40910   0.00000  Uiso   1.00
C421   C     0.50974   0.83626   0.06444   0.00000  Uiso   1.00
C422   C     0.58689   0.80805   0.05991   0.00000  Uiso   1.00
C423   C     0.45634   0.82537   0.41100   0.00000  Uiso   1.00
C424   C     0.53506   0.97860   0.26424   0.00000  Uiso   1.00
C425   C     0.47336   0.83044   0.35203   0.00000  Uiso   1.00
C426   C     0.53524   0.68793   0.26401   0.00000  Uiso   1.00
C427   C     0.50002   0.70917   0.25016   0.00000  Uiso   1.00
C428   C     0.46453   0.68807   0.23675   0.00000  Uiso   1.00
C429   C     0.46432   0.97875   0.23703   0.00000  Uiso   1.00
C430   C     0.49967   0.95750   0.25061   0.00000  Uiso   1.00
C431   C     0.65555   0.81432   0.20903   0.00000  Uiso   1.00
C432   C     0.37006   0.81424   0.20908   0.00000  Uiso   1.00
C433   C     0.34356   0.85231   0.29149   0.00000  Uiso   1.00
C434   C     0.62932   0.85189   0.29105   0.00000  Uiso   1.00
C435   C     0.50007   0.75333   0.24996   0.00000  Uiso   1.00
C436   C     0.52683   0.83326   0.14777   0.00000  Uiso   1.00
C437   C     0.59526   0.79444   0.00679   0.00000  Uiso   1.00
C438   C     0.54328   0.82796   0.08913   0.00000  Uiso   1.00
C439   C     0.40976   0.83870   0.44230   0.00000  Uiso   1.00
C440   C     0.39640   0.84257   0.49829   0.00000  Uiso   1.00
C441   C     0.43034   0.83593   0.02300   0.00000  Uiso   1.00
H442   H     0.61328   0.80143   0.07877   0.00000  Uiso   1.00
H443   H     0.56253   0.70417   0.27499   0.00000  Uiso   1.00
H444   H     0.43729   0.70439   0.22564   0.00000  Uiso   1.00
H445   H     0.43698   0.96254   0.22612   0.00000  Uiso   1.00
H446   H     0.64778   0.79912   0.17615   0.00000  Uiso   1.00
H447   H     0.39824   0.79886   0.17629   0.00000  Uiso   1.00
H448   H     0.60045   0.86717   0.32325   0.00000  Uiso   1.00
H449   H     0.59878   0.76628   0.40957   0.00000  Uiso   1.00
H450   H     0.62896   0.77882   0.48445   0.00000  Uiso   1.00
H451   H     0.47858   0.85495   0.08657   0.00000  Uiso   1.00
H452   H     0.38415   0.84715   0.42336   0.00000  Uiso   1.00
H453   H     0.41809   0.84009   0.06653   0.00000  Uiso   1.00
H454   H     0.36020   0.85251   0.02236   0.00000  Uiso   1.00
H455   H     0.53755   0.77557   0.36949   0.00000  Uiso   1.00
H456   H     0.56229   0.96226   0.27533   0.00000  Uiso   1.00
N457   N     0.38093   0.83334   0.25002   0.00000  Uiso   1.00
N458   N     0.61906   0.83331   0.25001   0.00000  Uiso   1.00
O459   O     0.46179   0.89442   0.25001   0.00000  Uiso   1.00
O460   O     0.53823   0.89441   0.25001   0.00000  Uiso   1.00
O461   O     0.44280   0.83333   0.32681   0.00000  Uiso   1.00
O462   O     0.51924   0.83332   0.32681   0.00000  Uiso   1.00
O463   O     0.46177   0.77226   0.25000   0.00000  Uiso   1.00
O464   O     0.53821   0.77225   0.25000   0.00000  Uiso   1.00
O465   O     0.48076   0.83335   0.17319   0.00000  Uiso   1.00
O466   O     0.55720   0.83334   0.17319   0.00000  Uiso   1.00
Zn467  Zn    0.44896   0.83334   0.25000   0.00000  Uiso   1.00
Zn468  Zn    0.55104   0.83333   0.25000   0.00000  Uiso   1.00
C469   C     0.35011   0.87422   0.33803   0.00000  Uiso   1.00
O470   O     0.38372   0.89776   0.33142   0.00000  Uiso   1.00
O471   O     0.64791   0.87089   0.38951   0.00000  Uiso   1.00
H472   H     0.65388   0.88972   0.41763   0.00000  Uiso   1.00
C473   C     0.83320   0.91333   0.25025   0.00000  Uiso   1.00
C474   C     0.81117   0.82273   0.49197   0.00000  Uiso   1.00
C475   C     0.82183   0.81224   0.43686   0.00000  Uiso   1.00
C476   C     0.84836   0.81931   0.01385   0.00000  Uiso   1.00
C477   C     0.89250   0.79911   0.48396   0.00000  Uiso   1.00
C478   C     0.89940   0.78314   0.43234   0.00000  Uiso   1.00
C479   C     0.86445   0.78942   0.40910   0.00000  Uiso   1.00
C480   C     0.84307   0.83626   0.06444   0.00000  Uiso   1.00
C481   C     0.92023   0.80805   0.05991   0.00000  Uiso   1.00
C482   C     0.78967   0.82537   0.41100   0.00000  Uiso   1.00
C483   C     0.86839   0.97860   0.26424   0.00000  Uiso   1.00
C484   C     0.80669   0.83044   0.35203   0.00000  Uiso   1.00
C485   C     0.86857   0.68793   0.26401   0.00000  Uiso   1.00
C486   C     0.83336   0.70917   0.25016   0.00000  Uiso   1.00
C487   C     0.79786   0.68807   0.23675   0.00000  Uiso   1.00
C488   C     0.79765   0.97875   0.23703   0.00000  Uiso   1.00
C489   C     0.83301   0.95750   0.25061   0.00000  Uiso   1.00
C490   C     0.98889   0.81432   0.20903   0.00000  Uiso   1.00
C491   C     0.70339   0.81424   0.20908   0.00000  Uiso   1.00
C492   C     0.67690   0.85231   0.29149   0.00000  Uiso   1.00
C493   C     0.96266   0.85189   0.29105   0.00000  Uiso   1.00
C494   C     0.83340   0.75333   0.24996   0.00000  Uiso   1.00
C495   C     0.86016   0.83326   0.14777   0.00000  Uiso   1.00
C496   C     0.92859   0.79444   0.00679   0.00000  Uiso   1.00
C497   C     0.87661   0.82796   0.08913   0.00000  Uiso   1.00
C498   C     0.74309   0.83870   0.44230   0.00000  Uiso   1.00
C499   C     0.72973   0.84257   0.49829   0.00000  Uiso   1.00
C500   C     0.76368   0.83593   0.02300   0.00000  Uiso   1.00
H501   H     0.94662   0.80143   0.07877   0.00000  Uiso   1.00
H502   H     0.89586   0.70417   0.27499   0.00000  Uiso   1.00
H503   H     0.77063   0.70439   0.22564   0.00000  Uiso   1.00
H504   H     0.77031   0.96254   0.22612   0.00000  Uiso   1.00
H505   H     0.98111   0.79912   0.17615   0.00000  Uiso   1.00
H506   H     0.73157   0.79886   0.17629   0.00000  Uiso   1.00
H507   H     0.93378   0.86717   0.32325   0.00000  Uiso   1.00
H508   H     0.93211   0.76628   0.40957   0.00000  Uiso   1.00
H509   H     0.96229   0.77882   0.48445   0.00000  Uiso   1.00
H510   H     0.81192   0.85495   0.08657   0.00000  Uiso   1.00
H511   H     0.71748   0.84715   0.42336   0.00000  Uiso   1.00
H512   H     0.75143   0.84009   0.06653   0.00000  Uiso   1.00
H513   H     0.69353   0.85251   0.02236   0.00000  Uiso   1.00
H514   H     0.87088   0.77557   0.36949   0.00000  Uiso   1.00
H515   H     0.89562   0.96226   0.27533   0.00000  Uiso   1.00
N516   N     0.71426   0.83334   0.25002   0.00000  Uiso   1.00
N517   N     0.95239   0.83331   0.25001   0.00000  Uiso   1.00
O518   O     0.79512   0.89442   0.25001   0.00000  Uiso   1.00
O519   O     0.87157   0.89441   0.25001   0.00000  Uiso   1.00
O520   O     0.77613   0.83333   0.32681   0.00000  Uiso   1.00
O521   O     0.85258   0.83332   0.32681   0.00000  Uiso   1.00
O522   O     0.79510   0.77226   0.25000   0.00000  Uiso   1.00
O523   O     0.87154   0.77225   0.25000   0.00000  Uiso   1.00
O524   O     0.81409   0.83335   0.17319   0.00000  Uiso   1.00
O525   O     0.89053   0.83334   0.17319   0.00000  Uiso   1.00
Zn526  Zn    0.78229   0.83334   0.25000   0.00000  Uiso   1.00
Zn527  Zn    0.88438   0.83333   0.25000   0.00000  Uiso   1.00
C528   C     0.68344   0.87422   0.33803   0.00000  Uiso   1.00
O529   O     0.71705   0.89776   0.33142   0.00000  Uiso   1.00
O530   O     0.98125   0.87089   0.38951   0.00000  Uiso   1.00
H531   H     0.98722   0.88972   0.41763   0.00000  Uiso   1.00
C532   C     0.16653   0.24667   0.75025   0.00000  Uiso   1.00
C533   C     0.14450   0.15606   0.99197   0.00000  Uiso   1.00
C534   C     0.15516   0.14558   0.93686   0.00000  Uiso   1.00
C535   C     0.18170   0.15265   0.51385   0.00000  Uiso   1.00
C536   C     0.22583   0.13245   0.98396   0.00000  Uiso   1.00
C537   C     0.23274   0.11647   0.93234   0.00000  Uiso   1.00
C538   C     0.19779   0.12276   0.90910   0.00000  Uiso   1.00
C539   C     0.17641   0.16959   0.56444   0.00000  Uiso   1.00
C540   C     0.25356   0.14138   0.55991   0.00000  Uiso   1.00
C541   C     0.12301   0.15870   0.91100   0.00000  Uiso   1.00
C542   C     0.20173   0.31194   0.76424   0.00000  Uiso   1.00
C543   C     0.14003   0.16377   0.85203   0.00000  Uiso   1.00
C544   C     0.20190   0.02127   0.76401   0.00000  Uiso   1.00
C545   C     0.16669   0.04251   0.75016   0.00000  Uiso   1.00
C546   C     0.13119   0.02140   0.73675   0.00000  Uiso   1.00
C547   C     0.13099   0.31209   0.73703   0.00000  Uiso   1.00
C548   C     0.16634   0.29084   0.75061   0.00000  Uiso   1.00
C549   C     0.32222   0.14765   0.70903   0.00000  Uiso   1.00
C550   C     0.03672   0.14757   0.70908   0.00000  Uiso   1.00
C551   C     0.01023   0.18564   0.79149   0.00000  Uiso   1.00
C552   C     0.29599   0.18523   0.79105   0.00000  Uiso   1.00
C553   C     0.16674   0.08667   0.74996   0.00000  Uiso   1.00
C554   C     0.19350   0.16659   0.64777   0.00000  Uiso   1.00
C555   C     0.26193   0.12778   0.50679   0.00000  Uiso   1.00
C556   C     0.20995   0.16129   0.58913   0.00000  Uiso   1.00
C557   C     0.07643   0.17203   0.94230   0.00000  Uiso   1.00
C558   C     0.06306   0.17591   0.99829   0.00000  Uiso   1.00
C559   C     0.09701   0.16926   0.52300   0.00000  Uiso   1.00
H560   H     0.27995   0.13476   0.57877   0.00000  Uiso   1.00
H561   H     0.22919   0.03750   0.77499   0.00000  Uiso   1.00
H562   H     0.10396   0.03773   0.72564   0.00000  Uiso   1.00
H563   H     0.10365   0.29587   0.72612   0.00000  Uiso   1.00
H564   H     0.31445   0.13245   0.67615   0.00000  Uiso   1.00
H565   H     0.06490   0.13220   0.67629   0.00000  Uiso   1.00
H566   H     0.26711   0.20051   0.82325   0.00000  Uiso   1.00
H567   H     0.26545   0.09962   0.90957   0.00000  Uiso   1.00
H568   H     0.29563   0.11215   0.98445   0.00000  Uiso   1.00
H569   H     0.14525   0.18828   0.58657   0.00000  Uiso   1.00
H570   H     0.05081   0.18048   0.92336   0.00000  Uiso   1.00
H571   H     0.08476   0.17342   0.56653   0.00000  Uiso   1.00
H572   H     0.02686   0.18584   0.52236   0.00000  Uiso   1.00
H573   H     0.20422   0.10891   0.86949   0.00000  Uiso   1.00
H574   H     0.22896   0.29559   0.77533   0.00000  Uiso   1.00
N575   N     0.04760   0.16668   0.75002   0.00000  Uiso   1.00
N576   N     0.28573   0.16665   0.75001   0.00000  Uiso   1.00
O577   O     0.12846   0.22775   0.75001   0.00000  Uiso   1.00
O578   O     0.20490   0.22774   0.75001   0.00000  Uiso   1.00
O579   O     0.10947   0.16666   0.82681   0.00000  Uiso   1.00
O580   O     0.18591   0.16665   0.82681   0.00000  Uiso   1.00
O581   O     0.12843   0.10559   0.75000   0.00000  Uiso   1.00
O582   O     0.20488   0.10558   0.75000   0.00000  Uiso   1.00
O583   O     0.14742   0.16668   0.67319   0.00000  Uiso   1.00
O584   O     0.22387   0.16667   0.67319   0.00000  Uiso   1.00
Zn585  Zn    0.11562   0.16667   0.75000   0.00000  Uiso   1.00
Zn586  Zn    0.21771   0.16666   0.75000   0.00000  Uiso   1.00
C587   C     0.01678   0.20755   0.83803   0.00000  Uiso   1.00
O588   O     0.05038   0.23110   0.83142   0.00000  Uiso   1.00
O589   O     0.31458   0.20422   0.88951   0.00000  Uiso   1.00
H590   H     0.32055   0.22306   0.91763   0.00000  Uiso   1.00
C591   C     0.49986   0.24667   0.75025   0.00000  Uiso   1.00
C592   C     0.47783   0.15606   0.99197   0.00000  Uiso   1.00
C593   C     0.48849   0.14558   0.93686   0.00000  Uiso   1.00
C594   C     0.51503   0.15265   0.51385   0.00000  Uiso   1.00
C595   C     0.55916   0.13245   0.98396   0.00000  Uiso   1.00
C596   C     0.56607   0.11647   0.93234   0.00000  Uiso   1.00
C597   C     0.53112   0.12276   0.90910   0.00000  Uiso   1.00
C598   C     0.50974   0.16959   0.56444   0.00000  Uiso   1.00
C599   C     0.58689   0.14138   0.55991   0.00000  Uiso   1.00
C600   C     0.45634   0.15870   0.91100   0.00000  Uiso   1.00
C601   C     0.53506   0.31194   0.76424   0.00000  Uiso   1.00
C602   C     0.47336   0.16377   0.85203   0.00000  Uiso   1.00
C603   C     0.53524   0.02127   0.76401   0.00000  Uiso   1.00
C604   C     0.50002   0.04251   0.75016   0.00000  Uiso   1.00
C605   C     0.46453   0.02140   0.73675   0.00000  Uiso   1.00
C606   C     0.46432   0.31209   0.73703   0.00000  Uiso   1.00
C607   C     0.49967   0.29084   0.75061   0.00000  Uiso   1.00
C608   C     0.65555   0.14765   0.70903   0.00000  Uiso   1.00
C609   C     0.37006   0.14757   0.70908   0.00000  Uiso   1.00
C610   C     0.34356   0.18564   0.79149   0.00000  Uiso   1.00
C611   C     0.62932   0.18523   0.79105   0.00000  Uiso   1.00
C612   C     0.50007   0.08667   0.74996   0.00000  Uiso   1.00
C613   C     0.52683   0.16659   0.64777   0.00000  Uiso   1.00
C614   C     0.59526   0.12778   0.50679   0.00000  Uiso   1.00
C615   C     0.54328   0.16129   0.58913   0.00000  Uiso   1.00
C616   C     0.40976   0.17203   0.94230   0.00000  Uiso   1.00
C617   C     0.39640   0.17591   0.99829   0.00000  Uiso   1.00
C618   C     0.43034   0.16926   0.52300   0.00000  Uiso   1.00
H619   H     0.61328   0.13476   0.57877   0.00000  Uiso   1.00
H620   H     0.56253   0.03750   0.77499   0.00000  Uiso   1.00
H621   H     0.43729   0.03773   0.72564   0.00000  Uiso   1.00
H622   H     0.43698   0.29587   0.72612   0.00000  Uiso   1.00
H623   H     0.64778   0.13245   0.67615   0.00000  Uiso   1.00
H624   H     0.39824   0.13220   0.67629   0.00000  Uiso   1.00
H625   H     0.60045   0.20051   0.82325   0.00000  Uiso   1.00
H626   H     0.59878   0.09962   0.90957   0.00000  Uiso   1.00
H627   H     0.62896   0.11215   0.98445   0.00000  Uiso   1.00
H628   H     0.47858   0.18828   0.58657   0.00000  Uiso   1.00
H629   H     0.38415   0.18048   0.92336   0.00000  Uiso   1.00
H630   H     0.41809   0.17342   0.56653   0.00000  Uiso   1.00
H631   H     0.36020   0.18584   0.52236   0.00000  Uiso   1.00
H632   H     0.53755   0.10891   0.86949   0.00000  Uiso   1.00
H633   H     0.56229   0.29559   0.77533   0.00000  Uiso   1.00
N634   N     0.38093   0.16668   0.75002   0.00000  Uiso   1.00
N635   N     0.61906   0.16665   0.75001   0.00000  Uiso   1.00
O636   O     0.46179   0.22775   0.75001   0.00000  Uiso   1.00
O637   O     0.53823   0.22774   0.75001   0.00000  Uiso   1.00
O638   O     0.44280   0.16666   0.82681   0.00000  Uiso   1.00
O639   O     0.51924   0.16665   0.82681   0.00000  Uiso   1.00
O640   O     0.46177   0.10559   0.75000   0.00000  Uiso   1.00
O641   O     0.53821   0.10558   0.75000   0.00000  Uiso   1.00
O642   O     0.48076   0.16668   0.67319   0.00000  Uiso   1.00
O643   O     0.55720   0.16667   0.67319   0.00000  Uiso   1.00
Zn644  Zn    0.44896   0.16667   0.75000   0.00000  Uiso   1.00
Zn645  Zn    0.55104   0.16666   0.75000   0.00000  Uiso   1.00
C646   C     0.35011   0.20755   0.83803   0.00000  Uiso   1.00
O647   O     0.38372   0.23110   0.83142   0.00000  Uiso   1.00
O648   O     0.64791   0.20422   0.88951   0.00000  Uiso   1.00
H649   H     0.65388   0.22306   0.91763   0.00000  Uiso   1.00
C650   C     0.83320   0.24667   0.75025   0.00000  Uiso   1.00
C651   C     0.81117   0.15606   0.99197   0.00000  Uiso   1.00
C652   C     0.82183   0.14558   0.93686   0.00000  Uiso   1.00
C653   C     0.84836   0.15265   0.51385   0.00000  Uiso   1.00
C654   C     0.89250   0.13245   0.98396   0.00000  Uiso   1.00
C655   C     0.89940   0.11647   0.93234   0.00000  Uiso   1.00
C656   C     0.86445   0.12276   0.90910   0.00000  Uiso   1.00
C657   C     0.84307   0.16959   0.56444   0.00000  Uiso   1.00
C658   C     0.92023   0.14138   0.55991   0.00000  Uiso   1.00
C659   C     0.78967   0.15870   0.91100   0.00000  Uiso   1.00
C660   C     0.86839   0.31194   0.76424   0.00000  Uiso   1.00
C661   C     0.80669   0.16377   0.85203   0.00000  Uiso   1.00
C662   C     0.86857   0.02127   0.76401   0.00000  Uiso   1.00
C663   C     0.83336   0.04251   0.75016   0.00000  Uiso   1.00
C664   C     0.79786   0.02140   0.73675   0.00000  Uiso   1.00
C665   C     0.79765   0.31209   0.73703   0.00000  Uiso   1.00
C666   C     0.83301   0.29084   0.75061   0.00000  Uiso   1.00
C667   C     0.98889   0.14765   0.70903   0.00000  Uiso   1.00
C668   C     0.70339   0.14757   0.70908   0.00000  Uiso   1.00
C669   C     0.67690   0.18564   0.79149   0.00000  Uiso   1.00
C670   C     0.96266   0.18523   0.79105   0.00000  Uiso   1.00
C671   C     0.83340   0.08667   0.74996   0.00000  Uiso   1.00
C672   C     0.86016   0.16659   0.64777   0.00000  Uiso   1.00
C673   C     0.92859   0.12778   0.50679   0.00000  Uiso   1.00
C674   C     0.87661   0.16129   0.58913   0.00000  Uiso   1.00
C675   C     0.74309   0.17203   0.94230   0.00000  Uiso   1.00
C676   C     0.72973   0.17591   0.99829   0.00000  Uiso   1.00
C677   C     0.76368   0.16926   0.52300   0.00000  Uiso   1.00
H678   H     0.94662   0.13476   0.57877   0.00000  Uiso   1.00
H679   H     0.89586   0.03750   0.77499   0.00000  Uiso   1.00
H680   H     0.77063   0.03773   0.72564   0.00000  Uiso   1.00
H681   H     0.77031   0.29587   0.72612   0.00000  Uiso   1.00
H682   H     0.98111   0.13245   0.67615   0.00000  Uiso   1.00
H683   H     0.73157   0.13220   0.67629   0.00000  Uiso   1.00
H684   H     0.93378   0.20051   0.82325   0.00000  Uiso   1.00
H685   H     0.93211   0.09962   0.90957   0.00000  Uiso   1.00
H686   H     0.96229   0.11215   0.98445   0.00000  Uiso   1.00
H687   H     0.81192   0.18828   0.58657   0.00000  Uiso   1.00
H688   H     0.71748   0.18048   0.92336   0.00000  Uiso   1.00
H689   H     0.75143   0.17342   0.56653   0.00000  Uiso   1.00
H690   H     0.69353   0.18584   0.52236   0.00000  Uiso   1.00
H691   H     0.87088   0.10891   0.86949   0.00000  Uiso   1.00
H692   H     0.89562   0.29559   0.77533   0.00000  Uiso   1.00
N693   N     0.71426   0.16668   0.75002   0.00000  Uiso   1.00
N694   N     0.95239   0.16665   0.75001   0.00000  Uiso   1.00
O695   O     0.79512   0.22775   0.75001   0.00000  Uiso   1.00
O696   O     0.87157   0.22774   0.75001   0.00000  Uiso   1.00
O697   O     0.77613   0.16666   0.82681   0.00000  Uiso   1.00
O698   O     0.85258   0.16665   0.82681   0.00000  Uiso   1.00
O699   O     0.79510   0.10559   0.75000   0.00000  Uiso   1.00
O700   O     0.87154   0.10558   0.75000   0.00000  Uiso   1.00
O701   O     0.81409   0.16668   0.67319   0.00000  Uiso   1.00
O702   O     0.89053   0.16667   0.67319   0.00000  Uiso   1.00
Zn703  Zn    0.78229   0.16667   0.75000   0.00000  Uiso   1.00
Zn704  Zn    0.88438   0.16666   0.75000   0.00000  Uiso   1.00
C705   C     0.68344   0.20755   0.83803   0.00000  Uiso   1.00
O706   O     0.71705   0.23110   0.83142   0.00000  Uiso   1.00
O707   O     0.98125   0.20422   0.88951   0.00000  Uiso   1.00
H708   H     0.98722   0.22306   0.91763   0.00000  Uiso   1.00
C709   C     0.16653   0.58000   0.75025   0.00000  Uiso   1.00
C710   C     0.14450   0.48940   0.99197   0.00000  Uiso   1.00
C711   C     0.15516   0.47891   0.93686   0.00000  Uiso   1.00
C712   C     0.18170   0.48598   0.51385   0.00000  Uiso   1.00
C713   C     0.22583   0.46578   0.98396   0.00000  Uiso   1.00
C714   C     0.23274   0.44981   0.93234   0.00000  Uiso   1.00
C715   C     0.19779   0.45609   0.90910   0.00000  Uiso   1.00
C716   C     0.17641   0.50292   0.56444   0.00000  Uiso   1.00
C717   C     0.25356   0.47472   0.55991   0.00000  Uiso   1.00
C718   C     0.12301   0.49204   0.91100   0.00000  Uiso   1.00
C719   C     0.20173   0.64527   0.76424   0.00000  Uiso   1.00
C720   C     0.14003   0.49710   0.85203   0.00000  Uiso   1.00
C721   C     0.20190   0.35460   0.76401   0.00000  Uiso   1.00
C722   C     0.16669   0.37584   0.75016   0.00000  Uiso   1.00
C723   C     0.13119   0.35474   0.73675   0.00000  Uiso   1.00
C724   C     0.13099   0.64542   0.73703   0.00000  Uiso   1.00
C725   C     0.16634   0.62417   0.75061   0.00000  Uiso   1.00
C726   C     0.32222   0.48098   0.70903   0.00000  Uiso   1.00
C727   C     0.03672   0.48091   0.70908   0.00000  Uiso   1.00
C728   C     0.01023   0.51898   0.79149   0.00000  Uiso   1.00
C729   C     0.29599   0.51856   0.79105   0.00000  Uiso   1.00
C730   C     0.16674   0.42000   0.74996   0.00000  Uiso   1.00
C731   C     0.19350   0.49993   0.64777   0.00000  Uiso   1.00
C732   C     0.26193   0.46111   0.50679   0.00000  Uiso   1.00
C733   C     0.20995   0.49463   0.58913   0.00000  Uiso   1.00
C734   C     0.07643   0.50536   0.94230   0.00000  Uiso   1.00
C735   C     0.06306   0.50924   0.99829   0.00000  Uiso   1.00
C736   C     0.09701   0.50260   0.52300   0.00000  Uiso   1.00
H737   H     0.27995   0.46810   0.57877   0.00000  Uiso   1.00
H738   H     0.22919   0.37084   0.77499   0.00000  Uiso   1.00
H739   H     0.10396   0.37106   0.72564   0.00000  Uiso   1.00
H740   H     0.10365   0.62921   0.72612   0.00000  Uiso   1.00
H741   H     0.31445   0.46579   0.67615   0.00000  Uiso   1.00
H742   H     0.06490   0.46553   0.67629   0.00000  Uiso   1.00
H743   H     0.26711   0.53384   0.82325   0.00000  Uiso   1.00
H744   H     0.26545   0.43295   0.90957   0.00000  Uiso   1.00
H745   H     0.29563   0.44549   0.98445   0.00000  Uiso   1.00
H746   H     0.14525   0.52162   0.58657   0.00000  Uiso   1.00
H747   H     0.05081   0.51382   0.92336   0.00000  Uiso   1.00
H748   H     0.08476   0.50676   0.56653   0.00000  Uiso   1.00
H749   H     0.02686   0.51918   0.52236   0.00000  Uiso   1.00
H750   H     0.20422   0.44224   0.86949   0.00000  Uiso   1.00
H751   H     0.22896   0.62893   0.77533   0.00000  Uiso   1.00
N752   N     0.04760   0.50001   0.75002   0.00000  Uiso   1.00
N753   N     0.28573   0.49998   0.75001   0.00000  Uiso   1.00
O754   O     0.12846   0.56108   0.75001   0.00000  Uiso   1.00
O755   O     0.20490   0.56107   0.75001   0.00000  Uiso   1.00
O756   O     0.10947   0.50000   0.82681   0.00000  Uiso   1.00
O757   O     0.18591   0.49999   0.82681   0.00000  Uiso   1.00
O758   O     0.12843   0.43893   0.75000   0.00000  Uiso   1.00
O759   O     0.20488   0.43892   0.75000   0.00000  Uiso   1.00
O760   O     0.14742   0.50001   0.67319   0.00000  Uiso   1.00
O761   O     0.22387   0.50000   0.67319   0.00000  Uiso   1.00
Zn762  Zn    0.11562   0.50001   0.75000   0.00000  Uiso   1.00
Zn763  Zn    0.21771   0.49999   0.75000   0.00000  Uiso   1.00
C764   C     0.01678   0.54088   0.83803   0.00000  Uiso   1.00
O765   O     0.05038   0.56443   0.83142   0.00000  Uiso   1.00
O766   O     0.31458   0.53755   0.88951   0.00000  Uiso   1.00
H767   H     0.32055   0.55639   0.91763   0.00000  Uiso   1.00
C768   C     0.49986   0.58000   0.75025   0.00000  Uiso   1.00
C769   C     0.47783   0.48940   0.99197   0.00000  Uiso   1.00
C770   C     0.48849   0.47891   0.93686   0.00000  Uiso   1.00
C771   C     0.51503   0.48598   0.51385   0.00000  Uiso   1.00
C772   C     0.55916   0.46578   0.98396   0.00000  Uiso   1.00
C773   C     0.56607   0.44981   0.93234   0.00000  Uiso   1.00
C774   C     0.53112   0.45609   0.90910   0.00000  Uiso   1.00
C775   C     0.50974   0.50292   0.56444   0.00000  Uiso   1.00
C776   C     0.58689   0.47472   0.55991   0.00000  Uiso   1.00
C777   C     0.45634   0.49204   0.91100   0.00000  Uiso   1.00
C778   C     0.53506   0.64527   0.76424   0.00000  Uiso   1.00
C779   C     0.47336   0.49710   0.85203   0.00000  Uiso   1.00
C780   C     0.53524   0.35460   0.76401   0.00000  Uiso   1.00
C781   C     0.50002   0.37584   0.75016   0.00000  Uiso   1.00
C782   C     0.46453   0.35474   0.73675   0.00000  Uiso   1.00
C783   C     0.46432   0.64542   0.73703   0.00000  Uiso   1.00
C784   C     0.49967   0.62417   0.75061   0.00000  Uiso   1.00
C785   C     0.65555   0.48098   0.70903   0.00000  Uiso   1.00
C786   C     0.37006   0.48091   0.70908   0.00000  Uiso   1.00
C787   C     0.34356   0.51898   0.79149   0.00000  Uiso   1.00
C788   C     0.62932   0.51856   0.79105   0.00000  Uiso   1.00
C789   C     0.50007   0.42000   0.74996   0.00000  Uiso   1.00
C790   C     0.52683   0.49993   0.64777   0.00000  Uiso   1.00
C791   C     0.59526   0.46111   0.50679   0.00000  Uiso   1.00
C792   C     0.54328   0.49463   0.58913   0.00000  Uiso   1.00
C793   C     0.40976   0.50536   0.94230   0.00000  Uiso   1.00
C794   C     0.39640   0.50924   0.99829   0.00000  Uiso   1.00
C795   C     0.43034   0.50260   0.52300   0.00000  Uiso   1.00
H796   H     0.61328   0.46810   0.57877   0.00000  Uiso   1.00
H797   H     0.56253   0.37084   0.77499   0.00000  Uiso   1.00
H798   H     0.43729   0.37106   0.72564   0.00000  Uiso   1.00
H799   H     0.43698   0.62921   0.72612   0.00000  Uiso   1.00
H800   H     0.64778   0.46579   0.67615   0.00000  Uiso   1.00
H801   H     0.39824   0.46553   0.67629   0.00000  Uiso   1.00
H802   H     0.60045   0.53384   0.82325   0.00000  Uiso   1.00
H803   H     0.59878   0.43295   0.90957   0.00000  Uiso   1.00
H804   H     0.62896   0.44549   0.98445   0.00000  Uiso   1.00
H805   H     0.47858   0.52162   0.58657   0.00000  Uiso   1.00
H806   H     0.38415   0.51382   0.92336   0.00000  Uiso   1.00
H807   H     0.41809   0.50676   0.56653   0.00000  Uiso   1.00
H808   H     0.36020   0.51918   0.52236   0.00000  Uiso   1.00
H809   H     0.53755   0.44224   0.86949   0.00000  Uiso   1.00
H810   H     0.56229   0.62893   0.77533   0.00000  Uiso   1.00
N811   N     0.38093   0.50001   0.75002   0.00000  Uiso   1.00
N812   N     0.61906   0.49998   0.75001   0.00000  Uiso   1.00
O813   O     0.46179   0.56108   0.75001   0.00000  Uiso   1.00
O814   O     0.53823   0.56107   0.75001   0.00000  Uiso   1.00
O815   O     0.44280   0.50000   0.82681   0.00000  Uiso   1.00
O816   O     0.51924   0.49999   0.82681   0.00000  Uiso   1.00
O817   O     0.46177   0.43893   0.75000   0.00000  Uiso   1.00
O818   O     0.53821   0.43892   0.75000   0.00000  Uiso   1.00
O819   O     0.48076   0.50001   0.67319   0.00000  Uiso   1.00
O820   O     0.55720   0.50000   0.67319   0.00000  Uiso   1.00
Zn821  Zn    0.44896   0.50001   0.75000   0.00000  Uiso   1.00
Zn822  Zn    0.55104   0.49999   0.75000   0.00000  Uiso   1.00
C823   C     0.35011   0.54088   0.83803   0.00000  Uiso   1.00
O824   O     0.38372   0.56443   0.83142   0.00000  Uiso   1.00
O825   O     0.64791   0.53755   0.88951   0.00000  Uiso   1.00
H826   H     0.65388   0.55639   0.91763   0.00000  Uiso   1.00
C827   C     0.83320   0.58000   0.75025   0.00000  Uiso   1.00
C828   C     0.81117   0.48940   0.99197   0.00000  Uiso   1.00
C829   C     0.82183   0.47891   0.93686   0.00000  Uiso   1.00
C830   C     0.84836   0.48598   0.51385   0.00000  Uiso   1.00
C831   C     0.89250   0.46578   0.98396   0.00000  Uiso   1.00
C832   C     0.89940   0.44981   0.93234   0.00000  Uiso   1.00
C833   C     0.86445   0.45609   0.90910   0.00000  Uiso   1.00
C834   C     0.84307   0.50292   0.56444   0.00000  Uiso   1.00
C835   C     0.92023   0.47472   0.55991   0.00000  Uiso   1.00
C836   C     0.78967   0.49204   0.91100   0.00000  Uiso   1.00
C837   C     0.86839   0.64527   0.76424   0.00000  Uiso   1.00
C838   C     0.80669   0.49710   0.85203   0.00000  Uiso   1.00
C839   C     0.86857   0.35460   0.76401   0.00000  Uiso   1.00
C840   C     0.83336   0.37584   0.75016   0.00000  Uiso   1.00
C841   C     0.79786   0.35474   0.73675   0.00000  Uiso   1.00
C842   C     0.79765   0.64542   0.73703   0.00000  Uiso   1.00
C843   C     0.83301   0.62417   0.75061   0.00000  Uiso   1.00
C844   C     0.98889   0.48098   0.70903   0.00000  Uiso   1.00
C845   C     0.70339   0.48091   0.70908   0.00000  Uiso   1.00
C846   C     0.67690   0.51898   0.79149   0.00000  Uiso   1.00
C847   C     0.96266   0.51856   0.79105   0.00000  Uiso   1.00
C848   C     0.83340   0.42000   0.74996   0.00000  Uiso   1.00
C849   C     0.86016   0.49993   0.64777   0.00000  Uiso   1.00
C850   C     0.92859   0.46111   0.50679   0.00000  Uiso   1.00
C851   C     0.87661   0.49463   0.58913   0.00000  Uiso   1.00
C852   C     0.74309   0.50536   0.94230   0.00000  Uiso   1.00
C853   C     0.72973   0.50924   0.99829   0.00000  Uiso   1.00
C854   C     0.76368   0.50260   0.52300   0.00000  Uiso   1.00
H855   H     0.94662   0.46810   0.57877   0.00000  Uiso   1.00
H856   H     0.89586   0.37084   0.77499   0.00000  Uiso   1.00
H857   H     0.77063   0.37106   0.72564   0.00000  Uiso   1.00
H858   H     0.77031   0.62921   0.72612   0.00000  Uiso   1.00
H859   H     0.98111   0.46579   0.67615   0.00000  Uiso   1.00
H860   H     0.73157   0.46553   0.67629   0.00000  Uiso   1.00
H861   H     0.93378   0.53384   0.82325   0.00000  Uiso   1.00
H862   H     0.93211   0.43295   0.90957   0.00000  Uiso   1.00
H863   H     0.96229   0.44549   0.98445   0.00000  Uiso   1.00
H864   H     0.81192   0.52162   0.58657   0.00000  Uiso   1.00
H865   H     0.71748   0.51382   0.92336   0.00000  Uiso   1.00
H866   H     0.75143   0.50676   0.56653   0.00000  Uiso   1.00
H867   H     0.69353   0.51918   0.52236   0.00000  Uiso   1.00
H868   H     0.87088   0.44224   0.86949   0.00000  Uiso   1.00
H869   H     0.89562   0.62893   0.77533   0.00000  Uiso   1.00
N870   N     0.71426   0.50001   0.75002   0.00000  Uiso   1.00
N871   N     0.95239   0.49998   0.75001   0.00000  Uiso   1.00
O872   O     0.79512   0.56108   0.75001   0.00000  Uiso   1.00
O873   O     0.87157   0.56107   0.75001   0.00000  Uiso   1.00
O874   O     0.77613   0.50000   0.82681   0.00000  Uiso   1.00
O875   O     0.85258   0.49999   0.82681   0.00000  Uiso   1.00
O876   O     0.79510   0.43893   0.75000   0.00000  Uiso   1.00
O877   O     0.87154   0.43892   0.75000   0.00000  Uiso   1.00
O878   O     0.81409   0.50001   0.67319   0.00000  Uiso   1.00
O879   O     0.89053   0.50000   0.67319   0.00000  Uiso   1.00
Zn880  Zn    0.78229   0.50001   0.75000   0.00000  Uiso   1.00
Zn881  Zn    0.88438   0.49999   0.75000   0.00000  Uiso   1.00
C882   C     0.68344   0.54088   0.83803   0.00000  Uiso   1.00
O883   O     0.71705   0.56443   0.83142   0.00000  Uiso   1.00
O884   O     0.98125   0.53755   0.88951   0.00000  Uiso   1.00
H885   H     0.98722   0.55639   0.91763   0.00000  Uiso   1.00
C886   C     0.16653   0.91333   0.75025   0.00000  Uiso   1.00
C887   C     0.14450   0.82273   0.99197   0.00000  Uiso   1.00
C888   C     0.15516   0.81224   0.93686   0.00000  Uiso   1.00
C889   C     0.18170   0.81931   0.51385   0.00000  Uiso   1.00
C890   C     0.22583   0.79911   0.98396   0.00000  Uiso   1.00
C891   C     0.23274   0.78314   0.93234   0.00000  Uiso   1.00
C892   C     0.19779   0.78942   0.90910   0.00000  Uiso   1.00
C893   C     0.17641   0.83626   0.56444   0.00000  Uiso   1.00
C894   C     0.25356   0.80805   0.55991   0.00000  Uiso   1.00
C895   C     0.12301   0.82537   0.91100   0.00000  Uiso   1.00
C896   C     0.20173   0.97860   0.76424   0.00000  Uiso   1.00
C897   C     0.14003   0.83044   0.85203   0.00000  Uiso   1.00
C898   C     0.20190   0.68793   0.76401   0.00000  Uiso   1.00
C899   C     0.16669   0.70917   0.75016   0.00000  Uiso   1.00
C900   C     0.13119   0.68807   0.73675   0.00000  Uiso   1.00
C901   C     0.13099   0.97875   0.73703   0.00000  Uiso   1.00
C902   C     0.16634   0.95750   0.75061   0.00000  Uiso   1.00
C903   C     0.32222   0.81432   0.70903   0.00000  Uiso   1.00
C904   C     0.03672   0.81424   0.70908   0.00000  Uiso   1.00
C905   C     0.01023   0.85231   0.79149   0.00000  Uiso   1.00
C906   C     0.29599   0.85189   0.79105   0.00000  Uiso   1.00
C907   C     0.16674   0.75333   0.74996   0.00000  Uiso   1.00
C908   C     0.19350   0.83326   0.64777   0.00000  Uiso   1.00
C909   C     0.26193   0.79444   0.50679   0.00000  Uiso   1.00
C910   C     0.20995   0.82796   0.58913   0.00000  Uiso   1.00
C911   C     0.07643   0.83870   0.94230   0.00000  Uiso   1.00
C912   C     0.06306   0.84257   0.99829   0.00000  Uiso   1.00
C913   C     0.09701   0.83593   0.52300   0.00000  Uiso   1.00
H914   H     0.27995   0.80143   0.57877   0.00000  Uiso   1.00
H915   H     0.22919   0.70417   0.77499   0.00000  Uiso   1.00
H916   H     0.10396   0.70439   0.72564   0.00000  Uiso   1.00
H917   H     0.10365   0.96254   0.72612   0.00000  Uiso   1.00
H918   H     0.31445   0.79912   0.67615   0.00000  Uiso   1.00
H919   H     0.06490   0.79886   0.67629   0.00000  Uiso   1.00
H920   H     0.26711   0.86717   0.82325   0.00000  Uiso   1.00
H921   H     0.26545   0.76628   0.90957   0.00000  Uiso   1.00
H922   H     0.29563   0.77882   0.98445   0.00000  Uiso   1.00
H923   H     0.14525   0.85495   0.58657   0.00000  Uiso   1.00
H924   H     0.05081   0.84715   0.92336   0.00000  Uiso   1.00
H925   H     0.08476   0.84009   0.56653   0.00000  Uiso   1.00
H926   H     0.02686   0.85251   0.52236   0.00000  Uiso   1.00
H927   H     0.20422   0.77557   0.86949   0.00000  Uiso   1.00
H928   H     0.22896   0.96226   0.77533   0.00000  Uiso   1.00
N929   N     0.04760   0.83334   0.75002   0.00000  Uiso   1.00
N930   N     0.28573   0.83331   0.75001   0.00000  Uiso   1.00
O931   O     0.12846   0.89442   0.75001   0.00000  Uiso   1.00
O932   O     0.20490   0.89441   0.75001   0.00000  Uiso   1.00
O933   O     0.10947   0.83333   0.82681   0.00000  Uiso   1.00
O934   O     0.18591   0.83332   0.82681   0.00000  Uiso   1.00
O935   O     0.12843   0.77226   0.75000   0.00000  Uiso   1.00
O936   O     0.20488   0.77225   0.75000   0.00000  Uiso   1.00
O937   O     0.14742   0.83335   0.67319   0.00000  Uiso   1.00
O938   O     0.22387   0.83334   0.67319   0.00000  Uiso   1.00
Zn939  Zn    0.11562   0.83334   0.75000   0.00000  Uiso   1.00
Zn940  Zn    0.21771   0.83333   0.75000   0.00000  Uiso   1.00
C941   C     0.01678   0.87422   0.83803   0.00000  Uiso   1.00
O942   O     0.05038   0.89776   0.83142   0.00000  Uiso   1.00
O943   O     0.31458   0.87089   0.88951   0.00000  Uiso   1.00
H944   H     0.32055   0.88972   0.91763   0.00000  Uiso   1.00
C945   C     0.49986   0.91333   0.75025   0.00000  Uiso   1.00
C946   C     0.47783   0.82273   0.99197   0.00000  Uiso   1.00
C947   C     0.48849   0.81224   0.93686   0.00000  Uiso   1.00
C948   C     0.51503   0.81931   0.51385   0.00000  Uiso   1.00
C949   C     0.55916   0.79911   0.98396   0.00000  Uiso   1.00
C950   C     0.56607   0.78314   0.93234   0.00000  Uiso   1.00
C951   C     0.53112   0.78942   0.90910   0.00000  Uiso   1.00
C952   C     0.50974   0.83626   0.56444   0.00000  Uiso   1.00
C953   C     0.58689   0.80805   0.55991   0.00000  Uiso   1.00
C954   C     0.45634   0.82537   0.91100   0.00000  Uiso   1.00
C955   C     0.53506   0.97860   0.76424   0.00000  Uiso   1.00
C956   C     0.47336   0.83044   0.85203   0.00000  Uiso   1.00
C957   C     0.53524   0.68793   0.76401   0.00000  Uiso   1.00
C958   C     0.50002   0.70917   0.75016   0.00000  Uiso   1.00
C959   C     0.46453   0.68807   0.73675   0.00000  Uiso   1.00
C960   C     0.46432   0.97875   0.73703   0.00000  Uiso   1.00
C961   C     0.49967   0.95750   0.75061   0.00000  Uiso   1.00
C962   C     0.65555   0.81432   0.70903   0.00000  Uiso   1.00
C963   C     0.37006   0.81424   0.70908   0.00000  Uiso   1.00
C964   C     0.34356   0.85231   0.79149   0.00000  Uiso   1.00
C965   C     0.62932   0.85189   0.79105   0.00000  Uiso   1.00
C966   C     0.50007   0.75333   0.74996   0.00000  Uiso   1.00
C967   C     0.52683   0.83326   0.64777   0.00000  Uiso   1.00
C968   C     0.59526   0.79444   0.50679   0.00000  Uiso   1.00
C969   C     0.54328   0.82796   0.58913   0.00000  Uiso   1.00
C970   C     0.40976   0.83870   0.94230   0.00000  Uiso   1.00
C971   C     0.39640   0.84257   0.99829   0.00000  Uiso   1.00
C972   C     0.43034   0.83593   0.52300   0.00000  Uiso   1.00
H973   H     0.61328   0.80143   0.57877   0.00000  Uiso   1.00
H974   H     0.56253   0.70417   0.77499   0.00000  Uiso   1.00
H975   H     0.43729   0.70439   0.72564   0.00000  Uiso   1.00
H976   H     0.43698   0.96254   0.72612   0.00000  Uiso   1.00
H977   H     0.64778   0.79912   0.67615   0.00000  Uiso   1.00
H978   H     0.39824   0.79886   0.67629   0.00000  Uiso   1.00
H979   H     0.60045   0.86717   0.82325   0.00000  Uiso   1.00
H980   H     0.59878   0.76628   0.90957   0.00000  Uiso   1.00
H981   H     0.62896   0.77882   0.98445   0.00000  Uiso   1.00
H982   H     0.47858   0.85495   0.58657   0.00000  Uiso   1.00
H983   H     0.38415   0.84715   0.92336   0.00000  Uiso   1.00
H984   H     0.41809   0.84009   0.56653   0.00000  Uiso   1.00
H985   H     0.36020   0.85251   0.52236   0.00000  Uiso   1.00
H986   H     0.53755   0.77557   0.86949   0.00000  Uiso   1.00
H987   H     0.56229   0.96226   0.77533   0.00000  Uiso   1.00
N988   N     0.38093   0.83334   0.75002   0.00000  Uiso   1.00
N989   N     0.61906   0.83331   0.75001   0.00000  Uiso   1.00
O990   O     0.46179   0.89442   0.75001   0.00000  Uiso   1.00
O991   O     0.53823   0.89441   0.75001   0.00000  Uiso   1.00
O992   O     0.44280   0.83333   0.82681   0.00000  Uiso   1.00
O993   O     0.51924   0.83332   0.82681   0.00000  Uiso   1.00
O994   O     0.46177   0.77226   0.75000   0.00000  Uiso   1.00
O995   O     0.53821   0.77225   0.75000   0.00000  Uiso   1.00
O996   O     0.48076   0.83335   0.67319   0.00000  Uiso   1.00
O997   O     0.55720   0.83334   0.67319   0.00000  Uiso   1.00
Zn998  Zn    0.44896   0.83334   0.75000   0.00000  Uiso   1.00
Zn999  Zn    0.55104   0.83333   0.75000   0.00000  Uiso   1.00
C1000  C     0.35011   0.87422   0.83803   0.00000  Uiso   1.00
O1001  O     0.38372   0.89776   0.83142   0.00000  Uiso   1.00
O1002  O     0.64791   0.87089   0.88951   0.00000  Uiso   1.00
H1003  H     0.65388   0.88972   0.91763   0.00000  Uiso   1.00
C1004  C     0.83320   0.91333   0.75025   0.00000  Uiso   1.00
C1005  C     0.81117   0.82273   0.99197   0.00000  Uiso   1.00
C1006  C     0.82183   0.81224   0.93686   0.00000  Uiso   1.00
C1007  C     0.84836   0.81931   0.51385   0.00000  Uiso   1.00
C1008  C     0.89250   0.79911   0.98396   0.00000  Uiso   1.00
C1009  C     0.89940   0.78314   0.93234   0.00000  Uiso   1.00
C1010  C     0.86445   0.78942   0.90910   0.00000  Uiso   1.00
C1011  C     0.84307   0.83626   0.56444   0.00000  Uiso   1.00
C1012  C     0.92023   0.80805   0.55991   0.00000  Uiso   1.00
C1013  C     0.78967   0.82537   0.91100   0.00000  Uiso   1.00
C1014  C     0.86839   0.97860   0.76424   0.00000  Uiso   1.00
C1015  C     0.80669   0.83044   0.85203   0.00000  Uiso   1.00
C1016  C     0.86857   0.68793   0.76401   0.00000  Uiso   1.00
C1017  C     0.83336   0.70917   0.75016   0.00000  Uiso   1.00
C1018  C     0.79786   0.68807   0.73675   0.00000  Uiso   1.00
C1019  C     0.79765   0.97875   0.73703   0.00000  Uiso   1.00
C1020  C     0.83301   0.95750   0.75061   0.00000  Uiso   1.00
C1021  C     0.98889   0.81432   0.70903   0.00000  Uiso   1.00
C1022  C     0.70339   0.81424   0.70908   0.00000  Uiso   1.00
C1023  C     0.67690   0.85231   0.79149   0.00000  Uiso   1.00
C1024  C     0.96266   0.85189   0.79105   0.00000  Uiso   1.00
C1025  C     0.83340   0.75333   0.74996   0.00000  Uiso   1.00
C1026  C     0.86016   0.83326   0.64777   0.00000  Uiso   1.00
C1027  C     0.92859   0.79444   0.50679   0.00000  Uiso   1.00
C1028  C     0.87661   0.82796   0.58913   0.00000  Uiso   1.00
C1029  C     0.74309   0.83870   0.94230   0.00000  Uiso   1.00
C1030  C     0.72973   0.84257   0.99829   0.00000  Uiso   1.00
C1031  C     0.76368   0.83593   0.52300   0.00000  Uiso   1.00
H1032  H     0.94662   0.80143   0.57877   0.00000  Uiso   1.00
H1033  H     0.89586   0.70417   0.77499   0.00000  Uiso   1.00
H1034  H     0.77063   0.70439   0.72564   0.00000  Uiso   1.00
H1035  H     0.77031   0.96254   0.72612   0.00000  Uiso   1.00
H1036  H     0.98111   0.79912   0.67615   0.00000  Uiso   1.00
H1037  H     0.73157   0.79886   0.67629   0.00000  Uiso   1.00
H1038  H     0.93378   0.86717   0.82325   0.00000  Uiso   1.00
H1039  H     0.93211   0.76628   0.90957   0.00000  Uiso   1.00
H1040  H     0.96229   0.77882   0.98445   0.00000  Uiso   1.00
H1041  H     0.81192   0.85495   0.58657   0.00000  Uiso   1.00
H1042  H     0.71748   0.84715   0.92336   0.00000  Uiso   1.00
H1043  H     0.75143   0.84009   0.56653   0.00000  Uiso   1.00
H1044  H     0.69353   0.85251   0.52236   0.00000  Uiso   1.00
H1045  H     0.87088   0.77557   0.86949   0.00000  Uiso   1.00
H1046  H     0.89562   0.96226   0.77533   0.00000  Uiso   1.00
N1047  N     0.71426   0.83334   0.75002   0.00000  Uiso   1.00
N1048  N     0.95239   0.83331   0.75001   0.00000  Uiso   1.00
O1049  O     0.79512   0.89442   0.75001   0.00000  Uiso   1.00
O1050  O     0.87157   0.89441   0.75001   0.00000  Uiso   1.00
O1051  O     0.77613   0.83333   0.82681   0.00000  Uiso   1.00
O1052  O     0.85258   0.83332   0.82681   0.00000  Uiso   1.00
O1053  O     0.79510   0.77226   0.75000   0.00000  Uiso   1.00
O1054  O     0.87154   0.77225   0.75000   0.00000  Uiso   1.00
O1055  O     0.81409   0.83335   0.67319   0.00000  Uiso   1.00
O1056  O     0.89053   0.83334   0.67319   0.00000  Uiso   1.00
Zn1057 Zn    0.78229   0.83334   0.75000   0.00000  Uiso   1.00
Zn1058 Zn    0.88438   0.83333   0.75000   0.00000  Uiso   1.00
C1059  C     0.68344   0.87422   0.83803   0.00000  Uiso   1.00
O1060  O     0.71705   0.89776   0.83142   0.00000  Uiso   1.00
O1061  O     0.98125   0.87089   0.88951   0.00000  Uiso   1.00
H1062  H     0.98722   0.88972   0.91763   0.00000  Uiso   1.00
loop_
_geom_bond_atom_site_label_1
_geom_bond_atom_site_label_2
_geom_bond_distance
_geom_bond_site_symmetry_2
_ccdc_geom_bond_type
C1     C17     1.419   .     S
C1     O47     1.285   .     A
C1     O46     1.286   .     A
C2     C3      1.407   .     A
C2     C535    1.414   .     S
C2     C559    1.419   .     S
C3     C10     1.414   .     A
C3     C7      1.415   .     A
C4     C8      1.389   .     A
C4     C533    1.414   1_554 S
C4     C536    1.419   1_554 S
C5     C6      1.392   .     A
C5     C535    1.419   .     S
C5     C555    1.405   .     S
C6     C7      1.389   .     A
C6     H36     1.084   .     S
C7     H42     1.082   .     S
C8     C25     1.390   .     A
C8     H38     1.079   .     S
C9     C24     1.395   .     A
C9     H29     1.083   .     S
C9     C25     1.400   .     A
C10    C12     1.463   .     S
C10    C26     1.400   .     A
C11    H43     1.084   .     S
C11    C17     1.398   .     A
C11    C190    1.370   .     S
C12    O48     1.299   .     A
C12    O49     1.293   .     A
C13    C14     1.396   .     A
C13    H30     1.084   .     S
C13    C365    1.370   1_545 S
C14    C22     1.419   .     S
C14    C15     1.398   .     A
C15    H31     1.084   .     S
C15    C370    1.370   1_545 S
C16    H32     1.084   .     S
C16    C17     1.396   .     A
C16    C192    1.370   .     S
C18    H33     1.082   .     S
C18    N45     1.368   .     A
C18    C78     1.418   .     S
C19    N44     1.367   .     A
C19    H34     1.082   .     S
C19    C136    1.418   1_455 S
C20    N44     1.387   .     A
C20    C56     1.477   .     S
C20    C139    1.414   1_455 S
C21    H35     1.083   .     S
C21    N45     1.353   .     A
C21    C79     1.414   .     S
C22    O51     1.287   .     A
C22    O50     1.285   .     A
C23    C25     1.453   .     S
C23    O52     1.294   .     A
C23    O53     1.295   .     A
C24    C536    1.405   1_554 S
C24    H568    1.084   1_554 S
C26    C27     1.388   .     A
C26    H39     1.078   .     S
C27    C559    1.391   .     S
C27    H572    1.083   .     S
C28    H40     1.079   .     S
C28    C533    1.419   1_554 S
C28    C558    1.391   1_554 S
H37    C555    1.084   .     S
H41    C558    1.083   1_554 S
N44    Zn54    2.016   .     S
N45    Zn55    2.016   .     S
O46    Zn54    2.000   .     S
O47    Zn55    1.996   .     S
O48    Zn54    1.962   .     S
O49    Zn55    1.906   .     S
O50    Zn54    1.996   .     S
O51    Zn55    2.000   .     S
O52    Zn54    1.906   .     S
O53    Zn55    1.962   .     S
C56    O57     1.218   .     D
C56    O176    1.400   1_455 S
O58    H59     1.014   .     S
O58    C115    1.400   .     S
C60    C76     1.419   .     S
C60    O106    1.285   .     A
C60    O105    1.286   .     A
C61    C62     1.407   .     A
C61    C594    1.414   .     S
C61    C618    1.419   .     S
C62    C69     1.414   .     A
C62    C66     1.415   .     A
C63    C67     1.389   .     A
C63    C592    1.414   1_554 S
C63    C595    1.419   1_554 S
C64    C65     1.392   .     A
C64    C594    1.419   .     S
C64    C614    1.405   .     S
C65    C66     1.389   .     A
C65    H95     1.084   .     S
C66    H101    1.082   .     S
C67    C84     1.390   .     A
C67    H97     1.079   .     S
C68    C83     1.395   .     A
C68    H88     1.083   .     S
C68    C84     1.400   .     A
C69    C71     1.463   .     S
C69    C85     1.400   .     A
C70    H102    1.084   .     S
C70    C76     1.398   .     A
C70    C249    1.370   .     S
C71    O107    1.299   .     A
C71    O108    1.293   .     A
C72    C73     1.396   .     A
C72    H89     1.084   .     S
C72    C424    1.370   1_545 S
C73    C81     1.419   .     S
C73    C74     1.398   .     A
C74    H90     1.084   .     S
C74    C429    1.370   1_545 S
C75    H91     1.084   .     S
C75    C76     1.396   .     A
C75    C251    1.370   .     S
C77    H92     1.082   .     S
C77    N104    1.368   .     A
C77    C137    1.418   .     S
C78    N103    1.367   .     A
C78    H93     1.082   .     S
C79    N103    1.387   .     A
C79    C115    1.477   .     S
C80    H94     1.083   .     S
C80    N104    1.353   .     A
C80    C138    1.414   .     S
C81    O110    1.287   .     A
C81    O109    1.285   .     A
C82    C84     1.453   .     S
C82    O111    1.294   .     A
C82    O112    1.295   .     A
C83    C595    1.405   1_554 S
C83    H627    1.084   1_554 S
C85    C86     1.388   .     A
C85    H98     1.078   .     S
C86    C618    1.391   .     S
C86    H631    1.083   .     S
C87    H99     1.079   .     S
C87    C592    1.419   1_554 S
C87    C617    1.391   1_554 S
H96    C614    1.084   .     S
H100   C617    1.083   1_554 S
N103   Zn113   2.016   .     S
N104   Zn114   2.016   .     S
O105   Zn113   2.000   .     S
O106   Zn114   1.996   .     S
O107   Zn113   1.962   .     S
O108   Zn114   1.906   .     S
O109   Zn113   1.996   .     S
O110   Zn114   2.000   .     S
O111   Zn113   1.906   .     S
O112   Zn114   1.962   .     S
C115   O116    1.218   .     D
O117   H118    1.014   .     S
O117   C174    1.400   .     S
C119   C135    1.419   .     S
C119   O165    1.285   .     A
C119   O164    1.286   .     A
C120   C121    1.407   .     A
C120   C653    1.414   .     S
C120   C677    1.419   .     S
C121   C128    1.414   .     A
C121   C125    1.415   .     A
C122   C126    1.389   .     A
C122   C651    1.414   1_554 S
C122   C654    1.419   1_554 S
C123   C124    1.392   .     A
C123   C653    1.419   .     S
C123   C673    1.405   .     S
C124   C125    1.389   .     A
C124   H154    1.084   .     S
C125   H160    1.082   .     S
C126   C143    1.390   .     A
C126   H156    1.079   .     S
C127   C142    1.395   .     A
C127   H147    1.083   .     S
C127   C143    1.400   .     A
C128   C130    1.463   .     S
C128   C144    1.400   .     A
C129   H161    1.084   .     S
C129   C135    1.398   .     A
C129   C308    1.370   .     S
C130   O166    1.299   .     A
C130   O167    1.293   .     A
C131   C132    1.396   .     A
C131   H148    1.084   .     S
C131   C483    1.370   1_545 S
C132   C140    1.419   .     S
C132   C133    1.398   .     A
C133   H149    1.084   .     S
C133   C488    1.370   1_545 S
C134   H150    1.084   .     S
C134   C135    1.396   .     A
C134   C310    1.370   .     S
C136   H151    1.082   .     S
C136   N163    1.368   .     A
C136   C19     1.418   1_655 S
C137   N162    1.367   .     A
C137   H152    1.082   .     S
C138   N162    1.387   .     A
C138   C174    1.477   .     S
C139   H153    1.083   .     S
C139   N163    1.353   .     A
C139   C20     1.414   1_655 S
C140   O169    1.287   .     A
C140   O168    1.285   .     A
C141   C143    1.453   .     S
C141   O170    1.294   .     A
C141   O171    1.295   .     A
C142   C654    1.405   1_554 S
C142   H686    1.084   1_554 S
C144   C145    1.388   .     A
C144   H157    1.078   .     S
C145   C677    1.391   .     S
C145   H690    1.083   .     S
C146   H158    1.079   .     S
C146   C651    1.419   1_554 S
C146   C676    1.391   1_554 S
H155   C673    1.084   .     S
H159   C676    1.083   1_554 S
N162   Zn172   2.016   .     S
N163   Zn173   2.016   .     S
O164   Zn172   2.000   .     S
O165   Zn173   1.996   .     S
O166   Zn172   1.962   .     S
O167   Zn173   1.906   .     S
O168   Zn172   1.996   .     S
O169   Zn173   2.000   .     S
O170   Zn172   1.906   .     S
O171   Zn173   1.962   .     S
C174   O175    1.218   .     D
O176   H177    1.014   .     S
O176   C56     1.400   1_655 S
C178   C194    1.419   .     S
C178   O224    1.285   .     A
C178   O223    1.286   .     A
C179   C180    1.407   .     A
C179   C712    1.414   .     S
C179   C736    1.419   .     S
C180   C187    1.414   .     A
C180   C184    1.415   .     A
C181   C185    1.389   .     A
C181   C710    1.414   1_554 S
C181   C713    1.419   1_554 S
C182   C183    1.392   .     A
C182   C712    1.419   .     S
C182   C732    1.405   .     S
C183   C184    1.389   .     A
C183   H213    1.084   .     S
C184   H219    1.082   .     S
C185   C202    1.390   .     A
C185   H215    1.079   .     S
C186   C201    1.395   .     A
C186   H206    1.083   .     S
C186   C202    1.400   .     A
C187   C189    1.463   .     S
C187   C203    1.400   .     A
C188   H220    1.084   .     S
C188   C194    1.398   .     A
C188   C367    1.370   .     S
C189   O225    1.299   .     A
C189   O226    1.293   .     A
C190   C191    1.396   .     A
C190   H207    1.084   .     S
C191   C199    1.419   .     S
C191   C192    1.398   .     A
C192   H208    1.084   .     S
C193   H209    1.084   .     S
C193   C194    1.396   .     A
C193   C369    1.370   .     S
C195   H210    1.082   .     S
C195   N222    1.368   .     A
C195   C255    1.418   .     S
C196   N221    1.367   .     A
C196   H211    1.082   .     S
C196   C313    1.418   1_455 S
C197   N221    1.387   .     A
C197   C233    1.477   .     S
C197   C316    1.414   1_455 S
C198   H212    1.083   .     S
C198   N222    1.353   .     A
C198   C256    1.414   .     S
C199   O228    1.287   .     A
C199   O227    1.285   .     A
C200   C202    1.453   .     S
C200   O229    1.294   .     A
C200   O230    1.295   .     A
C201   C713    1.405   1_554 S
C201   H745    1.084   1_554 S
C203   C204    1.388   .     A
C203   H216    1.078   .     S
C204   C736    1.391   .     S
C204   H749    1.083   .     S
C205   H217    1.079   .     S
C205   C710    1.419   1_554 S
C205   C735    1.391   1_554 S
H214   C732    1.084   .     S
H218   C735    1.083   1_554 S
N221   Zn231   2.016   .     S
N222   Zn232   2.016   .     S
O223   Zn231   2.000   .     S
O224   Zn232   1.996   .     S
O225   Zn231   1.962   .     S
O226   Zn232   1.906   .     S
O227   Zn231   1.996   .     S
O228   Zn232   2.000   .     S
O229   Zn231   1.906   .     S
O230   Zn232   1.962   .     S
C233   O234    1.218   .     D
C233   O353    1.400   1_455 S
O235   H236    1.014   .     S
O235   C292    1.400   .     S
C237   C253    1.419   .     S
C237   O283    1.285   .     A
C237   O282    1.286   .     A
C238   C239    1.407   .     A
C238   C771    1.414   .     S
C238   C795    1.419   .     S
C239   C246    1.414   .     A
C239   C243    1.415   .     A
C240   C244    1.389   .     A
C240   C769    1.414   1_554 S
C240   C772    1.419   1_554 S
C241   C242    1.392   .     A
C241   C771    1.419   .     S
C241   C791    1.405   .     S
C242   C243    1.389   .     A
C242   H272    1.084   .     S
C243   H278    1.082   .     S
C244   C261    1.390   .     A
C244   H274    1.079   .     S
C245   C260    1.395   .     A
C245   H265    1.083   .     S
C245   C261    1.400   .     A
C246   C248    1.463   .     S
C246   C262    1.400   .     A
C247   H279    1.084   .     S
C247   C253    1.398   .     A
C247   C426    1.370   .     S
C248   O284    1.299   .     A
C248   O285    1.293   .     A
C249   C250    1.396   .     A
C249   H266    1.084   .     S
C250   C258    1.419   .     S
C250   C251    1.398   .     A
C251   H267    1.084   .     S
C252   H268    1.084   .     S
C252   C253    1.396   .     A
C252   C428    1.370   .     S
C254   H269    1.082   .     S
C254   N281    1.368   .     A
C254   C314    1.418   .     S
C255   N280    1.367   .     A
C255   H270    1.082   .     S
C256   N280    1.387   .     A
C256   C292    1.477   .     S
C257   H271    1.083   .     S
C257   N281    1.353   .     A
C257   C315    1.414   .     S
C258   O287    1.287   .     A
C258   O286    1.285   .     A
C259   C261    1.453   .     S
C259   O288    1.294   .     A
C259   O289    1.295   .     A
C260   C772    1.405   1_554 S
C260   H804    1.084   1_554 S
C262   C263    1.388   .     A
C262   H275    1.078   .     S
C263   C795    1.391   .     S
C263   H808    1.083   .     S
C264   H276    1.079   .     S
C264   C769    1.419   1_554 S
C264   C794    1.391   1_554 S
H273   C791    1.084   .     S
H277   C794    1.083   1_554 S
N280   Zn290   2.016   .     S
N281   Zn291   2.016   .     S
O282   Zn290   2.000   .     S
O283   Zn291   1.996   .     S
O284   Zn290   1.962   .     S
O285   Zn291   1.906   .     S
O286   Zn290   1.996   .     S
O287   Zn291   2.000   .     S
O288   Zn290   1.906   .     S
O289   Zn291   1.962   .     S
C292   O293    1.218   .     D
O294   H295    1.014   .     S
O294   C351    1.400   .     S
C296   C312    1.419   .     S
C296   O342    1.285   .     A
C296   O341    1.286   .     A
C297   C298    1.407   .     A
C297   C830    1.414   .     S
C297   C854    1.419   .     S
C298   C305    1.414   .     A
C298   C302    1.415   .     A
C299   C303    1.389   .     A
C299   C828    1.414   1_554 S
C299   C831    1.419   1_554 S
C300   C301    1.392   .     A
C300   C830    1.419   .     S
C300   C850    1.405   .     S
C301   C302    1.389   .     A
C301   H331    1.084   .     S
C302   H337    1.082   .     S
C303   C320    1.390   .     A
C303   H333    1.079   .     S
C304   C319    1.395   .     A
C304   H324    1.083   .     S
C304   C320    1.400   .     A
C305   C307    1.463   .     S
C305   C321    1.400   .     A
C306   H338    1.084   .     S
C306   C312    1.398   .     A
C306   C485    1.370   .     S
C307   O343    1.299   .     A
C307   O344    1.293   .     A
C308   C309    1.396   .     A
C308   H325    1.084   .     S
C309   C317    1.419   .     S
C309   C310    1.398   .     A
C310   H326    1.084   .     S
C311   H327    1.084   .     S
C311   C312    1.396   .     A
C311   C487    1.370   .     S
C313   H328    1.082   .     S
C313   N340    1.368   .     A
C313   C196    1.418   1_655 S
C314   N339    1.367   .     A
C314   H329    1.082   .     S
C315   N339    1.387   .     A
C315   C351    1.477   .     S
C316   H330    1.083   .     S
C316   N340    1.353   .     A
C316   C197    1.414   1_655 S
C317   O346    1.287   .     A
C317   O345    1.285   .     A
C318   C320    1.453   .     S
C318   O347    1.294   .     A
C318   O348    1.295   .     A
C319   C831    1.405   1_554 S
C319   H863    1.084   1_554 S
C321   C322    1.388   .     A
C321   H334    1.078   .     S
C322   C854    1.391   .     S
C322   H867    1.083   .     S
C323   H335    1.079   .     S
C323   C828    1.419   1_554 S
C323   C853    1.391   1_554 S
H332   C850    1.084   .     S
H336   C853    1.083   1_554 S
N339   Zn349   2.016   .     S
N340   Zn350   2.016   .     S
O341   Zn349   2.000   .     S
O342   Zn350   1.996   .     S
O343   Zn349   1.962   .     S
O344   Zn350   1.906   .     S
O345   Zn349   1.996   .     S
O346   Zn350   2.000   .     S
O347   Zn349   1.906   .     S
O348   Zn350   1.962   .     S
C351   O352    1.218   .     D
O353   H354    1.014   .     S
O353   C233    1.400   1_655 S
C355   C371    1.419   .     S
C355   O401    1.285   .     A
C355   O400    1.286   .     A
C356   C357    1.407   .     A
C356   C889    1.414   .     S
C356   C913    1.419   .     S
C357   C364    1.414   .     A
C357   C361    1.415   .     A
C358   C362    1.389   .     A
C358   C887    1.414   1_554 S
C358   C890    1.419   1_554 S
C359   C360    1.392   .     A
C359   C889    1.419   .     S
C359   C909    1.405   .     S
C360   C361    1.389   .     A
C360   H390    1.084   .     S
C361   H396    1.082   .     S
C362   C379    1.390   .     A
C362   H392    1.079   .     S
C363   C378    1.395   .     A
C363   H383    1.083   .     S
C363   C379    1.400   .     A
C364   C366    1.463   .     S
C364   C380    1.400   .     A
C365   H397    1.084   .     S
C365   C371    1.398   .     A
C365   C13     1.370   1_565 S
C366   O402    1.299   .     A
C366   O403    1.293   .     A
C367   C368    1.396   .     A
C367   H384    1.084   .     S
C368   C376    1.419   .     S
C368   C369    1.398   .     A
C369   H385    1.084   .     S
C370   H386    1.084   .     S
C370   C371    1.396   .     A
C370   C15     1.370   1_565 S
C372   H387    1.082   .     S
C372   N399    1.368   .     A
C372   C432    1.418   .     S
C373   N398    1.367   .     A
C373   H388    1.082   .     S
C373   C490    1.418   1_455 S
C374   N398    1.387   .     A
C374   C410    1.477   .     S
C374   C493    1.414   1_455 S
C375   H389    1.083   .     S
C375   N399    1.353   .     A
C375   C433    1.414   .     S
C376   O405    1.287   .     A
C376   O404    1.285   .     A
C377   C379    1.453   .     S
C377   O406    1.294   .     A
C377   O407    1.295   .     A
C378   C890    1.405   1_554 S
C378   H922    1.084   1_554 S
C380   C381    1.388   .     A
C380   H393    1.078   .     S
C381   C913    1.391   .     S
C381   H926    1.083   .     S
C382   H394    1.079   .     S
C382   C887    1.419   1_554 S
C382   C912    1.391   1_554 S
H391   C909    1.084   .     S
H395   C912    1.083   1_554 S
N398   Zn408   2.016   .     S
N399   Zn409   2.016   .     S
O400   Zn408   2.000   .     S
O401   Zn409   1.996   .     S
O402   Zn408   1.962   .     S
O403   Zn409   1.906   .     S
O404   Zn408   1.996   .     S
O405   Zn409   2.000   .     S
O406   Zn408   1.906   .     S
O407   Zn409   1.962   .     S
C410   O411    1.218   .     D
C410   O530    1.400   1_455 S
O412   H413    1.014   .     S
O412   C469    1.400   .     S
C414   C430    1.419   .     S
C414   O460    1.285   .     A
C414   O459    1.286   .     A
C415   C416    1.407   .     A
C415   C948    1.414   .     S
C415   C972    1.419   .     S
C416   C423    1.414   .     A
C416   C420    1.415   .     A
C417   C421    1.389   .     A
C417   C946    1.414   1_554 S
C417   C949    1.419   1_554 S
C418   C419    1.392   .     A
C418   C948    1.419   .     S
C418   C968    1.405   .     S
C419   C420    1.389   .     A
C419   H449    1.084   .     S
C420   H455    1.082   .     S
C421   C438    1.390   .     A
C421   H451    1.079   .     S
C422   C437    1.395   .     A
C422   H442    1.083   .     S
C422   C438    1.400   .     A
C423   C425    1.463   .     S
C423   C439    1.400   .     A
C424   H456    1.084   .     S
C424   C430    1.398   .     A
C424   C72     1.370   1_565 S
C425   O461    1.299   .     A
C425   O462    1.293   .     A
C426   C427    1.396   .     A
C426   H443    1.084   .     S
C427   C435    1.419   .     S
C427   C428    1.398   .     A
C428   H444    1.084   .     S
C429   H445    1.084   .     S
C429   C430    1.396   .     A
C429   C74     1.370   1_565 S
C431   H446    1.082   .     S
C431   N458    1.368   .     A
C431   C491    1.418   .     S
C432   N457    1.367   .     A
C432   H447    1.082   .     S
C433   N457    1.387   .     A
C433   C469    1.477   .     S
C434   H448    1.083   .     S
C434   N458    1.353   .     A
C434   C492    1.414   .     S
C435   O464    1.287   .     A
C435   O463    1.285   .     A
C436   C438    1.453   .     S
C436   O465    1.294   .     A
C436   O466    1.295   .     A
C437   C949    1.405   1_554 S
C437   H981    1.084   1_554 S
C439   C440    1.388   .     A
C439   H452    1.078   .     S
C440   C972    1.391   .     S
C440   H985    1.083   .     S
C441   H453    1.079   .     S
C441   C946    1.419   1_554 S
C441   C971    1.391   1_554 S
H450   C968    1.084   .     S
H454   C971    1.083   1_554 S
N457   Zn467   2.016   .     S
N458   Zn468   2.016   .     S
O459   Zn467   2.000   .     S
O460   Zn468   1.996   .     S
O461   Zn467   1.962   .     S
O462   Zn468   1.906   .     S
O463   Zn467   1.996   .     S
O464   Zn468   2.000   .     S
O465   Zn467   1.906   .     S
O466   Zn468   1.962   .     S
C469   O470    1.218   .     D
O471   H472    1.014   .     S
O471   C528    1.400   .     S
C473   C489    1.419   .     S
C473   O519    1.285   .     A
C473   O518    1.286   .     A
C474   C475    1.407   .     A
C474   C1007   1.414   .     S
C474   C1031   1.419   .     S
C475   C482    1.414   .     A
C475   C479    1.415   .     A
C476   C480    1.389   .     A
C476   C1005   1.414   1_554 S
C476   C1008   1.419   1_554 S
C477   C478    1.392   .     A
C477   C1007   1.419   .     S
C477   C1027   1.405   .     S
C478   C479    1.389   .     A
C478   H508    1.084   .     S
C479   H514    1.082   .     S
C480   C497    1.390   .     A
C480   H510    1.079   .     S
C481   C496    1.395   .     A
C481   H501    1.083   .     S
C481   C497    1.400   .     A
C482   C484    1.463   .     S
C482   C498    1.400   .     A
C483   H515    1.084   .     S
C483   C489    1.398   .     A
C483   C131    1.370   1_565 S
C484   O520    1.299   .     A
C484   O521    1.293   .     A
C485   C486    1.396   .     A
C485   H502    1.084   .     S
C486   C494    1.419   .     S
C486   C487    1.398   .     A
C487   H503    1.084   .     S
C488   H504    1.084   .     S
C488   C489    1.396   .     A
C488   C133    1.370   1_565 S
C490   H505    1.082   .     S
C490   N517    1.368   .     A
C490   C373    1.418   1_655 S
C491   N516    1.367   .     A
C491   H506    1.082   .     S
C492   N516    1.387   .     A
C492   C528    1.477   .     S
C493   H507    1.083   .     S
C493   N517    1.353   .     A
C493   C374    1.414   1_655 S
C494   O523    1.287   .     A
C494   O522    1.285   .     A
C495   C497    1.453   .     S
C495   O524    1.294   .     A
C495   O525    1.295   .     A
C496   C1008   1.405   1_554 S
C496   H1040   1.084   1_554 S
C498   C499    1.388   .     A
C498   H511    1.078   .     S
C499   C1031   1.391   .     S
C499   H1044   1.083   .     S
C500   H512    1.079   .     S
C500   C1005   1.419   1_554 S
C500   C1030   1.391   1_554 S
H509   C1027   1.084   .     S
H513   C1030   1.083   1_554 S
N516   Zn526   2.016   .     S
N517   Zn527   2.016   .     S
O518   Zn526   2.000   .     S
O519   Zn527   1.996   .     S
O520   Zn526   1.962   .     S
O521   Zn527   1.906   .     S
O522   Zn526   1.996   .     S
O523   Zn527   2.000   .     S
O524   Zn526   1.906   .     S
O525   Zn527   1.962   .     S
C528   O529    1.218   .     D
O530   H531    1.014   .     S
O530   C410    1.400   1_655 S
C532   C548    1.419   .     S
C532   O578    1.285   .     A
C532   O577    1.286   .     A
C533   C534    1.407   .     A
C533   C4      1.414   1_556 S
C533   C28     1.419   1_556 S
C534   C541    1.414   .     A
C534   C538    1.415   .     A
C535   C539    1.389   .     A
C536   C537    1.392   .     A
C536   C4      1.419   1_556 S
C536   C24     1.405   1_556 S
C537   C538    1.389   .     A
C537   H567    1.084   .     S
C538   H573    1.082   .     S
C539   C556    1.390   .     A
C539   H569    1.079   .     S
C540   C555    1.395   .     A
C540   H560    1.083   .     S
C540   C556    1.400   .     A
C541   C543    1.463   .     S
C541   C557    1.400   .     A
C542   H574    1.084   .     S
C542   C548    1.398   .     A
C542   C721    1.370   .     S
C543   O579    1.299   .     A
C543   O580    1.293   .     A
C544   C545    1.396   .     A
C544   H561    1.084   .     S
C544   C896    1.370   1_545 S
C545   C553    1.419   .     S
C545   C546    1.398   .     A
C546   H562    1.084   .     S
C546   C901    1.370   1_545 S
C547   H563    1.084   .     S
C547   C548    1.396   .     A
C547   C723    1.370   .     S
C549   H564    1.082   .     S
C549   N576    1.368   .     A
C549   C609    1.418   .     S
C550   N575    1.367   .     A
C550   H565    1.082   .     S
C550   C667    1.418   1_455 S
C551   N575    1.387   .     A
C551   C587    1.477   .     S
C551   C670    1.414   1_455 S
C552   H566    1.083   .     S
C552   N576    1.353   .     A
C552   C610    1.414   .     S
C553   O582    1.287   .     A
C553   O581    1.285   .     A
C554   C556    1.453   .     S
C554   O583    1.294   .     A
C554   O584    1.295   .     A
C557   C558    1.388   .     A
C557   H570    1.078   .     S
C558   C28     1.391   1_556 S
C558   H41     1.083   1_556 S
C559   H571    1.079   .     S
H568   C24     1.084   1_556 S
N575   Zn585   2.016   .     S
N576   Zn586   2.016   .     S
O577   Zn585   2.000   .     S
O578   Zn586   1.996   .     S
O579   Zn585   1.962   .     S
O580   Zn586   1.906   .     S
O581   Zn585   1.996   .     S
O582   Zn586   2.000   .     S
O583   Zn585   1.906   .     S
O584   Zn586   1.962   .     S
C587   O588    1.218   .     D
C587   O707    1.400   1_455 S
O589   H590    1.014   .     S
O589   C646    1.400   .     S
C591   C607    1.419   .     S
C591   O637    1.285   .     A
C591   O636    1.286   .     A
C592   C593    1.407   .     A
C592   C63     1.414   1_556 S
C592   C87     1.419   1_556 S
C593   C600    1.414   .     A
C593   C597    1.415   .     A
C594   C598    1.389   .     A
C595   C596    1.392   .     A
C595   C63     1.419   1_556 S
C595   C83     1.405   1_556 S
C596   C597    1.389   .     A
C596   H626    1.084   .     S
C597   H632    1.082   .     S
C598   C615    1.390   .     A
C598   H628    1.079   .     S
C599   C614    1.395   .     A
C599   H619    1.083   .     S
C599   C615    1.400   .     A
C600   C602    1.463   .     S
C600   C616    1.400   .     A
C601   H633    1.084   .     S
C601   C607    1.398   .     A
C601   C780    1.370   .     S
C602   O638    1.299   .     A
C602   O639    1.293   .     A
C603   C604    1.396   .     A
C603   H620    1.084   .     S
C603   C955    1.370   1_545 S
C604   C612    1.419   .     S
C604   C605    1.398   .     A
C605   H621    1.084   .     S
C605   C960    1.370   1_545 S
C606   H622    1.084   .     S
C606   C607    1.396   .     A
C606   C782    1.370   .     S
C608   H623    1.082   .     S
C608   N635    1.368   .     A
C608   C668    1.418   .     S
C609   N634    1.367   .     A
C609   H624    1.082   .     S
C610   N634    1.387   .     A
C610   C646    1.477   .     S
C611   H625    1.083   .     S
C611   N635    1.353   .     A
C611   C669    1.414   .     S
C612   O641    1.287   .     A
C612   O640    1.285   .     A
C613   C615    1.453   .     S
C613   O642    1.294   .     A
C613   O643    1.295   .     A
C616   C617    1.388   .     A
C616   H629    1.078   .     S
C617   C87     1.391   1_556 S
C617   H100    1.083   1_556 S
C618   H630    1.079   .     S
H627   C83     1.084   1_556 S
N634   Zn644   2.016   .     S
N635   Zn645   2.016   .     S
O636   Zn644   2.000   .     S
O637   Zn645   1.996   .     S
O638   Zn644   1.962   .     S
O639   Zn645   1.906   .     S
O640   Zn644   1.996   .     S
O641   Zn645   2.000   .     S
O642   Zn644   1.906   .     S
O643   Zn645   1.962   .     S
C646   O647    1.218   .     D
O648   H649    1.014   .     S
O648   C705    1.400   .     S
C650   C666    1.419   .     S
C650   O696    1.285   .     A
C650   O695    1.286   .     A
C651   C652    1.407   .     A
C651   C122    1.414   1_556 S
C651   C146    1.419   1_556 S
C652   C659    1.414   .     A
C652   C656    1.415   .     A
C653   C657    1.389   .     A
C654   C655    1.392   .     A
C654   C122    1.419   1_556 S
C654   C142    1.405   1_556 S
C655   C656    1.389   .     A
C655   H685    1.084   .     S
C656   H691    1.082   .     S
C657   C674    1.390   .     A
C657   H687    1.079   .     S
C658   C673    1.395   .     A
C658   H678    1.083   .     S
C658   C674    1.400   .     A
C659   C661    1.463   .     S
C659   C675    1.400   .     A
C660   H692    1.084   .     S
C660   C666    1.398   .     A
C660   C839    1.370   .     S
C661   O697    1.299   .     A
C661   O698    1.293   .     A
C662   C663    1.396   .     A
C662   H679    1.084   .     S
C662   C1014   1.370   1_545 S
C663   C671    1.419   .     S
C663   C664    1.398   .     A
C664   H680    1.084   .     S
C664   C1019   1.370   1_545 S
C665   H681    1.084   .     S
C665   C666    1.396   .     A
C665   C841    1.370   .     S
C667   H682    1.082   .     S
C667   N694    1.368   .     A
C667   C550    1.418   1_655 S
C668   N693    1.367   .     A
C668   H683    1.082   .     S
C669   N693    1.387   .     A
C669   C705    1.477   .     S
C670   H684    1.083   .     S
C670   N694    1.353   .     A
C670   C551    1.414   1_655 S
C671   O700    1.287   .     A
C671   O699    1.285   .     A
C672   C674    1.453   .     S
C672   O701    1.294   .     A
C672   O702    1.295   .     A
C675   C676    1.388   .     A
C675   H688    1.078   .     S
C676   C146    1.391   1_556 S
C676   H159    1.083   1_556 S
C677   H689    1.079   .     S
H686   C142    1.084   1_556 S
N693   Zn703   2.016   .     S
N694   Zn704   2.016   .     S
O695   Zn703   2.000   .     S
O696   Zn704   1.996   .     S
O697   Zn703   1.962   .     S
O698   Zn704   1.906   .     S
O699   Zn703   1.996   .     S
O700   Zn704   2.000   .     S
O701   Zn703   1.906   .     S
O702   Zn704   1.962   .     S
C705   O706    1.218   .     D
O707   H708    1.014   .     S
O707   C587    1.400   1_655 S
C709   C725    1.419   .     S
C709   O755    1.285   .     A
C709   O754    1.286   .     A
C710   C711    1.407   .     A
C710   C181    1.414   1_556 S
C710   C205    1.419   1_556 S
C711   C718    1.414   .     A
C711   C715    1.415   .     A
C712   C716    1.389   .     A
C713   C714    1.392   .     A
C713   C181    1.419   1_556 S
C713   C201    1.405   1_556 S
C714   C715    1.389   .     A
C714   H744    1.084   .     S
C715   H750    1.082   .     S
C716   C733    1.390   .     A
C716   H746    1.079   .     S
C717   C732    1.395   .     A
C717   H737    1.083   .     S
C717   C733    1.400   .     A
C718   C720    1.463   .     S
C718   C734    1.400   .     A
C719   H751    1.084   .     S
C719   C725    1.398   .     A
C719   C898    1.370   .     S
C720   O756    1.299   .     A
C720   O757    1.293   .     A
C721   C722    1.396   .     A
C721   H738    1.084   .     S
C722   C730    1.419   .     S
C722   C723    1.398   .     A
C723   H739    1.084   .     S
C724   H740    1.084   .     S
C724   C725    1.396   .     A
C724   C900    1.370   .     S
C726   H741    1.082   .     S
C726   N753    1.368   .     A
C726   C786    1.418   .     S
C727   N752    1.367   .     A
C727   H742    1.082   .     S
C727   C844    1.418   1_455 S
C728   N752    1.387   .     A
C728   C764    1.477   .     S
C728   C847    1.414   1_455 S
C729   H743    1.083   .     S
C729   N753    1.353   .     A
C729   C787    1.414   .     S
C730   O759    1.287   .     A
C730   O758    1.285   .     A
C731   C733    1.453   .     S
C731   O760    1.294   .     A
C731   O761    1.295   .     A
C734   C735    1.388   .     A
C734   H747    1.078   .     S
C735   C205    1.391   1_556 S
C735   H218    1.083   1_556 S
C736   H748    1.079   .     S
H745   C201    1.084   1_556 S
N752   Zn762   2.016   .     S
N753   Zn763   2.016   .     S
O754   Zn762   2.000   .     S
O755   Zn763   1.996   .     S
O756   Zn762   1.962   .     S
O757   Zn763   1.906   .     S
O758   Zn762   1.996   .     S
O759   Zn763   2.000   .     S
O760   Zn762   1.906   .     S
O761   Zn763   1.962   .     S
C764   O765    1.218   .     D
C764   O884    1.400   1_455 S
O766   H767    1.014   .     S
O766   C823    1.400   .     S
C768   C784    1.419   .     S
C768   O814    1.285   .     A
C768   O813    1.286   .     A
C769   C770    1.407   .     A
C769   C240    1.414   1_556 S
C769   C264    1.419   1_556 S
C770   C777    1.414   .     A
C770   C774    1.415   .     A
C771   C775    1.389   .     A
C772   C773    1.392   .     A
C772   C240    1.419   1_556 S
C772   C260    1.405   1_556 S
C773   C774    1.389   .     A
C773   H803    1.084   .     S
C774   H809    1.082   .     S
C775   C792    1.390   .     A
C775   H805    1.079   .     S
C776   C791    1.395   .     A
C776   H796    1.083   .     S
C776   C792    1.400   .     A
C777   C779    1.463   .     S
C777   C793    1.400   .     A
C778   H810    1.084   .     S
C778   C784    1.398   .     A
C778   C957    1.370   .     S
C779   O815    1.299   .     A
C779   O816    1.293   .     A
C780   C781    1.396   .     A
C780   H797    1.084   .     S
C781   C789    1.419   .     S
C781   C782    1.398   .     A
C782   H798    1.084   .     S
C783   H799    1.084   .     S
C783   C784    1.396   .     A
C783   C959    1.370   .     S
C785   H800    1.082   .     S
C785   N812    1.368   .     A
C785   C845    1.418   .     S
C786   N811    1.367   .     A
C786   H801    1.082   .     S
C787   N811    1.387   .     A
C787   C823    1.477   .     S
C788   H802    1.083   .     S
C788   N812    1.353   .     A
C788   C846    1.414   .     S
C789   O818    1.287   .     A
C789   O817    1.285   .     A
C790   C792    1.453   .     S
C790   O819    1.294   .     A
C790   O820    1.295   .     A
C793   C794    1.388   .     A
C793   H806    1.078   .     S
C794   C264    1.391   1_556 S
C794   H277    1.083   1_556 S
C795   H807    1.079   .     S
H804   C260    1.084   1_556 S
N811   Zn821   2.016   .     S
N812   Zn822   2.016   .     S
O813   Zn821   2.000   .     S
O814   Zn822   1.996   .     S
O815   Zn821   1.962   .     S
O816   Zn822   1.906   .     S
O817   Zn821   1.996   .     S
O818   Zn822   2.000   .     S
O819   Zn821   1.906   .     S
O820   Zn822   1.962   .     S
C823   O824    1.218   .     D
O825   H826    1.014   .     S
O825   C882    1.400   .     S
C827   C843    1.419   .     S
C827   O873    1.285   .     A
C827   O872    1.286   .     A
C828   C829    1.407   .     A
C828   C299    1.414   1_556 S
C828   C323    1.419   1_556 S
C829   C836    1.414   .     A
C829   C833    1.415   .     A
C830   C834    1.389   .     A
C831   C832    1.392   .     A
C831   C299    1.419   1_556 S
C831   C319    1.405   1_556 S
C832   C833    1.389   .     A
C832   H862    1.084   .     S
C833   H868    1.082   .     S
C834   C851    1.390   .     A
C834   H864    1.079   .     S
C835   C850    1.395   .     A
C835   H855    1.083   .     S
C835   C851    1.400   .     A
C836   C838    1.463   .     S
C836   C852    1.400   .     A
C837   H869    1.084   .     S
C837   C843    1.398   .     A
C837   C1016   1.370   .     S
C838   O874    1.299   .     A
C838   O875    1.293   .     A
C839   C840    1.396   .     A
C839   H856    1.084   .     S
C840   C848    1.419   .     S
C840   C841    1.398   .     A
C841   H857    1.084   .     S
C842   H858    1.084   .     S
C842   C843    1.396   .     A
C842   C1018   1.370   .     S
C844   H859    1.082   .     S
C844   N871    1.368   .     A
C844   C727    1.418   1_655 S
C845   N870    1.367   .     A
C845   H860    1.082   .     S
C846   N870    1.387   .     A
C846   C882    1.477   .     S
C847   H861    1.083   .     S
C847   N871    1.353   .     A
C847   C728    1.414   1_655 S
C848   O877    1.287   .     A
C848   O876    1.285   .     A
C849   C851    1.453   .     S
C849   O878    1.294   .     A
C849   O879    1.295   .     A
C852   C853    1.388   .     A
C852   H865    1.078   .     S
C853   C323    1.391   1_556 S
C853   H336    1.083   1_556 S
C854   H866    1.079   .     S
H863   C319    1.084   1_556 S
N870   Zn880   2.016   .     S
N871   Zn881   2.016   .     S
O872   Zn880   2.000   .     S
O873   Zn881   1.996   .     S
O874   Zn880   1.962   .     S
O875   Zn881   1.906   .     S
O876   Zn880   1.996   .     S
O877   Zn881   2.000   .     S
O878   Zn880   1.906   .     S
O879   Zn881   1.962   .     S
C882   O883    1.218   .     D
O884   H885    1.014   .     S
O884   C764    1.400   1_655 S
C886   C902    1.419   .     S
C886   O932    1.285   .     A
C886   O931    1.286   .     A
C887   C888    1.407   .     A
C887   C358    1.414   1_556 S
C887   C382    1.419   1_556 S
C888   C895    1.414   .     A
C888   C892    1.415   .     A
C889   C893    1.389   .     A
C890   C891    1.392   .     A
C890   C358    1.419   1_556 S
C890   C378    1.405   1_556 S
C891   C892    1.389   .     A
C891   H921    1.084   .     S
C892   H927    1.082   .     S
C893   C910    1.390   .     A
C893   H923    1.079   .     S
C894   C909    1.395   .     A
C894   H914    1.083   .     S
C894   C910    1.400   .     A
C895   C897    1.463   .     S
C895   C911    1.400   .     A
C896   H928    1.084   .     S
C896   C902    1.398   .     A
C896   C544    1.370   1_565 S
C897   O933    1.299   .     A
C897   O934    1.293   .     A
C898   C899    1.396   .     A
C898   H915    1.084   .     S
C899   C907    1.419   .     S
C899   C900    1.398   .     A
C900   H916    1.084   .     S
C901   H917    1.084   .     S
C901   C902    1.396   .     A
C901   C546    1.370   1_565 S
C903   H918    1.082   .     S
C903   N930    1.368   .     A
C903   C963    1.418   .     S
C904   N929    1.367   .     A
C904   H919    1.082   .     S
C904   C1021   1.418   1_455 S
C905   N929    1.387   .     A
C905   C941    1.477   .     S
C905   C1024   1.414   1_455 S
C906   H920    1.083   .     S
C906   N930    1.353   .     A
C906   C964    1.414   .     S
C907   O936    1.287   .     A
C907   O935    1.285   .     A
C908   C910    1.453   .     S
C908   O937    1.294   .     A
C908   O938    1.295   .     A
C911   C912    1.388   .     A
C911   H924    1.078   .     S
C912   C382    1.391   1_556 S
C912   H395    1.083   1_556 S
C913   H925    1.079   .     S
H922   C378    1.084   1_556 S
N929   Zn939   2.016   .     S
N930   Zn940   2.016   .     S
O931   Zn939   2.000   .     S
O932   Zn940   1.996   .     S
O933   Zn939   1.962   .     S
O934   Zn940   1.906   .     S
O935   Zn939   1.996   .     S
O936   Zn940   2.000   .     S
O937   Zn939   1.906   .     S
O938   Zn940   1.962   .     S
C941   O942    1.218   .     D
C941   O1061   1.400   1_455 S
O943   H944    1.014   .     S
O943   C1000   1.400   .     S
C945   C961    1.419   .     S
C945   O991    1.285   .     A
C945   O990    1.286   .     A
C946   C947    1.407   .     A
C946   C417    1.414   1_556 S
C946   C441    1.419   1_556 S
C947   C954    1.414   .     A
C947   C951    1.415   .     A
C948   C952    1.389   .     A
C949   C950    1.392   .     A
C949   C417    1.419   1_556 S
C949   C437    1.405   1_556 S
C950   C951    1.389   .     A
C950   H980    1.084   .     S
C951   H986    1.082   .     S
C952   C969    1.390   .     A
C952   H982    1.079   .     S
C953   C968    1.395   .     A
C953   H973    1.083   .     S
C953   C969    1.400   .     A
C954   C956    1.463   .     S
C954   C970    1.400   .     A
C955   H987    1.084   .     S
C955   C961    1.398   .     A
C955   C603    1.370   1_565 S
C956   O992    1.299   .     A
C956   O993    1.293   .     A
C957   C958    1.396   .     A
C957   H974    1.084   .     S
C958   C966    1.419   .     S
C958   C959    1.398   .     A
C959   H975    1.084   .     S
C960   H976    1.084   .     S
C960   C961    1.396   .     A
C960   C605    1.370   1_565 S
C962   H977    1.082   .     S
C962   N989    1.368   .     A
C962   C1022   1.418   .     S
C963   N988    1.367   .     A
C963   H978    1.082   .     S
C964   N988    1.387   .     A
C964   C1000   1.477   .     S
C965   H979    1.083   .     S
C965   N989    1.353   .     A
C965   C1023   1.414   .     S
C966   O995    1.287   .     A
C966   O994    1.285   .     A
C967   C969    1.453   .     S
C967   O996    1.294   .     A
C967   O997    1.295   .     A
C970   C971    1.388   .     A
C970   H983    1.078   .     S
C971   C441    1.391   1_556 S
C971   H454    1.083   1_556 S
C972   H984    1.079   .     S
H981   C437    1.084   1_556 S
N988   Zn998   2.016   .     S
N989   Zn999   2.016   .     S
O990   Zn998   2.000   .     S
O991   Zn999   1.996   .     S
O992   Zn998   1.962   .     S
O993   Zn999   1.906   .     S
O994   Zn998   1.996   .     S
O995   Zn999   2.000   .     S
O996   Zn998   1.906   .     S
O997   Zn999   1.962   .     S
C1000  O1001   1.218   .     D
O1002  H1003   1.014   .     S
O1002  C1059   1.400   .     S
C1004  C1020   1.419   .     S
C1004  O1050   1.285   .     A
C1004  O1049   1.286   .     A
C1005  C1006   1.407   .     A
C1005  C476    1.414   1_556 S
C1005  C500    1.419   1_556 S
C1006  C1013   1.414   .     A
C1006  C1010   1.415   .     A
C1007  C1011   1.389   .     A
C1008  C1009   1.392   .     A
C1008  C476    1.419   1_556 S
C1008  C496    1.405   1_556 S
C1009  C1010   1.389   .     A
C1009  H1039   1.084   .     S
C1010  H1045   1.082   .     S
C1011  C1028   1.390   .     A
C1011  H1041   1.079   .     S
C1012  C1027   1.395   .     A
C1012  H1032   1.083   .     S
C1012  C1028   1.400   .     A
C1013  C1015   1.463   .     S
C1013  C1029   1.400   .     A
C1014  H1046   1.084   .     S
C1014  C1020   1.398   .     A
C1014  C662    1.370   1_565 S
C1015  O1051   1.299   .     A
C1015  O1052   1.293   .     A
C1016  C1017   1.396   .     A
C1016  H1033   1.084   .     S
C1017  C1025   1.419   .     S
C1017  C1018   1.398   .     A
C1018  H1034   1.084   .     S
C1019  H1035   1.084   .     S
C1019  C1020   1.396   .     A
C1019  C664    1.370   1_565 S
C1021  H1036   1.082   .     S
C1021  N1048   1.368   .     A
C1021  C904    1.418   1_655 S
C1022  N1047   1.367   .     A
C1022  H1037   1.082   .     S
C1023  N1047   1.387   .     A
C1023  C1059   1.477   .     S
C1024  H1038   1.083   .     S
C1024  N1048   1.353   .     A
C1024  C905    1.414   1_655 S
C1025  O1054   1.287   .     A
C1025  O1053   1.285   .     A
C1026  C1028   1.453   .     S
C1026  O1055   1.294   .     A
C1026  O1056   1.295   .     A
C1029  C1030   1.388   .     A
C1029  H1042   1.078   .     S
C1030  C500    1.391   1_556 S
C1030  H513    1.083   1_556 S
C1031  H1043   1.079   .     S
H1040  C496    1.084   1_556 S
N1047  Zn1057  2.016   .     S
N1048  Zn1058  2.016   .     S
O1049  Zn1057  2.000   .     S
O1050  Zn1058  1.996   .     S
O1051  Zn1057  1.962   .     S
O1052  Zn1058  1.906   .     S
O1053  Zn1057  1.996   .     S
O1054  Zn1058  2.000   .     S
O1055  Zn1057  1.906   .     S
O1056  Zn1058  1.962   .     S
C1059  O1060   1.218   .     D
O1061  H1062   1.014   .     S
O1061  C941    1.400   1_655 S
