data_str_m3_o2_o10_pcu_sym.103
_audit_creation_date              2020-01-03
_audit_creation_method            'Materials Studio'
_symmetry_space_group_name_H-M    'P1'
_symmetry_Int_Tables_number       1
_symmetry_cell_setting            triclinic
loop_
_symmetry_equiv_pos_as_xyz
  x,y,z
_cell_length_a                    25.6656
_cell_length_b                    29.7681
_cell_length_c                    28.6485
_cell_angle_alpha                 89.1529
_cell_angle_beta                  97.8544
_cell_angle_gamma                 93.4654
loop_
_atom_site_label
_atom_site_type_symbol
_atom_site_fract_x
_atom_site_fract_y
_atom_site_fract_z
_atom_site_U_iso_or_equiv
_atom_site_adp_type
_atom_site_occupancy
O1     O     0.16667   0.18454   0.28974   0.00000  Uiso   1.00
O2     O     0.16666   0.31547   0.21026   0.00000  Uiso   1.00
O3     O     0.16667   0.18453   0.21026   0.00000  Uiso   1.00
O4     O     0.16666   0.31547   0.28974   0.00000  Uiso   1.00
C5     C     0.16632   0.16419   0.25022   0.00000  Uiso   1.00
C6     C     0.16525   0.33612   0.24957   0.00000  Uiso   1.00
O7     O     0.09058   0.25000   0.28044   0.00000  Uiso   1.00
O8     O     0.24275   0.25000   0.21955   0.00000  Uiso   1.00
O9     O     0.09058   0.25000   0.20096   0.00000  Uiso   1.00
O10    O     0.24275   0.25001   0.29903   0.00000  Uiso   1.00
C11    C     0.06717   0.24901   0.23781   0.00000  Uiso   1.00
C12    C     0.26611   0.24986   0.26226   0.00000  Uiso   1.00
Zn13   Zn    0.16667   0.25001   0.30307   0.00000  Uiso   1.00
Zn14   Zn    0.16667   0.25000   0.19693   0.00000  Uiso   1.00
C15    C     0.01207   0.24571   0.23158   0.00000  Uiso   1.00
C16    C     0.32114   0.25076   0.26891   0.00000  Uiso   1.00
H17    H     0.32488   0.23871   0.19649   0.00000  Uiso   1.00
H18    H     0.00824   0.25667   0.30433   0.00000  Uiso   1.00
C19    C     0.19907   0.04618   0.27061   0.00000  Uiso   1.00
C20    C     0.16490   0.45522   0.20840   0.00000  Uiso   1.00
C21    C     0.20330   0.09259   0.27159   0.00000  Uiso   1.00
C22    C     0.16934   0.40922   0.20884   0.00000  Uiso   1.00
H23    H     0.23931   0.11005   0.28800   0.00000  Uiso   1.00
H24    H     0.18188   0.39350   0.17873   0.00000  Uiso   1.00
C25    C     0.16159   0.11646   0.25014   0.00000  Uiso   1.00
C26    C     0.15934   0.38402   0.24849   0.00000  Uiso   1.00
C27    C     0.11502   0.09501   0.22835   0.00000  Uiso   1.00
C28    C     0.14245   0.40449   0.28702   0.00000  Uiso   1.00
H29    H     0.08331   0.11476   0.21188   0.00000  Uiso   1.00
H30    H     0.13375   0.38466   0.31729   0.00000  Uiso   1.00
C31    C     0.10927   0.04844   0.22818   0.00000  Uiso   1.00
C32    C     0.13704   0.45048   0.28698   0.00000  Uiso   1.00
C33    C     0.15191   0.02414   0.24930   0.00000  Uiso   1.00
C34    C     0.14923   0.47581   0.24760   0.00000  Uiso   1.00
C35    C     0.12299   0.23202   0.04775   0.00000  Uiso   1.00
C36    C     0.17959   0.28799   0.44937   0.00000  Uiso   1.00
H37    H     0.08805   0.21840   0.02584   0.00000  Uiso   1.00
H38    H     0.19149   0.31856   0.46905   0.00000  Uiso   1.00
C39    C     0.12588   0.22884   0.09721   0.00000  Uiso   1.00
C40    C     0.18488   0.28687   0.40100   0.00000  Uiso   1.00
N41    N     0.16667   0.24999   0.12623   0.00000  Uiso   1.00
N42    N     0.16667   0.25001   0.37376   0.00000  Uiso   1.00
C43    C     0.20919   0.26966   0.10560   0.00000  Uiso   1.00
C44    C     0.14820   0.21154   0.39710   0.00000  Uiso   1.00
C45    C     0.21240   0.26251   0.05671   0.00000  Uiso   1.00
C46    C     0.15572   0.20893   0.44757   0.00000  Uiso   1.00
C47    C     0.16641   0.24909   0.02659   0.00000  Uiso   1.00
C48    C     0.16499   0.24888   0.47357   0.00000  Uiso   1.00
Cl49   Cl    0.25408   0.01667   0.29498   0.00000  Uiso   1.00
Cl50   Cl    0.18226   0.48644   0.15945   0.00000  Uiso   1.00
S51    S     0.04934   0.02220   0.20040   0.00000  Uiso   1.00
O52    O     0.05638   0.00917   0.15128   0.00000  Uiso   1.00
O53    O     0.03406   0.48076   0.22717   0.00000  Uiso   1.00
O54    O     0.00097   0.05825   0.19758   0.00000  Uiso   1.00
H55    H     0.30226   0.04102   0.18261   0.00000  Uiso   1.00
S56    S     0.11773   0.47521   0.33746   0.00000  Uiso   1.00
O57    O     0.16584   0.49578   0.36711   0.00000  Uiso   1.00
O58    O     0.07999   0.01123   0.32322   0.00000  Uiso   1.00
O59    O     0.08855   0.43572   0.36940   0.00000  Uiso   1.00
H60    H     0.07991   0.45194   0.39703   0.00000  Uiso   1.00
Cl61   Cl    0.07728   0.19481   0.12030   0.00000  Uiso   1.00
Cl62   Cl    0.21940   0.33314   0.37867   0.00000  Uiso   1.00
S63    S     0.25638   0.31238   0.13278   0.00000  Uiso   1.00
O64    O     0.31137   0.29774   0.13335   0.00000  Uiso   1.00
O65    O     0.25053   0.35334   0.10159   0.00000  Uiso   1.00
O66    O     0.25298   0.32949   0.18742   0.00000  Uiso   1.00
H67    H     0.28075   0.35409   0.19362   0.00000  Uiso   1.00
S68    S     0.10983   0.16485   0.36795   0.00000  Uiso   1.00
O69    O     0.14596   0.12944   0.35772   0.00000  Uiso   1.00
O70    O     0.07297   0.14455   0.40003   0.00000  Uiso   1.00
O71    O     0.07152   0.17757   0.31812   0.00000  Uiso   1.00
H72    H     0.05680   0.14824   0.30476   0.00000  Uiso   1.00
S73    S     0.27496   0.26349   0.03504   0.00000  Uiso   1.00
O74    O     0.29619   0.31129   0.03053   0.00000  Uiso   1.00
O75    O     0.31260   0.23843   0.06916   0.00000  Uiso   1.00
O76    O     0.27209   0.23822   0.48254   0.00000  Uiso   1.00
H77    H     0.30849   0.24151   0.47456   0.00000  Uiso   1.00
S78    S     0.16181   0.15618   0.47870   0.00000  Uiso   1.00
O79    O     0.10954   0.14044   0.49314   0.00000  Uiso   1.00
O80    O     0.18002   0.12083   0.44883   0.00000  Uiso   1.00
O81    O     0.20628   0.16194   0.02745   0.00000  Uiso   1.00
H82    H     0.20120   0.13406   0.04601   0.00000  Uiso   1.00
O83    O     0.50000   0.18454   0.28974   0.00000  Uiso   1.00
O84    O     0.50000   0.31547   0.21026   0.00000  Uiso   1.00
O85    O     0.50000   0.18453   0.21026   0.00000  Uiso   1.00
O86    O     0.50000   0.31547   0.28974   0.00000  Uiso   1.00
C87    C     0.49965   0.16419   0.25022   0.00000  Uiso   1.00
C88    C     0.49858   0.33612   0.24957   0.00000  Uiso   1.00
O89    O     0.42392   0.25000   0.28044   0.00000  Uiso   1.00
O90    O     0.57608   0.25000   0.21955   0.00000  Uiso   1.00
O91    O     0.42392   0.25000   0.20096   0.00000  Uiso   1.00
O92    O     0.57608   0.25001   0.29903   0.00000  Uiso   1.00
C93    C     0.40050   0.24901   0.23781   0.00000  Uiso   1.00
C94    C     0.59944   0.24986   0.26226   0.00000  Uiso   1.00
Zn95   Zn    0.50000   0.25001   0.30307   0.00000  Uiso   1.00
Zn96   Zn    0.50000   0.25000   0.19693   0.00000  Uiso   1.00
C97    C     0.34540   0.24571   0.23158   0.00000  Uiso   1.00
C98    C     0.65447   0.25076   0.26891   0.00000  Uiso   1.00
H99    H     0.65821   0.23871   0.19649   0.00000  Uiso   1.00
H100   H     0.34158   0.25667   0.30433   0.00000  Uiso   1.00
C101   C     0.53240   0.04618   0.27061   0.00000  Uiso   1.00
C102   C     0.49823   0.45522   0.20840   0.00000  Uiso   1.00
C103   C     0.53663   0.09259   0.27159   0.00000  Uiso   1.00
C104   C     0.50267   0.40922   0.20884   0.00000  Uiso   1.00
H105   H     0.57264   0.11005   0.28800   0.00000  Uiso   1.00
H106   H     0.51521   0.39350   0.17873   0.00000  Uiso   1.00
C107   C     0.49492   0.11646   0.25014   0.00000  Uiso   1.00
C108   C     0.49268   0.38402   0.24849   0.00000  Uiso   1.00
C109   C     0.44835   0.09501   0.22835   0.00000  Uiso   1.00
C110   C     0.47578   0.40449   0.28702   0.00000  Uiso   1.00
H111   H     0.41665   0.11476   0.21188   0.00000  Uiso   1.00
H112   H     0.46708   0.38466   0.31729   0.00000  Uiso   1.00
C113   C     0.44260   0.04844   0.22818   0.00000  Uiso   1.00
C114   C     0.47038   0.45048   0.28698   0.00000  Uiso   1.00
C115   C     0.48524   0.02414   0.24930   0.00000  Uiso   1.00
C116   C     0.48256   0.47581   0.24760   0.00000  Uiso   1.00
C117   C     0.45633   0.23202   0.04775   0.00000  Uiso   1.00
C118   C     0.51293   0.28799   0.44937   0.00000  Uiso   1.00
H119   H     0.42138   0.21840   0.02584   0.00000  Uiso   1.00
H120   H     0.52482   0.31856   0.46905   0.00000  Uiso   1.00
C121   C     0.45921   0.22884   0.09721   0.00000  Uiso   1.00
C122   C     0.51821   0.28687   0.40100   0.00000  Uiso   1.00
N123   N     0.50000   0.24999   0.12623   0.00000  Uiso   1.00
N124   N     0.50000   0.25001   0.37376   0.00000  Uiso   1.00
C125   C     0.54252   0.26966   0.10560   0.00000  Uiso   1.00
C126   C     0.48153   0.21154   0.39710   0.00000  Uiso   1.00
C127   C     0.54573   0.26251   0.05671   0.00000  Uiso   1.00
C128   C     0.48905   0.20893   0.44757   0.00000  Uiso   1.00
C129   C     0.49974   0.24909   0.02659   0.00000  Uiso   1.00
C130   C     0.49832   0.24888   0.47357   0.00000  Uiso   1.00
Cl131  Cl    0.58741   0.01667   0.29498   0.00000  Uiso   1.00
Cl132  Cl    0.51560   0.48644   0.15945   0.00000  Uiso   1.00
S133   S     0.38268   0.02220   0.20040   0.00000  Uiso   1.00
O134   O     0.38972   0.00917   0.15128   0.00000  Uiso   1.00
O135   O     0.36739   0.48076   0.22717   0.00000  Uiso   1.00
O136   O     0.33430   0.05825   0.19758   0.00000  Uiso   1.00
H137   H     0.63560   0.04102   0.18261   0.00000  Uiso   1.00
S138   S     0.45107   0.47521   0.33746   0.00000  Uiso   1.00
O139   O     0.49917   0.49578   0.36711   0.00000  Uiso   1.00
O140   O     0.41332   0.01123   0.32322   0.00000  Uiso   1.00
O141   O     0.42188   0.43572   0.36940   0.00000  Uiso   1.00
H142   H     0.41324   0.45194   0.39703   0.00000  Uiso   1.00
Cl143  Cl    0.41061   0.19481   0.12030   0.00000  Uiso   1.00
Cl144  Cl    0.55273   0.33314   0.37867   0.00000  Uiso   1.00
S145   S     0.58972   0.31238   0.13278   0.00000  Uiso   1.00
O146   O     0.64471   0.29774   0.13335   0.00000  Uiso   1.00
O147   O     0.58386   0.35334   0.10159   0.00000  Uiso   1.00
O148   O     0.58631   0.32949   0.18742   0.00000  Uiso   1.00
H149   H     0.61408   0.35409   0.19362   0.00000  Uiso   1.00
S150   S     0.44316   0.16485   0.36795   0.00000  Uiso   1.00
O151   O     0.47929   0.12944   0.35772   0.00000  Uiso   1.00
O152   O     0.40630   0.14455   0.40003   0.00000  Uiso   1.00
O153   O     0.40485   0.17757   0.31812   0.00000  Uiso   1.00
H154   H     0.39013   0.14824   0.30476   0.00000  Uiso   1.00
S155   S     0.60829   0.26349   0.03504   0.00000  Uiso   1.00
O156   O     0.62952   0.31129   0.03053   0.00000  Uiso   1.00
O157   O     0.64593   0.23843   0.06916   0.00000  Uiso   1.00
O158   O     0.60543   0.23822   0.48254   0.00000  Uiso   1.00
H159   H     0.64182   0.24151   0.47456   0.00000  Uiso   1.00
S160   S     0.49514   0.15618   0.47870   0.00000  Uiso   1.00
O161   O     0.44287   0.14044   0.49314   0.00000  Uiso   1.00
O162   O     0.51335   0.12083   0.44883   0.00000  Uiso   1.00
O163   O     0.53962   0.16194   0.02745   0.00000  Uiso   1.00
H164   H     0.53453   0.13406   0.04601   0.00000  Uiso   1.00
O165   O     0.83334   0.18454   0.28974   0.00000  Uiso   1.00
O166   O     0.83333   0.31547   0.21026   0.00000  Uiso   1.00
O167   O     0.83334   0.18453   0.21026   0.00000  Uiso   1.00
O168   O     0.83333   0.31547   0.28974   0.00000  Uiso   1.00
C169   C     0.83299   0.16419   0.25022   0.00000  Uiso   1.00
C170   C     0.83191   0.33612   0.24957   0.00000  Uiso   1.00
O171   O     0.75725   0.25000   0.28044   0.00000  Uiso   1.00
O172   O     0.90942   0.25000   0.21955   0.00000  Uiso   1.00
O173   O     0.75725   0.25000   0.20096   0.00000  Uiso   1.00
O174   O     0.90942   0.25001   0.29903   0.00000  Uiso   1.00
C175   C     0.73383   0.24901   0.23781   0.00000  Uiso   1.00
C176   C     0.93278   0.24986   0.26226   0.00000  Uiso   1.00
Zn177  Zn    0.83333   0.25001   0.30307   0.00000  Uiso   1.00
Zn178  Zn    0.83333   0.25000   0.19693   0.00000  Uiso   1.00
C179   C     0.67874   0.24571   0.23158   0.00000  Uiso   1.00
C180   C     0.98781   0.25076   0.26891   0.00000  Uiso   1.00
H181   H     0.99155   0.23871   0.19649   0.00000  Uiso   1.00
H182   H     0.67491   0.25667   0.30433   0.00000  Uiso   1.00
C183   C     0.86573   0.04618   0.27061   0.00000  Uiso   1.00
C184   C     0.83156   0.45522   0.20840   0.00000  Uiso   1.00
C185   C     0.86997   0.09259   0.27159   0.00000  Uiso   1.00
C186   C     0.83600   0.40922   0.20884   0.00000  Uiso   1.00
H187   H     0.90597   0.11005   0.28800   0.00000  Uiso   1.00
H188   H     0.84855   0.39350   0.17873   0.00000  Uiso   1.00
C189   C     0.82826   0.11646   0.25014   0.00000  Uiso   1.00
C190   C     0.82601   0.38402   0.24849   0.00000  Uiso   1.00
C191   C     0.78169   0.09501   0.22835   0.00000  Uiso   1.00
C192   C     0.80912   0.40449   0.28702   0.00000  Uiso   1.00
H193   H     0.74998   0.11476   0.21188   0.00000  Uiso   1.00
H194   H     0.80041   0.38466   0.31729   0.00000  Uiso   1.00
C195   C     0.77593   0.04844   0.22818   0.00000  Uiso   1.00
C196   C     0.80371   0.45048   0.28698   0.00000  Uiso   1.00
C197   C     0.81858   0.02414   0.24930   0.00000  Uiso   1.00
C198   C     0.81590   0.47581   0.24760   0.00000  Uiso   1.00
C199   C     0.78966   0.23202   0.04775   0.00000  Uiso   1.00
C200   C     0.84626   0.28799   0.44937   0.00000  Uiso   1.00
H201   H     0.75471   0.21840   0.02584   0.00000  Uiso   1.00
H202   H     0.85816   0.31856   0.46905   0.00000  Uiso   1.00
C203   C     0.79254   0.22884   0.09721   0.00000  Uiso   1.00
C204   C     0.85155   0.28687   0.40100   0.00000  Uiso   1.00
N205   N     0.83333   0.24999   0.12623   0.00000  Uiso   1.00
N206   N     0.83333   0.25001   0.37376   0.00000  Uiso   1.00
C207   C     0.87585   0.26966   0.10560   0.00000  Uiso   1.00
C208   C     0.81487   0.21154   0.39710   0.00000  Uiso   1.00
C209   C     0.87907   0.26251   0.05671   0.00000  Uiso   1.00
C210   C     0.82238   0.20893   0.44757   0.00000  Uiso   1.00
C211   C     0.83308   0.24909   0.02659   0.00000  Uiso   1.00
C212   C     0.83165   0.24888   0.47357   0.00000  Uiso   1.00
Cl213  Cl    0.92074   0.01667   0.29498   0.00000  Uiso   1.00
Cl214  Cl    0.84893   0.48644   0.15945   0.00000  Uiso   1.00
S215   S     0.71601   0.02220   0.20040   0.00000  Uiso   1.00
O216   O     0.72305   0.00917   0.15128   0.00000  Uiso   1.00
O217   O     0.70073   0.48076   0.22717   0.00000  Uiso   1.00
O218   O     0.66763   0.05825   0.19758   0.00000  Uiso   1.00
H219   H     0.96893   0.04102   0.18261   0.00000  Uiso   1.00
S220   S     0.78440   0.47521   0.33746   0.00000  Uiso   1.00
O221   O     0.83251   0.49578   0.36711   0.00000  Uiso   1.00
O222   O     0.74665   0.01123   0.32322   0.00000  Uiso   1.00
O223   O     0.75522   0.43572   0.36940   0.00000  Uiso   1.00
H224   H     0.74658   0.45194   0.39703   0.00000  Uiso   1.00
Cl225  Cl    0.74395   0.19481   0.12030   0.00000  Uiso   1.00
Cl226  Cl    0.88607   0.33314   0.37867   0.00000  Uiso   1.00
S227   S     0.92305   0.31238   0.13278   0.00000  Uiso   1.00
O228   O     0.97804   0.29774   0.13335   0.00000  Uiso   1.00
O229   O     0.91719   0.35334   0.10159   0.00000  Uiso   1.00
O230   O     0.91965   0.32949   0.18742   0.00000  Uiso   1.00
H231   H     0.94741   0.35409   0.19362   0.00000  Uiso   1.00
S232   S     0.77650   0.16485   0.36795   0.00000  Uiso   1.00
O233   O     0.81263   0.12944   0.35772   0.00000  Uiso   1.00
O234   O     0.73963   0.14455   0.40003   0.00000  Uiso   1.00
O235   O     0.73819   0.17757   0.31812   0.00000  Uiso   1.00
H236   H     0.72347   0.14824   0.30476   0.00000  Uiso   1.00
S237   S     0.94163   0.26349   0.03504   0.00000  Uiso   1.00
O238   O     0.96285   0.31129   0.03053   0.00000  Uiso   1.00
O239   O     0.97926   0.23843   0.06916   0.00000  Uiso   1.00
O240   O     0.93876   0.23822   0.48254   0.00000  Uiso   1.00
H241   H     0.97516   0.24151   0.47456   0.00000  Uiso   1.00
S242   S     0.82847   0.15618   0.47870   0.00000  Uiso   1.00
O243   O     0.77621   0.14044   0.49314   0.00000  Uiso   1.00
O244   O     0.84668   0.12083   0.44883   0.00000  Uiso   1.00
O245   O     0.87295   0.16194   0.02745   0.00000  Uiso   1.00
H246   H     0.86787   0.13406   0.04601   0.00000  Uiso   1.00
O247   O     0.16667   0.68454   0.28974   0.00000  Uiso   1.00
O248   O     0.16666   0.81547   0.21026   0.00000  Uiso   1.00
O249   O     0.16667   0.68453   0.21026   0.00000  Uiso   1.00
O250   O     0.16666   0.81547   0.28974   0.00000  Uiso   1.00
C251   C     0.16632   0.66419   0.25022   0.00000  Uiso   1.00
C252   C     0.16525   0.83612   0.24957   0.00000  Uiso   1.00
O253   O     0.09058   0.75000   0.28044   0.00000  Uiso   1.00
O254   O     0.24275   0.75000   0.21955   0.00000  Uiso   1.00
O255   O     0.09058   0.75000   0.20096   0.00000  Uiso   1.00
O256   O     0.24275   0.75001   0.29903   0.00000  Uiso   1.00
C257   C     0.06717   0.74901   0.23781   0.00000  Uiso   1.00
C258   C     0.26611   0.74986   0.26226   0.00000  Uiso   1.00
Zn259  Zn    0.16667   0.75001   0.30307   0.00000  Uiso   1.00
Zn260  Zn    0.16667   0.75000   0.19693   0.00000  Uiso   1.00
C261   C     0.01207   0.74571   0.23158   0.00000  Uiso   1.00
C262   C     0.32114   0.75076   0.26891   0.00000  Uiso   1.00
H263   H     0.32488   0.73871   0.19649   0.00000  Uiso   1.00
H264   H     0.00824   0.75667   0.30433   0.00000  Uiso   1.00
C265   C     0.19907   0.54618   0.27061   0.00000  Uiso   1.00
C266   C     0.16490   0.95522   0.20840   0.00000  Uiso   1.00
C267   C     0.20330   0.59259   0.27159   0.00000  Uiso   1.00
C268   C     0.16934   0.90922   0.20884   0.00000  Uiso   1.00
H269   H     0.23931   0.61005   0.28800   0.00000  Uiso   1.00
H270   H     0.18188   0.89350   0.17873   0.00000  Uiso   1.00
C271   C     0.16159   0.61646   0.25014   0.00000  Uiso   1.00
C272   C     0.15934   0.88402   0.24849   0.00000  Uiso   1.00
C273   C     0.11502   0.59501   0.22835   0.00000  Uiso   1.00
C274   C     0.14245   0.90449   0.28702   0.00000  Uiso   1.00
H275   H     0.08331   0.61476   0.21188   0.00000  Uiso   1.00
H276   H     0.13375   0.88466   0.31729   0.00000  Uiso   1.00
C277   C     0.10927   0.54844   0.22818   0.00000  Uiso   1.00
C278   C     0.13704   0.95048   0.28698   0.00000  Uiso   1.00
C279   C     0.15191   0.52414   0.24930   0.00000  Uiso   1.00
C280   C     0.14923   0.97581   0.24760   0.00000  Uiso   1.00
C281   C     0.12299   0.73202   0.04775   0.00000  Uiso   1.00
C282   C     0.17959   0.78799   0.44937   0.00000  Uiso   1.00
H283   H     0.08805   0.71840   0.02584   0.00000  Uiso   1.00
H284   H     0.19149   0.81856   0.46905   0.00000  Uiso   1.00
C285   C     0.12588   0.72884   0.09721   0.00000  Uiso   1.00
C286   C     0.18488   0.78687   0.40100   0.00000  Uiso   1.00
N287   N     0.16667   0.74999   0.12623   0.00000  Uiso   1.00
N288   N     0.16667   0.75001   0.37376   0.00000  Uiso   1.00
C289   C     0.20919   0.76966   0.10560   0.00000  Uiso   1.00
C290   C     0.14820   0.71154   0.39710   0.00000  Uiso   1.00
C291   C     0.21240   0.76251   0.05671   0.00000  Uiso   1.00
C292   C     0.15572   0.70893   0.44757   0.00000  Uiso   1.00
C293   C     0.16641   0.74909   0.02659   0.00000  Uiso   1.00
C294   C     0.16499   0.74888   0.47357   0.00000  Uiso   1.00
Cl295  Cl    0.25408   0.51667   0.29498   0.00000  Uiso   1.00
Cl296  Cl    0.18226   0.98644   0.15945   0.00000  Uiso   1.00
S297   S     0.04934   0.52220   0.20040   0.00000  Uiso   1.00
O298   O     0.05638   0.50917   0.15128   0.00000  Uiso   1.00
O299   O     0.03406   0.98076   0.22717   0.00000  Uiso   1.00
O300   O     0.00097   0.55825   0.19758   0.00000  Uiso   1.00
H301   H     0.30226   0.54102   0.18261   0.00000  Uiso   1.00
S302   S     0.11773   0.97521   0.33746   0.00000  Uiso   1.00
O303   O     0.16584   0.99578   0.36711   0.00000  Uiso   1.00
O304   O     0.07999   0.51123   0.32322   0.00000  Uiso   1.00
O305   O     0.08855   0.93572   0.36940   0.00000  Uiso   1.00
H306   H     0.07991   0.95194   0.39703   0.00000  Uiso   1.00
Cl307  Cl    0.07728   0.69481   0.12030   0.00000  Uiso   1.00
Cl308  Cl    0.21940   0.83314   0.37867   0.00000  Uiso   1.00
S309   S     0.25638   0.81238   0.13278   0.00000  Uiso   1.00
O310   O     0.31137   0.79774   0.13335   0.00000  Uiso   1.00
O311   O     0.25053   0.85334   0.10159   0.00000  Uiso   1.00
O312   O     0.25298   0.82949   0.18742   0.00000  Uiso   1.00
H313   H     0.28075   0.85409   0.19362   0.00000  Uiso   1.00
S314   S     0.10983   0.66485   0.36795   0.00000  Uiso   1.00
O315   O     0.14596   0.62944   0.35772   0.00000  Uiso   1.00
O316   O     0.07297   0.64455   0.40003   0.00000  Uiso   1.00
O317   O     0.07152   0.67757   0.31812   0.00000  Uiso   1.00
H318   H     0.05680   0.64824   0.30476   0.00000  Uiso   1.00
S319   S     0.27496   0.76349   0.03504   0.00000  Uiso   1.00
O320   O     0.29619   0.81129   0.03053   0.00000  Uiso   1.00
O321   O     0.31260   0.73843   0.06916   0.00000  Uiso   1.00
O322   O     0.27209   0.73822   0.48254   0.00000  Uiso   1.00
H323   H     0.30849   0.74151   0.47456   0.00000  Uiso   1.00
S324   S     0.16181   0.65618   0.47870   0.00000  Uiso   1.00
O325   O     0.10954   0.64044   0.49314   0.00000  Uiso   1.00
O326   O     0.18002   0.62083   0.44883   0.00000  Uiso   1.00
O327   O     0.20628   0.66194   0.02745   0.00000  Uiso   1.00
H328   H     0.20120   0.63406   0.04601   0.00000  Uiso   1.00
O329   O     0.50000   0.68454   0.28974   0.00000  Uiso   1.00
O330   O     0.50000   0.81547   0.21026   0.00000  Uiso   1.00
O331   O     0.50000   0.68453   0.21026   0.00000  Uiso   1.00
O332   O     0.50000   0.81547   0.28974   0.00000  Uiso   1.00
C333   C     0.49965   0.66419   0.25022   0.00000  Uiso   1.00
C334   C     0.49858   0.83612   0.24957   0.00000  Uiso   1.00
O335   O     0.42392   0.75000   0.28044   0.00000  Uiso   1.00
O336   O     0.57608   0.75000   0.21955   0.00000  Uiso   1.00
O337   O     0.42392   0.75000   0.20096   0.00000  Uiso   1.00
O338   O     0.57608   0.75001   0.29903   0.00000  Uiso   1.00
C339   C     0.40050   0.74901   0.23781   0.00000  Uiso   1.00
C340   C     0.59944   0.74986   0.26226   0.00000  Uiso   1.00
Zn341  Zn    0.50000   0.75001   0.30307   0.00000  Uiso   1.00
Zn342  Zn    0.50000   0.75000   0.19693   0.00000  Uiso   1.00
C343   C     0.34540   0.74571   0.23158   0.00000  Uiso   1.00
C344   C     0.65447   0.75076   0.26891   0.00000  Uiso   1.00
H345   H     0.65821   0.73871   0.19649   0.00000  Uiso   1.00
H346   H     0.34158   0.75667   0.30433   0.00000  Uiso   1.00
C347   C     0.53240   0.54618   0.27061   0.00000  Uiso   1.00
C348   C     0.49823   0.95522   0.20840   0.00000  Uiso   1.00
C349   C     0.53663   0.59259   0.27159   0.00000  Uiso   1.00
C350   C     0.50267   0.90922   0.20884   0.00000  Uiso   1.00
H351   H     0.57264   0.61005   0.28800   0.00000  Uiso   1.00
H352   H     0.51521   0.89350   0.17873   0.00000  Uiso   1.00
C353   C     0.49492   0.61646   0.25014   0.00000  Uiso   1.00
C354   C     0.49268   0.88402   0.24849   0.00000  Uiso   1.00
C355   C     0.44835   0.59501   0.22835   0.00000  Uiso   1.00
C356   C     0.47578   0.90449   0.28702   0.00000  Uiso   1.00
H357   H     0.41665   0.61476   0.21188   0.00000  Uiso   1.00
H358   H     0.46708   0.88466   0.31729   0.00000  Uiso   1.00
C359   C     0.44260   0.54844   0.22818   0.00000  Uiso   1.00
C360   C     0.47038   0.95048   0.28698   0.00000  Uiso   1.00
C361   C     0.48524   0.52414   0.24930   0.00000  Uiso   1.00
C362   C     0.48256   0.97581   0.24760   0.00000  Uiso   1.00
C363   C     0.45633   0.73202   0.04775   0.00000  Uiso   1.00
C364   C     0.51293   0.78799   0.44937   0.00000  Uiso   1.00
H365   H     0.42138   0.71840   0.02584   0.00000  Uiso   1.00
H366   H     0.52482   0.81856   0.46905   0.00000  Uiso   1.00
C367   C     0.45921   0.72884   0.09721   0.00000  Uiso   1.00
C368   C     0.51821   0.78687   0.40100   0.00000  Uiso   1.00
N369   N     0.50000   0.74999   0.12623   0.00000  Uiso   1.00
N370   N     0.50000   0.75001   0.37376   0.00000  Uiso   1.00
C371   C     0.54252   0.76966   0.10560   0.00000  Uiso   1.00
C372   C     0.48153   0.71154   0.39710   0.00000  Uiso   1.00
C373   C     0.54573   0.76251   0.05671   0.00000  Uiso   1.00
C374   C     0.48905   0.70893   0.44757   0.00000  Uiso   1.00
C375   C     0.49974   0.74909   0.02659   0.00000  Uiso   1.00
C376   C     0.49832   0.74888   0.47357   0.00000  Uiso   1.00
Cl377  Cl    0.58741   0.51667   0.29498   0.00000  Uiso   1.00
Cl378  Cl    0.51560   0.98644   0.15945   0.00000  Uiso   1.00
S379   S     0.38268   0.52220   0.20040   0.00000  Uiso   1.00
O380   O     0.38972   0.50917   0.15128   0.00000  Uiso   1.00
O381   O     0.36739   0.98076   0.22717   0.00000  Uiso   1.00
O382   O     0.33430   0.55825   0.19758   0.00000  Uiso   1.00
H383   H     0.63560   0.54102   0.18261   0.00000  Uiso   1.00
S384   S     0.45107   0.97521   0.33746   0.00000  Uiso   1.00
O385   O     0.49917   0.99578   0.36711   0.00000  Uiso   1.00
O386   O     0.41332   0.51123   0.32322   0.00000  Uiso   1.00
O387   O     0.42188   0.93572   0.36940   0.00000  Uiso   1.00
H388   H     0.41324   0.95194   0.39703   0.00000  Uiso   1.00
Cl389  Cl    0.41061   0.69481   0.12030   0.00000  Uiso   1.00
Cl390  Cl    0.55273   0.83314   0.37867   0.00000  Uiso   1.00
S391   S     0.58972   0.81238   0.13278   0.00000  Uiso   1.00
O392   O     0.64471   0.79774   0.13335   0.00000  Uiso   1.00
O393   O     0.58386   0.85334   0.10159   0.00000  Uiso   1.00
O394   O     0.58631   0.82949   0.18742   0.00000  Uiso   1.00
H395   H     0.61408   0.85409   0.19362   0.00000  Uiso   1.00
S396   S     0.44316   0.66485   0.36795   0.00000  Uiso   1.00
O397   O     0.47929   0.62944   0.35772   0.00000  Uiso   1.00
O398   O     0.40630   0.64455   0.40003   0.00000  Uiso   1.00
O399   O     0.40485   0.67757   0.31812   0.00000  Uiso   1.00
H400   H     0.39013   0.64824   0.30476   0.00000  Uiso   1.00
S401   S     0.60829   0.76349   0.03504   0.00000  Uiso   1.00
O402   O     0.62952   0.81129   0.03053   0.00000  Uiso   1.00
O403   O     0.64593   0.73843   0.06916   0.00000  Uiso   1.00
O404   O     0.60543   0.73822   0.48254   0.00000  Uiso   1.00
H405   H     0.64182   0.74151   0.47456   0.00000  Uiso   1.00
S406   S     0.49514   0.65618   0.47870   0.00000  Uiso   1.00
O407   O     0.44287   0.64044   0.49314   0.00000  Uiso   1.00
O408   O     0.51335   0.62083   0.44883   0.00000  Uiso   1.00
O409   O     0.53962   0.66194   0.02745   0.00000  Uiso   1.00
H410   H     0.53453   0.63406   0.04601   0.00000  Uiso   1.00
O411   O     0.83334   0.68454   0.28974   0.00000  Uiso   1.00
O412   O     0.83333   0.81547   0.21026   0.00000  Uiso   1.00
O413   O     0.83334   0.68453   0.21026   0.00000  Uiso   1.00
O414   O     0.83333   0.81547   0.28974   0.00000  Uiso   1.00
C415   C     0.83299   0.66419   0.25022   0.00000  Uiso   1.00
C416   C     0.83191   0.83612   0.24957   0.00000  Uiso   1.00
O417   O     0.75725   0.75000   0.28044   0.00000  Uiso   1.00
O418   O     0.90942   0.75000   0.21955   0.00000  Uiso   1.00
O419   O     0.75725   0.75000   0.20096   0.00000  Uiso   1.00
O420   O     0.90942   0.75001   0.29903   0.00000  Uiso   1.00
C421   C     0.73383   0.74901   0.23781   0.00000  Uiso   1.00
C422   C     0.93278   0.74986   0.26226   0.00000  Uiso   1.00
Zn423  Zn    0.83333   0.75001   0.30307   0.00000  Uiso   1.00
Zn424  Zn    0.83333   0.75000   0.19693   0.00000  Uiso   1.00
C425   C     0.67874   0.74571   0.23158   0.00000  Uiso   1.00
C426   C     0.98781   0.75076   0.26891   0.00000  Uiso   1.00
H427   H     0.99155   0.73871   0.19649   0.00000  Uiso   1.00
H428   H     0.67491   0.75667   0.30433   0.00000  Uiso   1.00
C429   C     0.86573   0.54618   0.27061   0.00000  Uiso   1.00
C430   C     0.83156   0.95522   0.20840   0.00000  Uiso   1.00
C431   C     0.86997   0.59259   0.27159   0.00000  Uiso   1.00
C432   C     0.83600   0.90922   0.20884   0.00000  Uiso   1.00
H433   H     0.90597   0.61005   0.28800   0.00000  Uiso   1.00
H434   H     0.84855   0.89350   0.17873   0.00000  Uiso   1.00
C435   C     0.82826   0.61646   0.25014   0.00000  Uiso   1.00
C436   C     0.82601   0.88402   0.24849   0.00000  Uiso   1.00
C437   C     0.78169   0.59501   0.22835   0.00000  Uiso   1.00
C438   C     0.80912   0.90449   0.28702   0.00000  Uiso   1.00
H439   H     0.74998   0.61476   0.21188   0.00000  Uiso   1.00
H440   H     0.80041   0.88466   0.31729   0.00000  Uiso   1.00
C441   C     0.77593   0.54844   0.22818   0.00000  Uiso   1.00
C442   C     0.80371   0.95048   0.28698   0.00000  Uiso   1.00
C443   C     0.81858   0.52414   0.24930   0.00000  Uiso   1.00
C444   C     0.81590   0.97581   0.24760   0.00000  Uiso   1.00
C445   C     0.78966   0.73202   0.04775   0.00000  Uiso   1.00
C446   C     0.84626   0.78799   0.44937   0.00000  Uiso   1.00
H447   H     0.75471   0.71840   0.02584   0.00000  Uiso   1.00
H448   H     0.85816   0.81856   0.46905   0.00000  Uiso   1.00
C449   C     0.79254   0.72884   0.09721   0.00000  Uiso   1.00
C450   C     0.85155   0.78687   0.40100   0.00000  Uiso   1.00
N451   N     0.83333   0.74999   0.12623   0.00000  Uiso   1.00
N452   N     0.83333   0.75001   0.37376   0.00000  Uiso   1.00
C453   C     0.87585   0.76966   0.10560   0.00000  Uiso   1.00
C454   C     0.81487   0.71154   0.39710   0.00000  Uiso   1.00
C455   C     0.87907   0.76251   0.05671   0.00000  Uiso   1.00
C456   C     0.82238   0.70893   0.44757   0.00000  Uiso   1.00
C457   C     0.83308   0.74909   0.02659   0.00000  Uiso   1.00
C458   C     0.83165   0.74888   0.47357   0.00000  Uiso   1.00
Cl459  Cl    0.92074   0.51667   0.29498   0.00000  Uiso   1.00
Cl460  Cl    0.84893   0.98644   0.15945   0.00000  Uiso   1.00
S461   S     0.71601   0.52220   0.20040   0.00000  Uiso   1.00
O462   O     0.72305   0.50917   0.15128   0.00000  Uiso   1.00
O463   O     0.70073   0.98076   0.22717   0.00000  Uiso   1.00
O464   O     0.66763   0.55825   0.19758   0.00000  Uiso   1.00
H465   H     0.96893   0.54102   0.18261   0.00000  Uiso   1.00
S466   S     0.78440   0.97521   0.33746   0.00000  Uiso   1.00
O467   O     0.83251   0.99578   0.36711   0.00000  Uiso   1.00
O468   O     0.74665   0.51123   0.32322   0.00000  Uiso   1.00
O469   O     0.75522   0.93572   0.36940   0.00000  Uiso   1.00
H470   H     0.74658   0.95194   0.39703   0.00000  Uiso   1.00
Cl471  Cl    0.74395   0.69481   0.12030   0.00000  Uiso   1.00
Cl472  Cl    0.88607   0.83314   0.37867   0.00000  Uiso   1.00
S473   S     0.92305   0.81238   0.13278   0.00000  Uiso   1.00
O474   O     0.97804   0.79774   0.13335   0.00000  Uiso   1.00
O475   O     0.91719   0.85334   0.10159   0.00000  Uiso   1.00
O476   O     0.91965   0.82949   0.18742   0.00000  Uiso   1.00
H477   H     0.94741   0.85409   0.19362   0.00000  Uiso   1.00
S478   S     0.77650   0.66485   0.36795   0.00000  Uiso   1.00
O479   O     0.81263   0.62944   0.35772   0.00000  Uiso   1.00
O480   O     0.73963   0.64455   0.40003   0.00000  Uiso   1.00
O481   O     0.73819   0.67757   0.31812   0.00000  Uiso   1.00
H482   H     0.72347   0.64824   0.30476   0.00000  Uiso   1.00
S483   S     0.94163   0.76349   0.03504   0.00000  Uiso   1.00
O484   O     0.96285   0.81129   0.03053   0.00000  Uiso   1.00
O485   O     0.97926   0.73843   0.06916   0.00000  Uiso   1.00
O486   O     0.93876   0.73822   0.48254   0.00000  Uiso   1.00
H487   H     0.97516   0.74151   0.47456   0.00000  Uiso   1.00
S488   S     0.82847   0.65618   0.47870   0.00000  Uiso   1.00
O489   O     0.77621   0.64044   0.49314   0.00000  Uiso   1.00
O490   O     0.84668   0.62083   0.44883   0.00000  Uiso   1.00
O491   O     0.87295   0.66194   0.02745   0.00000  Uiso   1.00
H492   H     0.86787   0.63406   0.04601   0.00000  Uiso   1.00
O493   O     0.16667   0.18454   0.78974   0.00000  Uiso   1.00
O494   O     0.16666   0.31547   0.71026   0.00000  Uiso   1.00
O495   O     0.16667   0.18453   0.71026   0.00000  Uiso   1.00
O496   O     0.16666   0.31547   0.78974   0.00000  Uiso   1.00
C497   C     0.16632   0.16419   0.75022   0.00000  Uiso   1.00
C498   C     0.16525   0.33612   0.74957   0.00000  Uiso   1.00
O499   O     0.09058   0.25000   0.78044   0.00000  Uiso   1.00
O500   O     0.24275   0.25000   0.71955   0.00000  Uiso   1.00
O501   O     0.09058   0.25000   0.70096   0.00000  Uiso   1.00
O502   O     0.24275   0.25001   0.79903   0.00000  Uiso   1.00
C503   C     0.06717   0.24901   0.73781   0.00000  Uiso   1.00
C504   C     0.26611   0.24986   0.76226   0.00000  Uiso   1.00
Zn505  Zn    0.16667   0.25001   0.80307   0.00000  Uiso   1.00
Zn506  Zn    0.16667   0.25000   0.69693   0.00000  Uiso   1.00
C507   C     0.01207   0.24571   0.73158   0.00000  Uiso   1.00
C508   C     0.32114   0.25076   0.76891   0.00000  Uiso   1.00
H509   H     0.32488   0.23871   0.69649   0.00000  Uiso   1.00
H510   H     0.00824   0.25667   0.80433   0.00000  Uiso   1.00
C511   C     0.19907   0.04618   0.77061   0.00000  Uiso   1.00
C512   C     0.16490   0.45522   0.70840   0.00000  Uiso   1.00
C513   C     0.20330   0.09259   0.77159   0.00000  Uiso   1.00
C514   C     0.16934   0.40922   0.70884   0.00000  Uiso   1.00
H515   H     0.23931   0.11005   0.78800   0.00000  Uiso   1.00
H516   H     0.18188   0.39350   0.67873   0.00000  Uiso   1.00
C517   C     0.16159   0.11646   0.75014   0.00000  Uiso   1.00
C518   C     0.15934   0.38402   0.74849   0.00000  Uiso   1.00
C519   C     0.11502   0.09501   0.72835   0.00000  Uiso   1.00
C520   C     0.14245   0.40449   0.78702   0.00000  Uiso   1.00
H521   H     0.08331   0.11476   0.71188   0.00000  Uiso   1.00
H522   H     0.13375   0.38466   0.81729   0.00000  Uiso   1.00
C523   C     0.10927   0.04844   0.72818   0.00000  Uiso   1.00
C524   C     0.13704   0.45048   0.78698   0.00000  Uiso   1.00
C525   C     0.15191   0.02414   0.74930   0.00000  Uiso   1.00
C526   C     0.14923   0.47581   0.74760   0.00000  Uiso   1.00
C527   C     0.12299   0.23202   0.54775   0.00000  Uiso   1.00
C528   C     0.17959   0.28799   0.94937   0.00000  Uiso   1.00
H529   H     0.08805   0.21840   0.52584   0.00000  Uiso   1.00
H530   H     0.19149   0.31856   0.96905   0.00000  Uiso   1.00
C531   C     0.12588   0.22884   0.59721   0.00000  Uiso   1.00
C532   C     0.18488   0.28687   0.90100   0.00000  Uiso   1.00
N533   N     0.16667   0.24999   0.62623   0.00000  Uiso   1.00
N534   N     0.16667   0.25001   0.87376   0.00000  Uiso   1.00
C535   C     0.20919   0.26966   0.60560   0.00000  Uiso   1.00
C536   C     0.14820   0.21154   0.89710   0.00000  Uiso   1.00
C537   C     0.21240   0.26251   0.55671   0.00000  Uiso   1.00
C538   C     0.15572   0.20893   0.94757   0.00000  Uiso   1.00
C539   C     0.16641   0.24909   0.52659   0.00000  Uiso   1.00
C540   C     0.16499   0.24888   0.97357   0.00000  Uiso   1.00
Cl541  Cl    0.25408   0.01667   0.79498   0.00000  Uiso   1.00
Cl542  Cl    0.18226   0.48644   0.65945   0.00000  Uiso   1.00
S543   S     0.04934   0.02220   0.70040   0.00000  Uiso   1.00
O544   O     0.05638   0.00917   0.65128   0.00000  Uiso   1.00
O545   O     0.03406   0.48076   0.72717   0.00000  Uiso   1.00
O546   O     0.00097   0.05825   0.69758   0.00000  Uiso   1.00
H547   H     0.30226   0.04102   0.68261   0.00000  Uiso   1.00
S548   S     0.11773   0.47521   0.83746   0.00000  Uiso   1.00
O549   O     0.16584   0.49578   0.86711   0.00000  Uiso   1.00
O550   O     0.07999   0.01123   0.82322   0.00000  Uiso   1.00
O551   O     0.08855   0.43572   0.86940   0.00000  Uiso   1.00
H552   H     0.07991   0.45194   0.89703   0.00000  Uiso   1.00
Cl553  Cl    0.07728   0.19481   0.62030   0.00000  Uiso   1.00
Cl554  Cl    0.21940   0.33314   0.87867   0.00000  Uiso   1.00
S555   S     0.25638   0.31238   0.63278   0.00000  Uiso   1.00
O556   O     0.31137   0.29774   0.63335   0.00000  Uiso   1.00
O557   O     0.25053   0.35334   0.60159   0.00000  Uiso   1.00
O558   O     0.25298   0.32949   0.68742   0.00000  Uiso   1.00
H559   H     0.28075   0.35409   0.69362   0.00000  Uiso   1.00
S560   S     0.10983   0.16485   0.86795   0.00000  Uiso   1.00
O561   O     0.14596   0.12944   0.85772   0.00000  Uiso   1.00
O562   O     0.07297   0.14455   0.90003   0.00000  Uiso   1.00
O563   O     0.07152   0.17757   0.81812   0.00000  Uiso   1.00
H564   H     0.05680   0.14824   0.80476   0.00000  Uiso   1.00
S565   S     0.27496   0.26349   0.53504   0.00000  Uiso   1.00
O566   O     0.29619   0.31129   0.53053   0.00000  Uiso   1.00
O567   O     0.31260   0.23843   0.56916   0.00000  Uiso   1.00
O568   O     0.27209   0.23822   0.98254   0.00000  Uiso   1.00
H569   H     0.30849   0.24151   0.97456   0.00000  Uiso   1.00
S570   S     0.16181   0.15618   0.97870   0.00000  Uiso   1.00
O571   O     0.10954   0.14044   0.99314   0.00000  Uiso   1.00
O572   O     0.18002   0.12083   0.94883   0.00000  Uiso   1.00
O573   O     0.20628   0.16194   0.52745   0.00000  Uiso   1.00
H574   H     0.20120   0.13406   0.54601   0.00000  Uiso   1.00
O575   O     0.50000   0.18454   0.78974   0.00000  Uiso   1.00
O576   O     0.50000   0.31547   0.71026   0.00000  Uiso   1.00
O577   O     0.50000   0.18453   0.71026   0.00000  Uiso   1.00
O578   O     0.50000   0.31547   0.78974   0.00000  Uiso   1.00
C579   C     0.49965   0.16419   0.75022   0.00000  Uiso   1.00
C580   C     0.49858   0.33612   0.74957   0.00000  Uiso   1.00
O581   O     0.42392   0.25000   0.78044   0.00000  Uiso   1.00
O582   O     0.57608   0.25000   0.71955   0.00000  Uiso   1.00
O583   O     0.42392   0.25000   0.70096   0.00000  Uiso   1.00
O584   O     0.57608   0.25001   0.79903   0.00000  Uiso   1.00
C585   C     0.40050   0.24901   0.73781   0.00000  Uiso   1.00
C586   C     0.59944   0.24986   0.76226   0.00000  Uiso   1.00
Zn587  Zn    0.50000   0.25001   0.80307   0.00000  Uiso   1.00
Zn588  Zn    0.50000   0.25000   0.69693   0.00000  Uiso   1.00
C589   C     0.34540   0.24571   0.73158   0.00000  Uiso   1.00
C590   C     0.65447   0.25076   0.76891   0.00000  Uiso   1.00
H591   H     0.65821   0.23871   0.69649   0.00000  Uiso   1.00
H592   H     0.34158   0.25667   0.80433   0.00000  Uiso   1.00
C593   C     0.53240   0.04618   0.77061   0.00000  Uiso   1.00
C594   C     0.49823   0.45522   0.70840   0.00000  Uiso   1.00
C595   C     0.53663   0.09259   0.77159   0.00000  Uiso   1.00
C596   C     0.50267   0.40922   0.70884   0.00000  Uiso   1.00
H597   H     0.57264   0.11005   0.78800   0.00000  Uiso   1.00
H598   H     0.51521   0.39350   0.67873   0.00000  Uiso   1.00
C599   C     0.49492   0.11646   0.75014   0.00000  Uiso   1.00
C600   C     0.49268   0.38402   0.74849   0.00000  Uiso   1.00
C601   C     0.44835   0.09501   0.72835   0.00000  Uiso   1.00
C602   C     0.47578   0.40449   0.78702   0.00000  Uiso   1.00
H603   H     0.41665   0.11476   0.71188   0.00000  Uiso   1.00
H604   H     0.46708   0.38466   0.81729   0.00000  Uiso   1.00
C605   C     0.44260   0.04844   0.72818   0.00000  Uiso   1.00
C606   C     0.47038   0.45048   0.78698   0.00000  Uiso   1.00
C607   C     0.48524   0.02414   0.74930   0.00000  Uiso   1.00
C608   C     0.48256   0.47581   0.74760   0.00000  Uiso   1.00
C609   C     0.45633   0.23202   0.54775   0.00000  Uiso   1.00
C610   C     0.51293   0.28799   0.94937   0.00000  Uiso   1.00
H611   H     0.42138   0.21840   0.52584   0.00000  Uiso   1.00
H612   H     0.52482   0.31856   0.96905   0.00000  Uiso   1.00
C613   C     0.45921   0.22884   0.59721   0.00000  Uiso   1.00
C614   C     0.51821   0.28687   0.90100   0.00000  Uiso   1.00
N615   N     0.50000   0.24999   0.62623   0.00000  Uiso   1.00
N616   N     0.50000   0.25001   0.87376   0.00000  Uiso   1.00
C617   C     0.54252   0.26966   0.60560   0.00000  Uiso   1.00
C618   C     0.48153   0.21154   0.89710   0.00000  Uiso   1.00
C619   C     0.54573   0.26251   0.55671   0.00000  Uiso   1.00
C620   C     0.48905   0.20893   0.94757   0.00000  Uiso   1.00
C621   C     0.49974   0.24909   0.52659   0.00000  Uiso   1.00
C622   C     0.49832   0.24888   0.97357   0.00000  Uiso   1.00
Cl623  Cl    0.58741   0.01667   0.79498   0.00000  Uiso   1.00
Cl624  Cl    0.51560   0.48644   0.65945   0.00000  Uiso   1.00
S625   S     0.38268   0.02220   0.70040   0.00000  Uiso   1.00
O626   O     0.38972   0.00917   0.65128   0.00000  Uiso   1.00
O627   O     0.36739   0.48076   0.72717   0.00000  Uiso   1.00
O628   O     0.33430   0.05825   0.69758   0.00000  Uiso   1.00
H629   H     0.63560   0.04102   0.68261   0.00000  Uiso   1.00
S630   S     0.45107   0.47521   0.83746   0.00000  Uiso   1.00
O631   O     0.49917   0.49578   0.86711   0.00000  Uiso   1.00
O632   O     0.41332   0.01123   0.82322   0.00000  Uiso   1.00
O633   O     0.42188   0.43572   0.86940   0.00000  Uiso   1.00
H634   H     0.41324   0.45194   0.89703   0.00000  Uiso   1.00
Cl635  Cl    0.41061   0.19481   0.62030   0.00000  Uiso   1.00
Cl636  Cl    0.55273   0.33314   0.87867   0.00000  Uiso   1.00
S637   S     0.58972   0.31238   0.63278   0.00000  Uiso   1.00
O638   O     0.64471   0.29774   0.63335   0.00000  Uiso   1.00
O639   O     0.58386   0.35334   0.60159   0.00000  Uiso   1.00
O640   O     0.58631   0.32949   0.68742   0.00000  Uiso   1.00
H641   H     0.61408   0.35409   0.69362   0.00000  Uiso   1.00
S642   S     0.44316   0.16485   0.86795   0.00000  Uiso   1.00
O643   O     0.47929   0.12944   0.85772   0.00000  Uiso   1.00
O644   O     0.40630   0.14455   0.90003   0.00000  Uiso   1.00
O645   O     0.40485   0.17757   0.81812   0.00000  Uiso   1.00
H646   H     0.39013   0.14824   0.80476   0.00000  Uiso   1.00
S647   S     0.60829   0.26349   0.53504   0.00000  Uiso   1.00
O648   O     0.62952   0.31129   0.53053   0.00000  Uiso   1.00
O649   O     0.64593   0.23843   0.56916   0.00000  Uiso   1.00
O650   O     0.60543   0.23822   0.98254   0.00000  Uiso   1.00
H651   H     0.64182   0.24151   0.97456   0.00000  Uiso   1.00
S652   S     0.49514   0.15618   0.97870   0.00000  Uiso   1.00
O653   O     0.44287   0.14044   0.99314   0.00000  Uiso   1.00
O654   O     0.51335   0.12083   0.94883   0.00000  Uiso   1.00
O655   O     0.53962   0.16194   0.52745   0.00000  Uiso   1.00
H656   H     0.53453   0.13406   0.54601   0.00000  Uiso   1.00
O657   O     0.83334   0.18454   0.78974   0.00000  Uiso   1.00
O658   O     0.83333   0.31547   0.71026   0.00000  Uiso   1.00
O659   O     0.83334   0.18453   0.71026   0.00000  Uiso   1.00
O660   O     0.83333   0.31547   0.78974   0.00000  Uiso   1.00
C661   C     0.83299   0.16419   0.75022   0.00000  Uiso   1.00
C662   C     0.83191   0.33612   0.74957   0.00000  Uiso   1.00
O663   O     0.75725   0.25000   0.78044   0.00000  Uiso   1.00
O664   O     0.90942   0.25000   0.71955   0.00000  Uiso   1.00
O665   O     0.75725   0.25000   0.70096   0.00000  Uiso   1.00
O666   O     0.90942   0.25001   0.79903   0.00000  Uiso   1.00
C667   C     0.73383   0.24901   0.73781   0.00000  Uiso   1.00
C668   C     0.93278   0.24986   0.76226   0.00000  Uiso   1.00
Zn669  Zn    0.83333   0.25001   0.80307   0.00000  Uiso   1.00
Zn670  Zn    0.83333   0.25000   0.69693   0.00000  Uiso   1.00
C671   C     0.67874   0.24571   0.73158   0.00000  Uiso   1.00
C672   C     0.98781   0.25076   0.76891   0.00000  Uiso   1.00
H673   H     0.99155   0.23871   0.69649   0.00000  Uiso   1.00
H674   H     0.67491   0.25667   0.80433   0.00000  Uiso   1.00
C675   C     0.86573   0.04618   0.77061   0.00000  Uiso   1.00
C676   C     0.83156   0.45522   0.70840   0.00000  Uiso   1.00
C677   C     0.86997   0.09259   0.77159   0.00000  Uiso   1.00
C678   C     0.83600   0.40922   0.70884   0.00000  Uiso   1.00
H679   H     0.90597   0.11005   0.78800   0.00000  Uiso   1.00
H680   H     0.84855   0.39350   0.67873   0.00000  Uiso   1.00
C681   C     0.82826   0.11646   0.75014   0.00000  Uiso   1.00
C682   C     0.82601   0.38402   0.74849   0.00000  Uiso   1.00
C683   C     0.78169   0.09501   0.72835   0.00000  Uiso   1.00
C684   C     0.80912   0.40449   0.78702   0.00000  Uiso   1.00
H685   H     0.74998   0.11476   0.71188   0.00000  Uiso   1.00
H686   H     0.80041   0.38466   0.81729   0.00000  Uiso   1.00
C687   C     0.77593   0.04844   0.72818   0.00000  Uiso   1.00
C688   C     0.80371   0.45048   0.78698   0.00000  Uiso   1.00
C689   C     0.81858   0.02414   0.74930   0.00000  Uiso   1.00
C690   C     0.81590   0.47581   0.74760   0.00000  Uiso   1.00
C691   C     0.78966   0.23202   0.54775   0.00000  Uiso   1.00
C692   C     0.84626   0.28799   0.94937   0.00000  Uiso   1.00
H693   H     0.75471   0.21840   0.52584   0.00000  Uiso   1.00
H694   H     0.85816   0.31856   0.96905   0.00000  Uiso   1.00
C695   C     0.79254   0.22884   0.59721   0.00000  Uiso   1.00
C696   C     0.85155   0.28687   0.90100   0.00000  Uiso   1.00
N697   N     0.83333   0.24999   0.62623   0.00000  Uiso   1.00
N698   N     0.83333   0.25001   0.87376   0.00000  Uiso   1.00
C699   C     0.87585   0.26966   0.60560   0.00000  Uiso   1.00
C700   C     0.81487   0.21154   0.89710   0.00000  Uiso   1.00
C701   C     0.87907   0.26251   0.55671   0.00000  Uiso   1.00
C702   C     0.82238   0.20893   0.94757   0.00000  Uiso   1.00
C703   C     0.83308   0.24909   0.52659   0.00000  Uiso   1.00
C704   C     0.83165   0.24888   0.97357   0.00000  Uiso   1.00
Cl705  Cl    0.92074   0.01667   0.79498   0.00000  Uiso   1.00
Cl706  Cl    0.84893   0.48644   0.65945   0.00000  Uiso   1.00
S707   S     0.71601   0.02220   0.70040   0.00000  Uiso   1.00
O708   O     0.72305   0.00917   0.65128   0.00000  Uiso   1.00
O709   O     0.70073   0.48076   0.72717   0.00000  Uiso   1.00
O710   O     0.66763   0.05825   0.69758   0.00000  Uiso   1.00
H711   H     0.96893   0.04102   0.68261   0.00000  Uiso   1.00
S712   S     0.78440   0.47521   0.83746   0.00000  Uiso   1.00
O713   O     0.83251   0.49578   0.86711   0.00000  Uiso   1.00
O714   O     0.74665   0.01123   0.82322   0.00000  Uiso   1.00
O715   O     0.75522   0.43572   0.86940   0.00000  Uiso   1.00
H716   H     0.74658   0.45194   0.89703   0.00000  Uiso   1.00
Cl717  Cl    0.74395   0.19481   0.62030   0.00000  Uiso   1.00
Cl718  Cl    0.88607   0.33314   0.87867   0.00000  Uiso   1.00
S719   S     0.92305   0.31238   0.63278   0.00000  Uiso   1.00
O720   O     0.97804   0.29774   0.63335   0.00000  Uiso   1.00
O721   O     0.91719   0.35334   0.60159   0.00000  Uiso   1.00
O722   O     0.91965   0.32949   0.68742   0.00000  Uiso   1.00
H723   H     0.94741   0.35409   0.69362   0.00000  Uiso   1.00
S724   S     0.77650   0.16485   0.86795   0.00000  Uiso   1.00
O725   O     0.81263   0.12944   0.85772   0.00000  Uiso   1.00
O726   O     0.73963   0.14455   0.90003   0.00000  Uiso   1.00
O727   O     0.73819   0.17757   0.81812   0.00000  Uiso   1.00
H728   H     0.72347   0.14824   0.80476   0.00000  Uiso   1.00
S729   S     0.94163   0.26349   0.53504   0.00000  Uiso   1.00
O730   O     0.96285   0.31129   0.53053   0.00000  Uiso   1.00
O731   O     0.97926   0.23843   0.56916   0.00000  Uiso   1.00
O732   O     0.93876   0.23822   0.98254   0.00000  Uiso   1.00
H733   H     0.97516   0.24151   0.97456   0.00000  Uiso   1.00
S734   S     0.82847   0.15618   0.97870   0.00000  Uiso   1.00
O735   O     0.77621   0.14044   0.99314   0.00000  Uiso   1.00
O736   O     0.84668   0.12083   0.94883   0.00000  Uiso   1.00
O737   O     0.87295   0.16194   0.52745   0.00000  Uiso   1.00
H738   H     0.86787   0.13406   0.54601   0.00000  Uiso   1.00
O739   O     0.16667   0.68454   0.78974   0.00000  Uiso   1.00
O740   O     0.16666   0.81547   0.71026   0.00000  Uiso   1.00
O741   O     0.16667   0.68453   0.71026   0.00000  Uiso   1.00
O742   O     0.16666   0.81547   0.78974   0.00000  Uiso   1.00
C743   C     0.16632   0.66419   0.75022   0.00000  Uiso   1.00
C744   C     0.16525   0.83612   0.74957   0.00000  Uiso   1.00
O745   O     0.09058   0.75000   0.78044   0.00000  Uiso   1.00
O746   O     0.24275   0.75000   0.71955   0.00000  Uiso   1.00
O747   O     0.09058   0.75000   0.70096   0.00000  Uiso   1.00
O748   O     0.24275   0.75001   0.79903   0.00000  Uiso   1.00
C749   C     0.06717   0.74901   0.73781   0.00000  Uiso   1.00
C750   C     0.26611   0.74986   0.76226   0.00000  Uiso   1.00
Zn751  Zn    0.16667   0.75001   0.80307   0.00000  Uiso   1.00
Zn752  Zn    0.16667   0.75000   0.69693   0.00000  Uiso   1.00
C753   C     0.01207   0.74571   0.73158   0.00000  Uiso   1.00
C754   C     0.32114   0.75076   0.76891   0.00000  Uiso   1.00
H755   H     0.32488   0.73871   0.69649   0.00000  Uiso   1.00
H756   H     0.00824   0.75667   0.80433   0.00000  Uiso   1.00
C757   C     0.19907   0.54618   0.77061   0.00000  Uiso   1.00
C758   C     0.16490   0.95522   0.70840   0.00000  Uiso   1.00
C759   C     0.20330   0.59259   0.77159   0.00000  Uiso   1.00
C760   C     0.16934   0.90922   0.70884   0.00000  Uiso   1.00
H761   H     0.23931   0.61005   0.78800   0.00000  Uiso   1.00
H762   H     0.18188   0.89350   0.67873   0.00000  Uiso   1.00
C763   C     0.16159   0.61646   0.75014   0.00000  Uiso   1.00
C764   C     0.15934   0.88402   0.74849   0.00000  Uiso   1.00
C765   C     0.11502   0.59501   0.72835   0.00000  Uiso   1.00
C766   C     0.14245   0.90449   0.78702   0.00000  Uiso   1.00
H767   H     0.08331   0.61476   0.71188   0.00000  Uiso   1.00
H768   H     0.13375   0.88466   0.81729   0.00000  Uiso   1.00
C769   C     0.10927   0.54844   0.72818   0.00000  Uiso   1.00
C770   C     0.13704   0.95048   0.78698   0.00000  Uiso   1.00
C771   C     0.15191   0.52414   0.74930   0.00000  Uiso   1.00
C772   C     0.14923   0.97581   0.74760   0.00000  Uiso   1.00
C773   C     0.12299   0.73202   0.54775   0.00000  Uiso   1.00
C774   C     0.17959   0.78799   0.94937   0.00000  Uiso   1.00
H775   H     0.08805   0.71840   0.52584   0.00000  Uiso   1.00
H776   H     0.19149   0.81856   0.96905   0.00000  Uiso   1.00
C777   C     0.12588   0.72884   0.59721   0.00000  Uiso   1.00
C778   C     0.18488   0.78687   0.90100   0.00000  Uiso   1.00
N779   N     0.16667   0.74999   0.62623   0.00000  Uiso   1.00
N780   N     0.16667   0.75001   0.87376   0.00000  Uiso   1.00
C781   C     0.20919   0.76966   0.60560   0.00000  Uiso   1.00
C782   C     0.14820   0.71154   0.89710   0.00000  Uiso   1.00
C783   C     0.21240   0.76251   0.55671   0.00000  Uiso   1.00
C784   C     0.15572   0.70893   0.94757   0.00000  Uiso   1.00
C785   C     0.16641   0.74909   0.52659   0.00000  Uiso   1.00
C786   C     0.16499   0.74888   0.97357   0.00000  Uiso   1.00
Cl787  Cl    0.25408   0.51667   0.79498   0.00000  Uiso   1.00
Cl788  Cl    0.18226   0.98644   0.65945   0.00000  Uiso   1.00
S789   S     0.04934   0.52220   0.70040   0.00000  Uiso   1.00
O790   O     0.05638   0.50917   0.65128   0.00000  Uiso   1.00
O791   O     0.03406   0.98076   0.72717   0.00000  Uiso   1.00
O792   O     0.00097   0.55825   0.69758   0.00000  Uiso   1.00
H793   H     0.30226   0.54102   0.68261   0.00000  Uiso   1.00
S794   S     0.11773   0.97521   0.83746   0.00000  Uiso   1.00
O795   O     0.16584   0.99578   0.86711   0.00000  Uiso   1.00
O796   O     0.07999   0.51123   0.82322   0.00000  Uiso   1.00
O797   O     0.08855   0.93572   0.86940   0.00000  Uiso   1.00
H798   H     0.07991   0.95194   0.89703   0.00000  Uiso   1.00
Cl799  Cl    0.07728   0.69481   0.62030   0.00000  Uiso   1.00
Cl800  Cl    0.21940   0.83314   0.87867   0.00000  Uiso   1.00
S801   S     0.25638   0.81238   0.63278   0.00000  Uiso   1.00
O802   O     0.31137   0.79774   0.63335   0.00000  Uiso   1.00
O803   O     0.25053   0.85334   0.60159   0.00000  Uiso   1.00
O804   O     0.25298   0.82949   0.68742   0.00000  Uiso   1.00
H805   H     0.28075   0.85409   0.69362   0.00000  Uiso   1.00
S806   S     0.10983   0.66485   0.86795   0.00000  Uiso   1.00
O807   O     0.14596   0.62944   0.85772   0.00000  Uiso   1.00
O808   O     0.07297   0.64455   0.90003   0.00000  Uiso   1.00
O809   O     0.07152   0.67757   0.81812   0.00000  Uiso   1.00
H810   H     0.05680   0.64824   0.80476   0.00000  Uiso   1.00
S811   S     0.27496   0.76349   0.53504   0.00000  Uiso   1.00
O812   O     0.29619   0.81129   0.53053   0.00000  Uiso   1.00
O813   O     0.31260   0.73843   0.56916   0.00000  Uiso   1.00
O814   O     0.27209   0.73822   0.98254   0.00000  Uiso   1.00
H815   H     0.30849   0.74151   0.97456   0.00000  Uiso   1.00
S816   S     0.16181   0.65618   0.97870   0.00000  Uiso   1.00
O817   O     0.10954   0.64044   0.99314   0.00000  Uiso   1.00
O818   O     0.18002   0.62083   0.94883   0.00000  Uiso   1.00
O819   O     0.20628   0.66194   0.52745   0.00000  Uiso   1.00
H820   H     0.20120   0.63406   0.54601   0.00000  Uiso   1.00
O821   O     0.50000   0.68454   0.78974   0.00000  Uiso   1.00
O822   O     0.50000   0.81547   0.71026   0.00000  Uiso   1.00
O823   O     0.50000   0.68453   0.71026   0.00000  Uiso   1.00
O824   O     0.50000   0.81547   0.78974   0.00000  Uiso   1.00
C825   C     0.49965   0.66419   0.75022   0.00000  Uiso   1.00
C826   C     0.49858   0.83612   0.74957   0.00000  Uiso   1.00
O827   O     0.42392   0.75000   0.78044   0.00000  Uiso   1.00
O828   O     0.57608   0.75000   0.71955   0.00000  Uiso   1.00
O829   O     0.42392   0.75000   0.70096   0.00000  Uiso   1.00
O830   O     0.57608   0.75001   0.79903   0.00000  Uiso   1.00
C831   C     0.40050   0.74901   0.73781   0.00000  Uiso   1.00
C832   C     0.59944   0.74986   0.76226   0.00000  Uiso   1.00
Zn833  Zn    0.50000   0.75001   0.80307   0.00000  Uiso   1.00
Zn834  Zn    0.50000   0.75000   0.69693   0.00000  Uiso   1.00
C835   C     0.34540   0.74571   0.73158   0.00000  Uiso   1.00
C836   C     0.65447   0.75076   0.76891   0.00000  Uiso   1.00
H837   H     0.65821   0.73871   0.69649   0.00000  Uiso   1.00
H838   H     0.34158   0.75667   0.80433   0.00000  Uiso   1.00
C839   C     0.53240   0.54618   0.77061   0.00000  Uiso   1.00
C840   C     0.49823   0.95522   0.70840   0.00000  Uiso   1.00
C841   C     0.53663   0.59259   0.77159   0.00000  Uiso   1.00
C842   C     0.50267   0.90922   0.70884   0.00000  Uiso   1.00
H843   H     0.57264   0.61005   0.78800   0.00000  Uiso   1.00
H844   H     0.51521   0.89350   0.67873   0.00000  Uiso   1.00
C845   C     0.49492   0.61646   0.75014   0.00000  Uiso   1.00
C846   C     0.49268   0.88402   0.74849   0.00000  Uiso   1.00
C847   C     0.44835   0.59501   0.72835   0.00000  Uiso   1.00
C848   C     0.47578   0.90449   0.78702   0.00000  Uiso   1.00
H849   H     0.41665   0.61476   0.71188   0.00000  Uiso   1.00
H850   H     0.46708   0.88466   0.81729   0.00000  Uiso   1.00
C851   C     0.44260   0.54844   0.72818   0.00000  Uiso   1.00
C852   C     0.47038   0.95048   0.78698   0.00000  Uiso   1.00
C853   C     0.48524   0.52414   0.74930   0.00000  Uiso   1.00
C854   C     0.48256   0.97581   0.74760   0.00000  Uiso   1.00
C855   C     0.45633   0.73202   0.54775   0.00000  Uiso   1.00
C856   C     0.51293   0.78799   0.94937   0.00000  Uiso   1.00
H857   H     0.42138   0.71840   0.52584   0.00000  Uiso   1.00
H858   H     0.52482   0.81856   0.96905   0.00000  Uiso   1.00
C859   C     0.45921   0.72884   0.59721   0.00000  Uiso   1.00
C860   C     0.51821   0.78687   0.90100   0.00000  Uiso   1.00
N861   N     0.50000   0.74999   0.62623   0.00000  Uiso   1.00
N862   N     0.50000   0.75001   0.87376   0.00000  Uiso   1.00
C863   C     0.54252   0.76966   0.60560   0.00000  Uiso   1.00
C864   C     0.48153   0.71154   0.89710   0.00000  Uiso   1.00
C865   C     0.54573   0.76251   0.55671   0.00000  Uiso   1.00
C866   C     0.48905   0.70893   0.94757   0.00000  Uiso   1.00
C867   C     0.49974   0.74909   0.52659   0.00000  Uiso   1.00
C868   C     0.49832   0.74888   0.97357   0.00000  Uiso   1.00
Cl869  Cl    0.58741   0.51667   0.79498   0.00000  Uiso   1.00
Cl870  Cl    0.51560   0.98644   0.65945   0.00000  Uiso   1.00
S871   S     0.38268   0.52220   0.70040   0.00000  Uiso   1.00
O872   O     0.38972   0.50917   0.65128   0.00000  Uiso   1.00
O873   O     0.36739   0.98076   0.72717   0.00000  Uiso   1.00
O874   O     0.33430   0.55825   0.69758   0.00000  Uiso   1.00
H875   H     0.63560   0.54102   0.68261   0.00000  Uiso   1.00
S876   S     0.45107   0.97521   0.83746   0.00000  Uiso   1.00
O877   O     0.49917   0.99578   0.86711   0.00000  Uiso   1.00
O878   O     0.41332   0.51123   0.82322   0.00000  Uiso   1.00
O879   O     0.42188   0.93572   0.86940   0.00000  Uiso   1.00
H880   H     0.41324   0.95194   0.89703   0.00000  Uiso   1.00
Cl881  Cl    0.41061   0.69481   0.62030   0.00000  Uiso   1.00
Cl882  Cl    0.55273   0.83314   0.87867   0.00000  Uiso   1.00
S883   S     0.58972   0.81238   0.63278   0.00000  Uiso   1.00
O884   O     0.64471   0.79774   0.63335   0.00000  Uiso   1.00
O885   O     0.58386   0.85334   0.60159   0.00000  Uiso   1.00
O886   O     0.58631   0.82949   0.68742   0.00000  Uiso   1.00
H887   H     0.61408   0.85409   0.69362   0.00000  Uiso   1.00
S888   S     0.44316   0.66485   0.86795   0.00000  Uiso   1.00
O889   O     0.47929   0.62944   0.85772   0.00000  Uiso   1.00
O890   O     0.40630   0.64455   0.90003   0.00000  Uiso   1.00
O891   O     0.40485   0.67757   0.81812   0.00000  Uiso   1.00
H892   H     0.39013   0.64824   0.80476   0.00000  Uiso   1.00
S893   S     0.60829   0.76349   0.53504   0.00000  Uiso   1.00
O894   O     0.62952   0.81129   0.53053   0.00000  Uiso   1.00
O895   O     0.64593   0.73843   0.56916   0.00000  Uiso   1.00
O896   O     0.60543   0.73822   0.98254   0.00000  Uiso   1.00
H897   H     0.64182   0.74151   0.97456   0.00000  Uiso   1.00
S898   S     0.49514   0.65618   0.97870   0.00000  Uiso   1.00
O899   O     0.44287   0.64044   0.99314   0.00000  Uiso   1.00
O900   O     0.51335   0.62083   0.94883   0.00000  Uiso   1.00
O901   O     0.53962   0.66194   0.52745   0.00000  Uiso   1.00
H902   H     0.53453   0.63406   0.54601   0.00000  Uiso   1.00
O903   O     0.83334   0.68454   0.78974   0.00000  Uiso   1.00
O904   O     0.83333   0.81547   0.71026   0.00000  Uiso   1.00
O905   O     0.83334   0.68453   0.71026   0.00000  Uiso   1.00
O906   O     0.83333   0.81547   0.78974   0.00000  Uiso   1.00
C907   C     0.83299   0.66419   0.75022   0.00000  Uiso   1.00
C908   C     0.83191   0.83612   0.74957   0.00000  Uiso   1.00
O909   O     0.75725   0.75000   0.78044   0.00000  Uiso   1.00
O910   O     0.90942   0.75000   0.71955   0.00000  Uiso   1.00
O911   O     0.75725   0.75000   0.70096   0.00000  Uiso   1.00
O912   O     0.90942   0.75001   0.79903   0.00000  Uiso   1.00
C913   C     0.73383   0.74901   0.73781   0.00000  Uiso   1.00
C914   C     0.93278   0.74986   0.76226   0.00000  Uiso   1.00
Zn915  Zn    0.83333   0.75001   0.80307   0.00000  Uiso   1.00
Zn916  Zn    0.83333   0.75000   0.69693   0.00000  Uiso   1.00
C917   C     0.67874   0.74571   0.73158   0.00000  Uiso   1.00
C918   C     0.98781   0.75076   0.76891   0.00000  Uiso   1.00
H919   H     0.99155   0.73871   0.69649   0.00000  Uiso   1.00
H920   H     0.67491   0.75667   0.80433   0.00000  Uiso   1.00
C921   C     0.86573   0.54618   0.77061   0.00000  Uiso   1.00
C922   C     0.83156   0.95522   0.70840   0.00000  Uiso   1.00
C923   C     0.86997   0.59259   0.77159   0.00000  Uiso   1.00
C924   C     0.83600   0.90922   0.70884   0.00000  Uiso   1.00
H925   H     0.90597   0.61005   0.78800   0.00000  Uiso   1.00
H926   H     0.84855   0.89350   0.67873   0.00000  Uiso   1.00
C927   C     0.82826   0.61646   0.75014   0.00000  Uiso   1.00
C928   C     0.82601   0.88402   0.74849   0.00000  Uiso   1.00
C929   C     0.78169   0.59501   0.72835   0.00000  Uiso   1.00
C930   C     0.80912   0.90449   0.78702   0.00000  Uiso   1.00
H931   H     0.74998   0.61476   0.71188   0.00000  Uiso   1.00
H932   H     0.80041   0.88466   0.81729   0.00000  Uiso   1.00
C933   C     0.77593   0.54844   0.72818   0.00000  Uiso   1.00
C934   C     0.80371   0.95048   0.78698   0.00000  Uiso   1.00
C935   C     0.81858   0.52414   0.74930   0.00000  Uiso   1.00
C936   C     0.81590   0.97581   0.74760   0.00000  Uiso   1.00
C937   C     0.78966   0.73202   0.54775   0.00000  Uiso   1.00
C938   C     0.84626   0.78799   0.94937   0.00000  Uiso   1.00
H939   H     0.75471   0.71840   0.52584   0.00000  Uiso   1.00
H940   H     0.85816   0.81856   0.96905   0.00000  Uiso   1.00
C941   C     0.79254   0.72884   0.59721   0.00000  Uiso   1.00
C942   C     0.85155   0.78687   0.90100   0.00000  Uiso   1.00
N943   N     0.83333   0.74999   0.62623   0.00000  Uiso   1.00
N944   N     0.83333   0.75001   0.87376   0.00000  Uiso   1.00
C945   C     0.87585   0.76966   0.60560   0.00000  Uiso   1.00
C946   C     0.81487   0.71154   0.89710   0.00000  Uiso   1.00
C947   C     0.87907   0.76251   0.55671   0.00000  Uiso   1.00
C948   C     0.82238   0.70893   0.94757   0.00000  Uiso   1.00
C949   C     0.83308   0.74909   0.52659   0.00000  Uiso   1.00
C950   C     0.83165   0.74888   0.97357   0.00000  Uiso   1.00
Cl951  Cl    0.92074   0.51667   0.79498   0.00000  Uiso   1.00
Cl952  Cl    0.84893   0.98644   0.65945   0.00000  Uiso   1.00
S953   S     0.71601   0.52220   0.70040   0.00000  Uiso   1.00
O954   O     0.72305   0.50917   0.65128   0.00000  Uiso   1.00
O955   O     0.70073   0.98076   0.72717   0.00000  Uiso   1.00
O956   O     0.66763   0.55825   0.69758   0.00000  Uiso   1.00
H957   H     0.96893   0.54102   0.68261   0.00000  Uiso   1.00
S958   S     0.78440   0.97521   0.83746   0.00000  Uiso   1.00
O959   O     0.83251   0.99578   0.86711   0.00000  Uiso   1.00
O960   O     0.74665   0.51123   0.82322   0.00000  Uiso   1.00
O961   O     0.75522   0.93572   0.86940   0.00000  Uiso   1.00
H962   H     0.74658   0.95194   0.89703   0.00000  Uiso   1.00
Cl963  Cl    0.74395   0.69481   0.62030   0.00000  Uiso   1.00
Cl964  Cl    0.88607   0.83314   0.87867   0.00000  Uiso   1.00
S965   S     0.92305   0.81238   0.63278   0.00000  Uiso   1.00
O966   O     0.97804   0.79774   0.63335   0.00000  Uiso   1.00
O967   O     0.91719   0.85334   0.60159   0.00000  Uiso   1.00
O968   O     0.91965   0.82949   0.68742   0.00000  Uiso   1.00
H969   H     0.94741   0.85409   0.69362   0.00000  Uiso   1.00
S970   S     0.77650   0.66485   0.86795   0.00000  Uiso   1.00
O971   O     0.81263   0.62944   0.85772   0.00000  Uiso   1.00
O972   O     0.73963   0.64455   0.90003   0.00000  Uiso   1.00
O973   O     0.73819   0.67757   0.81812   0.00000  Uiso   1.00
H974   H     0.72347   0.64824   0.80476   0.00000  Uiso   1.00
S975   S     0.94163   0.76349   0.53504   0.00000  Uiso   1.00
O976   O     0.96285   0.81129   0.53053   0.00000  Uiso   1.00
O977   O     0.97926   0.73843   0.56916   0.00000  Uiso   1.00
O978   O     0.93876   0.73822   0.98254   0.00000  Uiso   1.00
H979   H     0.97516   0.74151   0.97456   0.00000  Uiso   1.00
S980   S     0.82847   0.65618   0.97870   0.00000  Uiso   1.00
O981   O     0.77621   0.64044   0.99314   0.00000  Uiso   1.00
O982   O     0.84668   0.62083   0.94883   0.00000  Uiso   1.00
O983   O     0.87295   0.66194   0.52745   0.00000  Uiso   1.00
H984   H     0.86787   0.63406   0.54601   0.00000  Uiso   1.00
loop_
_geom_bond_atom_site_label_1
_geom_bond_atom_site_label_2
_geom_bond_distance
_geom_bond_site_symmetry_2
_ccdc_geom_bond_type
O1     C5      1.291   .     A
O1     Zn13    1.992   .     S
O2     C6      1.297   .     A
O2     Zn14    1.992   .     S
O3     Zn14    1.980   .     S
O3     C5      1.288   .     A
O4     Zn13    1.980   .     S
O4     C6      1.294   .     A
C5     C25     1.419   .     S
C6     C26     1.442   .     S
O7     C11     1.285   .     A
O7     Zn13    1.972   .     S
O8     C12     1.287   .     A
O8     Zn14    1.972   .     S
O9     Zn14    1.972   .     S
O9     C11     1.283   .     A
O10    C12     1.282   .     A
O10    Zn13    1.972   .     S
C11    C15     1.398   .     S
C12    C16     1.398   .     S
Zn13   N42     2.025   .     S
Zn14   N41     2.025   .     S
C15    C180    1.324   1_455 S
C15    H181    1.086   1_455 S
C16    C97     1.324   .     S
C16    H100    1.088   .     S
H17    C97     1.086   .     S
H18    C180    1.088   1_455 S
C19    C21     1.379   .     A
C19    C33     1.408   .     A
C19    Cl49    1.765   .     S
C20    Cl50    1.764   .     S
C20    C34     1.404   .     A
C20    C22     1.380   .     A
C21    H23     1.084   .     S
C21    C25     1.389   .     A
C22    H24     1.083   .     S
C22    C26     1.396   .     A
C25    C27     1.393   .     A
C26    C28     1.400   .     A
C27    H29     1.084   .     S
C27    C31     1.385   .     A
C28    C32     1.384   .     A
C28    H30     1.083   .     S
C31    C33     1.410   .     A
C31    S51     1.774   .     S
C32    C34     1.408   .     A
C32    S56     1.775   .     S
C33    C280    1.437   1_545 S
C34    C279    1.437   .     S
C35    C47     1.405   .     A
C35    C39     1.411   .     A
C35    H37     1.083   .     S
C36    C40     1.412   .     A
C36    H38     1.084   .     S
C36    C48     1.404   .     A
C39    N41     1.372   .     A
C39    Cl61    1.753   .     S
C40    Cl62    1.753   .     S
C40    N42     1.377   .     A
N41    C43     1.404   .     A
N42    C44     1.408   .     A
C43    S63     1.810   .     S
C43    C45     1.434   .     A
C44    C46     1.434   .     A
C44    S68     1.801   .     S
C45    S73     1.797   .     S
C45    C47     1.404   .     A
C46    C48     1.403   .     A
C46    S78     1.799   .     S
C47    C540    1.514   1_554 S
C48    C539    1.514   .     S
S51    O52     1.503   .     D
S51    O54     1.683   .     S
S51    O299    1.503   1_545 S
O53    S297    1.503   .     S
O54    H219    0.991   1_455 S
H55    O136    0.991   .     S
S56    O57     1.503   .     D
S56    O59     1.682   .     S
S56    O304    1.503   .     S
O58    S302    1.503   1_545 S
O59    H60     0.991   .     S
S63    O65     1.504   .     D
S63    O66     1.669   .     S
S63    O64     1.500   .     D
O66    H67     0.991   .     S
S68    O69     1.503   .     D
S68    O71     1.671   .     S
S68    O70     1.502   .     D
O71    H72     0.991   .     S
S73    O74     1.503   .     D
S73    O75     1.501   .     D
S73    O568    1.682   1_554 S
O76    H77     0.991   .     S
O76    S565    1.682   .     S
S78    O80     1.501   .     D
S78    O79     1.503   .     D
S78    O573    1.682   .     S
O81    H82     0.990   .     S
O81    S570    1.682   1_554 S
O83    C87     1.291   .     A
O83    Zn95    1.992   .     S
O84    C88     1.297   .     A
O84    Zn96    1.992   .     S
O85    Zn96    1.980   .     S
O85    C87     1.288   .     A
O86    Zn95    1.980   .     S
O86    C88     1.294   .     A
C87    C107    1.419   .     S
C88    C108    1.442   .     S
O89    C93     1.285   .     A
O89    Zn95    1.972   .     S
O90    C94     1.287   .     A
O90    Zn96    1.972   .     S
O91    Zn96    1.972   .     S
O91    C93     1.283   .     A
O92    C94     1.282   .     A
O92    Zn95    1.972   .     S
C93    C97     1.398   .     S
C94    C98     1.398   .     S
Zn95   N124    2.025   .     S
Zn96   N123    2.025   .     S
C98    C179    1.324   .     S
C98    H182    1.088   .     S
H99    C179    1.086   .     S
C101   C103    1.379   .     A
C101   C115    1.408   .     A
C101   Cl131   1.765   .     S
C102   Cl132   1.764   .     S
C102   C116    1.404   .     A
C102   C104    1.380   .     A
C103   H105    1.084   .     S
C103   C107    1.389   .     A
C104   H106    1.083   .     S
C104   C108    1.396   .     A
C107   C109    1.393   .     A
C108   C110    1.400   .     A
C109   H111    1.084   .     S
C109   C113    1.385   .     A
C110   C114    1.384   .     A
C110   H112    1.083   .     S
C113   C115    1.410   .     A
C113   S133    1.774   .     S
C114   C116    1.408   .     A
C114   S138    1.775   .     S
C115   C362    1.437   1_545 S
C116   C361    1.437   .     S
C117   C129    1.405   .     A
C117   C121    1.411   .     A
C117   H119    1.083   .     S
C118   C122    1.412   .     A
C118   H120    1.084   .     S
C118   C130    1.404   .     A
C121   N123    1.372   .     A
C121   Cl143   1.753   .     S
C122   Cl144   1.753   .     S
C122   N124    1.377   .     A
N123   C125    1.404   .     A
N124   C126    1.408   .     A
C125   S145    1.810   .     S
C125   C127    1.434   .     A
C126   C128    1.434   .     A
C126   S150    1.801   .     S
C127   S155    1.797   .     S
C127   C129    1.404   .     A
C128   C130    1.403   .     A
C128   S160    1.799   .     S
C129   C622    1.514   1_554 S
C130   C621    1.514   .     S
S133   O134    1.503   .     D
S133   O136    1.683   .     S
S133   O381    1.503   1_545 S
O135   S379    1.503   .     S
H137   O218    0.991   .     S
S138   O139    1.503   .     D
S138   O141    1.682   .     S
S138   O386    1.503   .     S
O140   S384    1.503   1_545 S
O141   H142    0.991   .     S
S145   O147    1.504   .     D
S145   O148    1.669   .     S
S145   O146    1.500   .     D
O148   H149    0.991   .     S
S150   O151    1.503   .     D
S150   O153    1.671   .     S
S150   O152    1.502   .     D
O153   H154    0.991   .     S
S155   O156    1.503   .     D
S155   O157    1.501   .     D
S155   O650    1.682   1_554 S
O158   H159    0.991   .     S
O158   S647    1.682   .     S
S160   O162    1.501   .     D
S160   O161    1.503   .     D
S160   O655    1.682   .     S
O163   H164    0.990   .     S
O163   S652    1.682   1_554 S
O165   C169    1.291   .     A
O165   Zn177   1.992   .     S
O166   C170    1.297   .     A
O166   Zn178   1.992   .     S
O167   Zn178   1.980   .     S
O167   C169    1.288   .     A
O168   Zn177   1.980   .     S
O168   C170    1.294   .     A
C169   C189    1.419   .     S
C170   C190    1.442   .     S
O171   C175    1.285   .     A
O171   Zn177   1.972   .     S
O172   C176    1.287   .     A
O172   Zn178   1.972   .     S
O173   Zn178   1.972   .     S
O173   C175    1.283   .     A
O174   C176    1.282   .     A
O174   Zn177   1.972   .     S
C175   C179    1.398   .     S
C176   C180    1.398   .     S
Zn177  N206    2.025   .     S
Zn178  N205    2.025   .     S
C180   C15     1.324   1_655 S
C180   H18     1.088   1_655 S
H181   C15     1.086   1_655 S
C183   C185    1.379   .     A
C183   C197    1.408   .     A
C183   Cl213   1.765   .     S
C184   Cl214   1.764   .     S
C184   C198    1.404   .     A
C184   C186    1.380   .     A
C185   H187    1.084   .     S
C185   C189    1.389   .     A
C186   H188    1.083   .     S
C186   C190    1.396   .     A
C189   C191    1.393   .     A
C190   C192    1.400   .     A
C191   H193    1.084   .     S
C191   C195    1.385   .     A
C192   C196    1.384   .     A
C192   H194    1.083   .     S
C195   C197    1.410   .     A
C195   S215    1.774   .     S
C196   C198    1.408   .     A
C196   S220    1.775   .     S
C197   C444    1.437   1_545 S
C198   C443    1.437   .     S
C199   C211    1.405   .     A
C199   C203    1.411   .     A
C199   H201    1.083   .     S
C200   C204    1.412   .     A
C200   H202    1.084   .     S
C200   C212    1.404   .     A
C203   N205    1.372   .     A
C203   Cl225   1.753   .     S
C204   Cl226   1.753   .     S
C204   N206    1.377   .     A
N205   C207    1.404   .     A
N206   C208    1.408   .     A
C207   S227    1.810   .     S
C207   C209    1.434   .     A
C208   C210    1.434   .     A
C208   S232    1.801   .     S
C209   S237    1.797   .     S
C209   C211    1.404   .     A
C210   C212    1.403   .     A
C210   S242    1.799   .     S
C211   C704    1.514   1_554 S
C212   C703    1.514   .     S
S215   O216    1.503   .     D
S215   O218    1.683   .     S
S215   O463    1.503   1_545 S
O217   S461    1.503   .     S
H219   O54     0.991   1_655 S
S220   O221    1.503   .     D
S220   O223    1.682   .     S
S220   O468    1.503   .     S
O222   S466    1.503   1_545 S
O223   H224    0.991   .     S
S227   O229    1.504   .     D
S227   O230    1.669   .     S
S227   O228    1.500   .     D
O230   H231    0.991   .     S
S232   O233    1.503   .     D
S232   O235    1.671   .     S
S232   O234    1.502   .     D
O235   H236    0.991   .     S
S237   O238    1.503   .     D
S237   O239    1.501   .     D
S237   O732    1.682   1_554 S
O240   H241    0.991   .     S
O240   S729    1.682   .     S
S242   O244    1.501   .     D
S242   O243    1.503   .     D
S242   O737    1.682   .     S
O245   H246    0.990   .     S
O245   S734    1.682   1_554 S
O247   C251    1.291   .     A
O247   Zn259   1.992   .     S
O248   C252    1.297   .     A
O248   Zn260   1.992   .     S
O249   Zn260   1.980   .     S
O249   C251    1.288   .     A
O250   Zn259   1.980   .     S
O250   C252    1.294   .     A
C251   C271    1.419   .     S
C252   C272    1.442   .     S
O253   C257    1.285   .     A
O253   Zn259   1.972   .     S
O254   C258    1.287   .     A
O254   Zn260   1.972   .     S
O255   Zn260   1.972   .     S
O255   C257    1.283   .     A
O256   C258    1.282   .     A
O256   Zn259   1.972   .     S
C257   C261    1.398   .     S
C258   C262    1.398   .     S
Zn259  N288    2.025   .     S
Zn260  N287    2.025   .     S
C261   C426    1.324   1_455 S
C261   H427    1.086   1_455 S
C262   C343    1.324   .     S
C262   H346    1.088   .     S
H263   C343    1.086   .     S
H264   C426    1.088   1_455 S
C265   C267    1.379   .     A
C265   C279    1.408   .     A
C265   Cl295   1.765   .     S
C266   Cl296   1.764   .     S
C266   C280    1.404   .     A
C266   C268    1.380   .     A
C267   H269    1.084   .     S
C267   C271    1.389   .     A
C268   H270    1.083   .     S
C268   C272    1.396   .     A
C271   C273    1.393   .     A
C272   C274    1.400   .     A
C273   H275    1.084   .     S
C273   C277    1.385   .     A
C274   C278    1.384   .     A
C274   H276    1.083   .     S
C277   C279    1.410   .     A
C277   S297    1.774   .     S
C278   C280    1.408   .     A
C278   S302    1.775   .     S
C280   C33     1.437   1_565 S
C281   C293    1.405   .     A
C281   C285    1.411   .     A
C281   H283    1.083   .     S
C282   C286    1.412   .     A
C282   H284    1.084   .     S
C282   C294    1.404   .     A
C285   N287    1.372   .     A
C285   Cl307   1.753   .     S
C286   Cl308   1.753   .     S
C286   N288    1.377   .     A
N287   C289    1.404   .     A
N288   C290    1.408   .     A
C289   S309    1.810   .     S
C289   C291    1.434   .     A
C290   C292    1.434   .     A
C290   S314    1.801   .     S
C291   S319    1.797   .     S
C291   C293    1.404   .     A
C292   C294    1.403   .     A
C292   S324    1.799   .     S
C293   C786    1.514   1_554 S
C294   C785    1.514   .     S
S297   O298    1.503   .     D
S297   O300    1.683   .     S
O299   S51     1.503   1_565 S
O300   H465    0.991   1_455 S
H301   O382    0.991   .     S
S302   O303    1.503   .     D
S302   O305    1.682   .     S
S302   O58     1.503   1_565 S
O305   H306    0.991   .     S
S309   O311    1.504   .     D
S309   O312    1.669   .     S
S309   O310    1.500   .     D
O312   H313    0.991   .     S
S314   O315    1.503   .     D
S314   O317    1.671   .     S
S314   O316    1.502   .     D
O317   H318    0.991   .     S
S319   O320    1.503   .     D
S319   O321    1.501   .     D
S319   O814    1.682   1_554 S
O322   H323    0.991   .     S
O322   S811    1.682   .     S
S324   O326    1.501   .     D
S324   O325    1.503   .     D
S324   O819    1.682   .     S
O327   H328    0.990   .     S
O327   S816    1.682   1_554 S
O329   C333    1.291   .     A
O329   Zn341   1.992   .     S
O330   C334    1.297   .     A
O330   Zn342   1.992   .     S
O331   Zn342   1.980   .     S
O331   C333    1.288   .     A
O332   Zn341   1.980   .     S
O332   C334    1.294   .     A
C333   C353    1.419   .     S
C334   C354    1.442   .     S
O335   C339    1.285   .     A
O335   Zn341   1.972   .     S
O336   C340    1.287   .     A
O336   Zn342   1.972   .     S
O337   Zn342   1.972   .     S
O337   C339    1.283   .     A
O338   C340    1.282   .     A
O338   Zn341   1.972   .     S
C339   C343    1.398   .     S
C340   C344    1.398   .     S
Zn341  N370    2.025   .     S
Zn342  N369    2.025   .     S
C344   C425    1.324   .     S
C344   H428    1.088   .     S
H345   C425    1.086   .     S
C347   C349    1.379   .     A
C347   C361    1.408   .     A
C347   Cl377   1.765   .     S
C348   Cl378   1.764   .     S
C348   C362    1.404   .     A
C348   C350    1.380   .     A
C349   H351    1.084   .     S
C349   C353    1.389   .     A
C350   H352    1.083   .     S
C350   C354    1.396   .     A
C353   C355    1.393   .     A
C354   C356    1.400   .     A
C355   H357    1.084   .     S
C355   C359    1.385   .     A
C356   C360    1.384   .     A
C356   H358    1.083   .     S
C359   C361    1.410   .     A
C359   S379    1.774   .     S
C360   C362    1.408   .     A
C360   S384    1.775   .     S
C362   C115    1.437   1_565 S
C363   C375    1.405   .     A
C363   C367    1.411   .     A
C363   H365    1.083   .     S
C364   C368    1.412   .     A
C364   H366    1.084   .     S
C364   C376    1.404   .     A
C367   N369    1.372   .     A
C367   Cl389   1.753   .     S
C368   Cl390   1.753   .     S
C368   N370    1.377   .     A
N369   C371    1.404   .     A
N370   C372    1.408   .     A
C371   S391    1.810   .     S
C371   C373    1.434   .     A
C372   C374    1.434   .     A
C372   S396    1.801   .     S
C373   S401    1.797   .     S
C373   C375    1.404   .     A
C374   C376    1.403   .     A
C374   S406    1.799   .     S
C375   C868    1.514   1_554 S
C376   C867    1.514   .     S
S379   O380    1.503   .     D
S379   O382    1.683   .     S
O381   S133    1.503   1_565 S
H383   O464    0.991   .     S
S384   O385    1.503   .     D
S384   O387    1.682   .     S
S384   O140    1.503   1_565 S
O387   H388    0.991   .     S
S391   O393    1.504   .     D
S391   O394    1.669   .     S
S391   O392    1.500   .     D
O394   H395    0.991   .     S
S396   O397    1.503   .     D
S396   O399    1.671   .     S
S396   O398    1.502   .     D
O399   H400    0.991   .     S
S401   O402    1.503   .     D
S401   O403    1.501   .     D
S401   O896    1.682   1_554 S
O404   H405    0.991   .     S
O404   S893    1.682   .     S
S406   O408    1.501   .     D
S406   O407    1.503   .     D
S406   O901    1.682   .     S
O409   H410    0.990   .     S
O409   S898    1.682   1_554 S
O411   C415    1.291   .     A
O411   Zn423   1.992   .     S
O412   C416    1.297   .     A
O412   Zn424   1.992   .     S
O413   Zn424   1.980   .     S
O413   C415    1.288   .     A
O414   Zn423   1.980   .     S
O414   C416    1.294   .     A
C415   C435    1.419   .     S
C416   C436    1.442   .     S
O417   C421    1.285   .     A
O417   Zn423   1.972   .     S
O418   C422    1.287   .     A
O418   Zn424   1.972   .     S
O419   Zn424   1.972   .     S
O419   C421    1.283   .     A
O420   C422    1.282   .     A
O420   Zn423   1.972   .     S
C421   C425    1.398   .     S
C422   C426    1.398   .     S
Zn423  N452    2.025   .     S
Zn424  N451    2.025   .     S
C426   C261    1.324   1_655 S
C426   H264    1.088   1_655 S
H427   C261    1.086   1_655 S
C429   C431    1.379   .     A
C429   C443    1.408   .     A
C429   Cl459   1.765   .     S
C430   Cl460   1.764   .     S
C430   C444    1.404   .     A
C430   C432    1.380   .     A
C431   H433    1.084   .     S
C431   C435    1.389   .     A
C432   H434    1.083   .     S
C432   C436    1.396   .     A
C435   C437    1.393   .     A
C436   C438    1.400   .     A
C437   H439    1.084   .     S
C437   C441    1.385   .     A
C438   C442    1.384   .     A
C438   H440    1.083   .     S
C441   C443    1.410   .     A
C441   S461    1.774   .     S
C442   C444    1.408   .     A
C442   S466    1.775   .     S
C444   C197    1.437   1_565 S
C445   C457    1.405   .     A
C445   C449    1.411   .     A
C445   H447    1.083   .     S
C446   C450    1.412   .     A
C446   H448    1.084   .     S
C446   C458    1.404   .     A
C449   N451    1.372   .     A
C449   Cl471   1.753   .     S
C450   Cl472   1.753   .     S
C450   N452    1.377   .     A
N451   C453    1.404   .     A
N452   C454    1.408   .     A
C453   S473    1.810   .     S
C453   C455    1.434   .     A
C454   C456    1.434   .     A
C454   S478    1.801   .     S
C455   S483    1.797   .     S
C455   C457    1.404   .     A
C456   C458    1.403   .     A
C456   S488    1.799   .     S
C457   C950    1.514   1_554 S
C458   C949    1.514   .     S
S461   O462    1.503   .     D
S461   O464    1.683   .     S
O463   S215    1.503   1_565 S
H465   O300    0.991   1_655 S
S466   O467    1.503   .     D
S466   O469    1.682   .     S
S466   O222    1.503   1_565 S
O469   H470    0.991   .     S
S473   O475    1.504   .     D
S473   O476    1.669   .     S
S473   O474    1.500   .     D
O476   H477    0.991   .     S
S478   O479    1.503   .     D
S478   O481    1.671   .     S
S478   O480    1.502   .     D
O481   H482    0.991   .     S
S483   O484    1.503   .     D
S483   O485    1.501   .     D
S483   O978    1.682   1_554 S
O486   H487    0.991   .     S
O486   S975    1.682   .     S
S488   O490    1.501   .     D
S488   O489    1.503   .     D
S488   O983    1.682   .     S
O491   H492    0.990   .     S
O491   S980    1.682   1_554 S
O493   C497    1.291   .     A
O493   Zn505   1.992   .     S
O494   C498    1.297   .     A
O494   Zn506   1.992   .     S
O495   Zn506   1.980   .     S
O495   C497    1.288   .     A
O496   Zn505   1.980   .     S
O496   C498    1.294   .     A
C497   C517    1.419   .     S
C498   C518    1.442   .     S
O499   C503    1.285   .     A
O499   Zn505   1.972   .     S
O500   C504    1.287   .     A
O500   Zn506   1.972   .     S
O501   Zn506   1.972   .     S
O501   C503    1.283   .     A
O502   C504    1.282   .     A
O502   Zn505   1.972   .     S
C503   C507    1.398   .     S
C504   C508    1.398   .     S
Zn505  N534    2.025   .     S
Zn506  N533    2.025   .     S
C507   C672    1.324   1_455 S
C507   H673    1.086   1_455 S
C508   C589    1.324   .     S
C508   H592    1.088   .     S
H509   C589    1.086   .     S
H510   C672    1.088   1_455 S
C511   C513    1.379   .     A
C511   C525    1.408   .     A
C511   Cl541   1.765   .     S
C512   Cl542   1.764   .     S
C512   C526    1.404   .     A
C512   C514    1.380   .     A
C513   H515    1.084   .     S
C513   C517    1.389   .     A
C514   H516    1.083   .     S
C514   C518    1.396   .     A
C517   C519    1.393   .     A
C518   C520    1.400   .     A
C519   H521    1.084   .     S
C519   C523    1.385   .     A
C520   C524    1.384   .     A
C520   H522    1.083   .     S
C523   C525    1.410   .     A
C523   S543    1.774   .     S
C524   C526    1.408   .     A
C524   S548    1.775   .     S
C525   C772    1.437   1_545 S
C526   C771    1.437   .     S
C527   C539    1.405   .     A
C527   C531    1.411   .     A
C527   H529    1.083   .     S
C528   C532    1.412   .     A
C528   H530    1.084   .     S
C528   C540    1.404   .     A
C531   N533    1.372   .     A
C531   Cl553   1.753   .     S
C532   Cl554   1.753   .     S
C532   N534    1.377   .     A
N533   C535    1.404   .     A
N534   C536    1.408   .     A
C535   S555    1.810   .     S
C535   C537    1.434   .     A
C536   C538    1.434   .     A
C536   S560    1.801   .     S
C537   S565    1.797   .     S
C537   C539    1.404   .     A
C538   C540    1.403   .     A
C538   S570    1.799   .     S
C540   C47     1.514   1_556 S
S543   O544    1.503   .     D
S543   O546    1.683   .     S
S543   O791    1.503   1_545 S
O545   S789    1.503   .     S
O546   H711    0.991   1_455 S
H547   O628    0.991   .     S
S548   O549    1.503   .     D
S548   O551    1.682   .     S
S548   O796    1.503   .     S
O550   S794    1.503   1_545 S
O551   H552    0.991   .     S
S555   O557    1.504   .     D
S555   O558    1.669   .     S
S555   O556    1.500   .     D
O558   H559    0.991   .     S
S560   O561    1.503   .     D
S560   O563    1.671   .     S
S560   O562    1.502   .     D
O563   H564    0.991   .     S
S565   O566    1.503   .     D
S565   O567    1.501   .     D
O568   H569    0.991   .     S
O568   S73     1.682   1_556 S
S570   O572    1.501   .     D
S570   O571    1.503   .     D
S570   O81     1.682   1_556 S
O573   H574    0.990   .     S
O575   C579    1.291   .     A
O575   Zn587   1.992   .     S
O576   C580    1.297   .     A
O576   Zn588   1.992   .     S
O577   Zn588   1.980   .     S
O577   C579    1.288   .     A
O578   Zn587   1.980   .     S
O578   C580    1.294   .     A
C579   C599    1.419   .     S
C580   C600    1.442   .     S
O581   C585    1.285   .     A
O581   Zn587   1.972   .     S
O582   C586    1.287   .     A
O582   Zn588   1.972   .     S
O583   Zn588   1.972   .     S
O583   C585    1.283   .     A
O584   C586    1.282   .     A
O584   Zn587   1.972   .     S
C585   C589    1.398   .     S
C586   C590    1.398   .     S
Zn587  N616    2.025   .     S
Zn588  N615    2.025   .     S
C590   C671    1.324   .     S
C590   H674    1.088   .     S
H591   C671    1.086   .     S
C593   C595    1.379   .     A
C593   C607    1.408   .     A
C593   Cl623   1.765   .     S
C594   Cl624   1.764   .     S
C594   C608    1.404   .     A
C594   C596    1.380   .     A
C595   H597    1.084   .     S
C595   C599    1.389   .     A
C596   H598    1.083   .     S
C596   C600    1.396   .     A
C599   C601    1.393   .     A
C600   C602    1.400   .     A
C601   H603    1.084   .     S
C601   C605    1.385   .     A
C602   C606    1.384   .     A
C602   H604    1.083   .     S
C605   C607    1.410   .     A
C605   S625    1.774   .     S
C606   C608    1.408   .     A
C606   S630    1.775   .     S
C607   C854    1.437   1_545 S
C608   C853    1.437   .     S
C609   C621    1.405   .     A
C609   C613    1.411   .     A
C609   H611    1.083   .     S
C610   C614    1.412   .     A
C610   H612    1.084   .     S
C610   C622    1.404   .     A
C613   N615    1.372   .     A
C613   Cl635   1.753   .     S
C614   Cl636   1.753   .     S
C614   N616    1.377   .     A
N615   C617    1.404   .     A
N616   C618    1.408   .     A
C617   S637    1.810   .     S
C617   C619    1.434   .     A
C618   C620    1.434   .     A
C618   S642    1.801   .     S
C619   S647    1.797   .     S
C619   C621    1.404   .     A
C620   C622    1.403   .     A
C620   S652    1.799   .     S
C622   C129    1.514   1_556 S
S625   O626    1.503   .     D
S625   O628    1.683   .     S
S625   O873    1.503   1_545 S
O627   S871    1.503   .     S
H629   O710    0.991   .     S
S630   O631    1.503   .     D
S630   O633    1.682   .     S
S630   O878    1.503   .     S
O632   S876    1.503   1_545 S
O633   H634    0.991   .     S
S637   O639    1.504   .     D
S637   O640    1.669   .     S
S637   O638    1.500   .     D
O640   H641    0.991   .     S
S642   O643    1.503   .     D
S642   O645    1.671   .     S
S642   O644    1.502   .     D
O645   H646    0.991   .     S
S647   O648    1.503   .     D
S647   O649    1.501   .     D
O650   H651    0.991   .     S
O650   S155    1.682   1_556 S
S652   O654    1.501   .     D
S652   O653    1.503   .     D
S652   O163    1.682   1_556 S
O655   H656    0.990   .     S
O657   C661    1.291   .     A
O657   Zn669   1.992   .     S
O658   C662    1.297   .     A
O658   Zn670   1.992   .     S
O659   Zn670   1.980   .     S
O659   C661    1.288   .     A
O660   Zn669   1.980   .     S
O660   C662    1.294   .     A
C661   C681    1.419   .     S
C662   C682    1.442   .     S
O663   C667    1.285   .     A
O663   Zn669   1.972   .     S
O664   C668    1.287   .     A
O664   Zn670   1.972   .     S
O665   Zn670   1.972   .     S
O665   C667    1.283   .     A
O666   C668    1.282   .     A
O666   Zn669   1.972   .     S
C667   C671    1.398   .     S
C668   C672    1.398   .     S
Zn669  N698    2.025   .     S
Zn670  N697    2.025   .     S
C672   C507    1.324   1_655 S
C672   H510    1.088   1_655 S
H673   C507    1.086   1_655 S
C675   C677    1.379   .     A
C675   C689    1.408   .     A
C675   Cl705   1.765   .     S
C676   Cl706   1.764   .     S
C676   C690    1.404   .     A
C676   C678    1.380   .     A
C677   H679    1.084   .     S
C677   C681    1.389   .     A
C678   H680    1.083   .     S
C678   C682    1.396   .     A
C681   C683    1.393   .     A
C682   C684    1.400   .     A
C683   H685    1.084   .     S
C683   C687    1.385   .     A
C684   C688    1.384   .     A
C684   H686    1.083   .     S
C687   C689    1.410   .     A
C687   S707    1.774   .     S
C688   C690    1.408   .     A
C688   S712    1.775   .     S
C689   C936    1.437   1_545 S
C690   C935    1.437   .     S
C691   C703    1.405   .     A
C691   C695    1.411   .     A
C691   H693    1.083   .     S
C692   C696    1.412   .     A
C692   H694    1.084   .     S
C692   C704    1.404   .     A
C695   N697    1.372   .     A
C695   Cl717   1.753   .     S
C696   Cl718   1.753   .     S
C696   N698    1.377   .     A
N697   C699    1.404   .     A
N698   C700    1.408   .     A
C699   S719    1.810   .     S
C699   C701    1.434   .     A
C700   C702    1.434   .     A
C700   S724    1.801   .     S
C701   S729    1.797   .     S
C701   C703    1.404   .     A
C702   C704    1.403   .     A
C702   S734    1.799   .     S
C704   C211    1.514   1_556 S
S707   O708    1.503   .     D
S707   O710    1.683   .     S
S707   O955    1.503   1_545 S
O709   S953    1.503   .     S
H711   O546    0.991   1_655 S
S712   O713    1.503   .     D
S712   O715    1.682   .     S
S712   O960    1.503   .     S
O714   S958    1.503   1_545 S
O715   H716    0.991   .     S
S719   O721    1.504   .     D
S719   O722    1.669   .     S
S719   O720    1.500   .     D
O722   H723    0.991   .     S
S724   O725    1.503   .     D
S724   O727    1.671   .     S
S724   O726    1.502   .     D
O727   H728    0.991   .     S
S729   O730    1.503   .     D
S729   O731    1.501   .     D
O732   H733    0.991   .     S
O732   S237    1.682   1_556 S
S734   O736    1.501   .     D
S734   O735    1.503   .     D
S734   O245    1.682   1_556 S
O737   H738    0.990   .     S
O739   C743    1.291   .     A
O739   Zn751   1.992   .     S
O740   C744    1.297   .     A
O740   Zn752   1.992   .     S
O741   Zn752   1.980   .     S
O741   C743    1.288   .     A
O742   Zn751   1.980   .     S
O742   C744    1.294   .     A
C743   C763    1.419   .     S
C744   C764    1.442   .     S
O745   C749    1.285   .     A
O745   Zn751   1.972   .     S
O746   C750    1.287   .     A
O746   Zn752   1.972   .     S
O747   Zn752   1.972   .     S
O747   C749    1.283   .     A
O748   C750    1.282   .     A
O748   Zn751   1.972   .     S
C749   C753    1.398   .     S
C750   C754    1.398   .     S
Zn751  N780    2.025   .     S
Zn752  N779    2.025   .     S
C753   C918    1.324   1_455 S
C753   H919    1.086   1_455 S
C754   C835    1.324   .     S
C754   H838    1.088   .     S
H755   C835    1.086   .     S
H756   C918    1.088   1_455 S
C757   C759    1.379   .     A
C757   C771    1.408   .     A
C757   Cl787   1.765   .     S
C758   Cl788   1.764   .     S
C758   C772    1.404   .     A
C758   C760    1.380   .     A
C759   H761    1.084   .     S
C759   C763    1.389   .     A
C760   H762    1.083   .     S
C760   C764    1.396   .     A
C763   C765    1.393   .     A
C764   C766    1.400   .     A
C765   H767    1.084   .     S
C765   C769    1.385   .     A
C766   C770    1.384   .     A
C766   H768    1.083   .     S
C769   C771    1.410   .     A
C769   S789    1.774   .     S
C770   C772    1.408   .     A
C770   S794    1.775   .     S
C772   C525    1.437   1_565 S
C773   C785    1.405   .     A
C773   C777    1.411   .     A
C773   H775    1.083   .     S
C774   C778    1.412   .     A
C774   H776    1.084   .     S
C774   C786    1.404   .     A
C777   N779    1.372   .     A
C777   Cl799   1.753   .     S
C778   Cl800   1.753   .     S
C778   N780    1.377   .     A
N779   C781    1.404   .     A
N780   C782    1.408   .     A
C781   S801    1.810   .     S
C781   C783    1.434   .     A
C782   C784    1.434   .     A
C782   S806    1.801   .     S
C783   S811    1.797   .     S
C783   C785    1.404   .     A
C784   C786    1.403   .     A
C784   S816    1.799   .     S
C786   C293    1.514   1_556 S
S789   O790    1.503   .     D
S789   O792    1.683   .     S
O791   S543    1.503   1_565 S
O792   H957    0.991   1_455 S
H793   O874    0.991   .     S
S794   O795    1.503   .     D
S794   O797    1.682   .     S
S794   O550    1.503   1_565 S
O797   H798    0.991   .     S
S801   O803    1.504   .     D
S801   O804    1.669   .     S
S801   O802    1.500   .     D
O804   H805    0.991   .     S
S806   O807    1.503   .     D
S806   O809    1.671   .     S
S806   O808    1.502   .     D
O809   H810    0.991   .     S
S811   O812    1.503   .     D
S811   O813    1.501   .     D
O814   H815    0.991   .     S
O814   S319    1.682   1_556 S
S816   O818    1.501   .     D
S816   O817    1.503   .     D
S816   O327    1.682   1_556 S
O819   H820    0.990   .     S
O821   C825    1.291   .     A
O821   Zn833   1.992   .     S
O822   C826    1.297   .     A
O822   Zn834   1.992   .     S
O823   Zn834   1.980   .     S
O823   C825    1.288   .     A
O824   Zn833   1.980   .     S
O824   C826    1.294   .     A
C825   C845    1.419   .     S
C826   C846    1.442   .     S
O827   C831    1.285   .     A
O827   Zn833   1.972   .     S
O828   C832    1.287   .     A
O828   Zn834   1.972   .     S
O829   Zn834   1.972   .     S
O829   C831    1.283   .     A
O830   C832    1.282   .     A
O830   Zn833   1.972   .     S
C831   C835    1.398   .     S
C832   C836    1.398   .     S
Zn833  N862    2.025   .     S
Zn834  N861    2.025   .     S
C836   C917    1.324   .     S
C836   H920    1.088   .     S
H837   C917    1.086   .     S
C839   C841    1.379   .     A
C839   C853    1.408   .     A
C839   Cl869   1.765   .     S
C840   Cl870   1.764   .     S
C840   C854    1.404   .     A
C840   C842    1.380   .     A
C841   H843    1.084   .     S
C841   C845    1.389   .     A
C842   H844    1.083   .     S
C842   C846    1.396   .     A
C845   C847    1.393   .     A
C846   C848    1.400   .     A
C847   H849    1.084   .     S
C847   C851    1.385   .     A
C848   C852    1.384   .     A
C848   H850    1.083   .     S
C851   C853    1.410   .     A
C851   S871    1.774   .     S
C852   C854    1.408   .     A
C852   S876    1.775   .     S
C854   C607    1.437   1_565 S
C855   C867    1.405   .     A
C855   C859    1.411   .     A
C855   H857    1.083   .     S
C856   C860    1.412   .     A
C856   H858    1.084   .     S
C856   C868    1.404   .     A
C859   N861    1.372   .     A
C859   Cl881   1.753   .     S
C860   Cl882   1.753   .     S
C860   N862    1.377   .     A
N861   C863    1.404   .     A
N862   C864    1.408   .     A
C863   S883    1.810   .     S
C863   C865    1.434   .     A
C864   C866    1.434   .     A
C864   S888    1.801   .     S
C865   S893    1.797   .     S
C865   C867    1.404   .     A
C866   C868    1.403   .     A
C866   S898    1.799   .     S
C868   C375    1.514   1_556 S
S871   O872    1.503   .     D
S871   O874    1.683   .     S
O873   S625    1.503   1_565 S
H875   O956    0.991   .     S
S876   O877    1.503   .     D
S876   O879    1.682   .     S
S876   O632    1.503   1_565 S
O879   H880    0.991   .     S
S883   O885    1.504   .     D
S883   O886    1.669   .     S
S883   O884    1.500   .     D
O886   H887    0.991   .     S
S888   O889    1.503   .     D
S888   O891    1.671   .     S
S888   O890    1.502   .     D
O891   H892    0.991   .     S
S893   O894    1.503   .     D
S893   O895    1.501   .     D
O896   H897    0.991   .     S
O896   S401    1.682   1_556 S
S898   O900    1.501   .     D
S898   O899    1.503   .     D
S898   O409    1.682   1_556 S
O901   H902    0.990   .     S
O903   C907    1.291   .     A
O903   Zn915   1.992   .     S
O904   C908    1.297   .     A
O904   Zn916   1.992   .     S
O905   Zn916   1.980   .     S
O905   C907    1.288   .     A
O906   Zn915   1.980   .     S
O906   C908    1.294   .     A
C907   C927    1.419   .     S
C908   C928    1.442   .     S
O909   C913    1.285   .     A
O909   Zn915   1.972   .     S
O910   C914    1.287   .     A
O910   Zn916   1.972   .     S
O911   Zn916   1.972   .     S
O911   C913    1.283   .     A
O912   C914    1.282   .     A
O912   Zn915   1.972   .     S
C913   C917    1.398   .     S
C914   C918    1.398   .     S
Zn915  N944    2.025   .     S
Zn916  N943    2.025   .     S
C918   C753    1.324   1_655 S
C918   H756    1.088   1_655 S
H919   C753    1.086   1_655 S
C921   C923    1.379   .     A
C921   C935    1.408   .     A
C921   Cl951   1.765   .     S
C922   Cl952   1.764   .     S
C922   C936    1.404   .     A
C922   C924    1.380   .     A
C923   H925    1.084   .     S
C923   C927    1.389   .     A
C924   H926    1.083   .     S
C924   C928    1.396   .     A
C927   C929    1.393   .     A
C928   C930    1.400   .     A
C929   H931    1.084   .     S
C929   C933    1.385   .     A
C930   C934    1.384   .     A
C930   H932    1.083   .     S
C933   C935    1.410   .     A
C933   S953    1.774   .     S
C934   C936    1.408   .     A
C934   S958    1.775   .     S
C936   C689    1.437   1_565 S
C937   C949    1.405   .     A
C937   C941    1.411   .     A
C937   H939    1.083   .     S
C938   C942    1.412   .     A
C938   H940    1.084   .     S
C938   C950    1.404   .     A
C941   N943    1.372   .     A
C941   Cl963   1.753   .     S
C942   Cl964   1.753   .     S
C942   N944    1.377   .     A
N943   C945    1.404   .     A
N944   C946    1.408   .     A
C945   S965    1.810   .     S
C945   C947    1.434   .     A
C946   C948    1.434   .     A
C946   S970    1.801   .     S
C947   S975    1.797   .     S
C947   C949    1.404   .     A
C948   C950    1.403   .     A
C948   S980    1.799   .     S
C950   C457    1.514   1_556 S
S953   O954    1.503   .     D
S953   O956    1.683   .     S
O955   S707    1.503   1_565 S
H957   O792    0.991   1_655 S
S958   O959    1.503   .     D
S958   O961    1.682   .     S
S958   O714    1.503   1_565 S
O961   H962    0.991   .     S
S965   O967    1.504   .     D
S965   O968    1.669   .     S
S965   O966    1.500   .     D
O968   H969    0.991   .     S
S970   O971    1.503   .     D
S970   O973    1.671   .     S
S970   O972    1.502   .     D
O973   H974    0.991   .     S
S975   O976    1.503   .     D
S975   O977    1.501   .     D
O978   H979    0.991   .     S
O978   S483    1.682   1_556 S
S980   O982    1.501   .     D
S980   O981    1.503   .     D
S980   O491    1.682   1_556 S
O983   H984    0.990   .     S
