data_str_m3_o2_o10_pcu_sym.128
_audit_creation_date              2020-01-03
_audit_creation_method            'Materials Studio'
_symmetry_space_group_name_H-M    'P1'
_symmetry_Int_Tables_number       1
_symmetry_cell_setting            triclinic
loop_
_symmetry_equiv_pos_as_xyz
  x,y,z
_cell_length_a                    25.9712
_cell_length_b                    30.1459
_cell_length_c                    28.4418
_cell_angle_alpha                 89.2848
_cell_angle_beta                  99.5016
_cell_angle_gamma                 91.8270
loop_
_atom_site_label
_atom_site_type_symbol
_atom_site_fract_x
_atom_site_fract_y
_atom_site_fract_z
_atom_site_U_iso_or_equiv
_atom_site_adp_type
_atom_site_occupancy
C1     C     0.17188   0.16443   0.25108   0.00000  Uiso   1.00
C2     C     0.16309   0.33595   0.24909   0.00000  Uiso   1.00
C3     C     0.12545   0.23292   0.04558   0.00000  Uiso   1.00
C4     C     0.18012   0.28851   0.44915   0.00000  Uiso   1.00
C5     C     0.12605   0.23113   0.09553   0.00000  Uiso   1.00
C6     C     0.18358   0.28698   0.40025   0.00000  Uiso   1.00
C7     C     0.20848   0.26833   0.10959   0.00000  Uiso   1.00
C8     C     0.15506   0.21187   0.39662   0.00000  Uiso   1.00
C9     C     0.21156   0.26828   0.06087   0.00000  Uiso   1.00
C10    C     0.15991   0.20975   0.44682   0.00000  Uiso   1.00
C11    C     0.16994   0.24982   0.02736   0.00000  Uiso   1.00
C12    C     0.17137   0.24897   0.47426   0.00000  Uiso   1.00
C13    C     0.06693   0.24983   0.23738   0.00000  Uiso   1.00
C14    C     0.26639   0.25008   0.26262   0.00000  Uiso   1.00
C15    C     0.01176   0.24965   0.23075   0.00000  Uiso   1.00
C16    C     0.32156   0.25009   0.26924   0.00000  Uiso   1.00
C17    C     0.15442   0.04953   0.28874   0.00000  Uiso   1.00
C18    C     0.15752   0.45462   0.20687   0.00000  Uiso   1.00
C19    C     0.16845   0.09381   0.29368   0.00000  Uiso   1.00
C20    C     0.16066   0.40861   0.20573   0.00000  Uiso   1.00
C21    C     0.18024   0.11711   0.25377   0.00000  Uiso   1.00
C22    C     0.15758   0.38383   0.24754   0.00000  Uiso   1.00
C23    C     0.20123   0.09415   0.21899   0.00000  Uiso   1.00
C24    C     0.15234   0.40609   0.28921   0.00000  Uiso   1.00
C25    C     0.20347   0.04805   0.22258   0.00000  Uiso   1.00
C26    C     0.16862   0.45005   0.29363   0.00000  Uiso   1.00
C27    C     0.17465   0.02491   0.25415   0.00000  Uiso   1.00
C28    C     0.16733   0.47617   0.25167   0.00000  Uiso   1.00
H29    H     0.32399   0.24915   0.19439   0.00000  Uiso   1.00
H30    H     0.00933   0.25055   0.30560   0.00000  Uiso   1.00
H31    H     0.24031   0.28269   0.13461   0.00000  Uiso   1.00
H32    H     0.14417   0.18219   0.37606   0.00000  Uiso   1.00
N33    N     0.16667   0.24999   0.12624   0.00000  Uiso   1.00
N34    N     0.16667   0.25001   0.37377   0.00000  Uiso   1.00
O35    O     0.16667   0.18453   0.28974   0.00000  Uiso   1.00
O36    O     0.16666   0.31546   0.21026   0.00000  Uiso   1.00
O37    O     0.16667   0.18453   0.21026   0.00000  Uiso   1.00
O38    O     0.16666   0.31547   0.28974   0.00000  Uiso   1.00
O39    O     0.09058   0.25000   0.28045   0.00000  Uiso   1.00
O40    O     0.24275   0.25000   0.21956   0.00000  Uiso   1.00
O41    O     0.09058   0.24999   0.20097   0.00000  Uiso   1.00
O42    O     0.24275   0.25000   0.29904   0.00000  Uiso   1.00
Zn43   Zn    0.16667   0.25000   0.30307   0.00000  Uiso   1.00
Zn44   Zn    0.16667   0.24999   0.19693   0.00000  Uiso   1.00
O45    O     0.12635   0.03093   0.32159   0.00000  Uiso   1.00
C46    C     0.07424   0.02342   0.29948   0.00000  Uiso   1.00
H47    H     0.07189   0.49819   0.27103   0.00000  Uiso   1.00
H48    H     0.05661   0.05472   0.28405   0.00000  Uiso   1.00
C49    C     0.04276   0.00568   0.33652   0.00000  Uiso   1.00
H50    H     0.06245   0.47714   0.35603   0.00000  Uiso   1.00
H51    H     0.00363   0.49423   0.31858   0.00000  Uiso   1.00
H52    H     0.03852   0.03210   0.36236   0.00000  Uiso   1.00
O53    O     0.15191   0.47764   0.16403   0.00000  Uiso   1.00
C54    C     0.10052   0.49264   0.15297   0.00000  Uiso   1.00
H55    H     0.09103   0.01421   0.18165   0.00000  Uiso   1.00
H56    H     0.07220   0.46392   0.14721   0.00000  Uiso   1.00
C57    C     0.09527   0.02009   0.10731   0.00000  Uiso   1.00
H58    H     0.10457   0.49973   0.07770   0.00000  Uiso   1.00
H59    H     0.05466   0.03162   0.09779   0.00000  Uiso   1.00
H60    H     0.12247   0.04949   0.11240   0.00000  Uiso   1.00
O61    O     0.17920   0.11154   0.33908   0.00000  Uiso   1.00
C62    C     0.23442   0.11267   0.35288   0.00000  Uiso   1.00
H63    H     0.25159   0.08031   0.34622   0.00000  Uiso   1.00
H64    H     0.25270   0.13925   0.33302   0.00000  Uiso   1.00
C65    C     0.24950   0.12200   0.40574   0.00000  Uiso   1.00
H66    H     0.22968   0.09748   0.42664   0.00000  Uiso   1.00
H67    H     0.29239   0.11923   0.41645   0.00000  Uiso   1.00
H68    H     0.23901   0.15614   0.41354   0.00000  Uiso   1.00
O69    O     0.16339   0.38840   0.16288   0.00000  Uiso   1.00
C70    C     0.21605   0.38950   0.15552   0.00000  Uiso   1.00
H71    H     0.23483   0.35827   0.16919   0.00000  Uiso   1.00
H72    H     0.24008   0.41771   0.17339   0.00000  Uiso   1.00
C73    C     0.21741   0.39340   0.10250   0.00000  Uiso   1.00
H74    H     0.20066   0.42540   0.08881   0.00000  Uiso   1.00
H75    H     0.25837   0.39241   0.09605   0.00000  Uiso   1.00
H76    H     0.19435   0.36557   0.08330   0.00000  Uiso   1.00
I77    I     0.23878   0.12652   0.16599   0.00000  Uiso   1.00
I78    I     0.10558   0.38068   0.33885   0.00000  Uiso   1.00
O79    O     0.23125   0.02642   0.19278   0.00000  Uiso   1.00
C80    C     0.27743   0.01021   0.21958   0.00000  Uiso   1.00
H81    H     0.26867   0.48001   0.24001   0.00000  Uiso   1.00
H82    H     0.29808   0.03564   0.24462   0.00000  Uiso   1.00
C83    C     0.31368   0.49779   0.18543   0.00000  Uiso   1.00
H84    H     0.33045   0.02838   0.17098   0.00000  Uiso   1.00
H85    H     0.29217   0.47824   0.15521   0.00000  Uiso   1.00
H86    H     0.01213   0.47740   0.20442   0.00000  Uiso   1.00
O87    O     0.18271   0.46664   0.33917   0.00000  Uiso   1.00
C88    C     0.23747   0.47244   0.34910   0.00000  Uiso   1.00
H89    H     0.25058   0.49986   0.32704   0.00000  Uiso   1.00
H90    H     0.25737   0.44142   0.34250   0.00000  Uiso   1.00
C91    C     0.25359   0.48476   0.40124   0.00000  Uiso   1.00
H92    H     0.24114   0.45797   0.42444   0.00000  Uiso   1.00
H93    H     0.29668   0.48957   0.40960   0.00000  Uiso   1.00
H94    H     0.23501   0.01601   0.40863   0.00000  Uiso   1.00
O95    O     0.08329   0.21351   0.01599   0.00000  Uiso   1.00
C96    C     0.05255   0.24618   0.49023   0.00000  Uiso   1.00
H97    H     0.07163   0.26055   0.46118   0.00000  Uiso   1.00
H98    H     0.04496   0.27350   0.01376   0.00000  Uiso   1.00
C99    C     0.00103   0.22435   0.46729   0.00000  Uiso   1.00
H100   H     0.31515   0.20707   0.49479   0.00000  Uiso   1.00
H101   H     0.30795   0.24980   0.44948   0.00000  Uiso   1.00
H102   H     0.00804   0.19980   0.44041   0.00000  Uiso   1.00
O103   O     0.18716   0.32906   0.47186   0.00000  Uiso   1.00
C104   C     0.13789   0.34690   0.47387   0.00000  Uiso   1.00
H105   H     0.12408   0.33519   0.00699   0.00000  Uiso   1.00
H106   H     0.10752   0.33774   0.44267   0.00000  Uiso   1.00
C107   C     0.14338   0.39729   0.47489   0.00000  Uiso   1.00
H108   H     0.15624   0.40983   0.44173   0.00000  Uiso   1.00
H109   H     0.17284   0.40813   0.00561   0.00000  Uiso   1.00
H110   H     0.10528   0.41176   0.47790   0.00000  Uiso   1.00
O111   O     0.08401   0.21259   0.11359   0.00000  Uiso   1.00
C112   C     0.08610   0.16583   0.11241   0.00000  Uiso   1.00
H113   H     0.12603   0.15388   0.12570   0.00000  Uiso   1.00
H114   H     0.07316   0.15349   0.07557   0.00000  Uiso   1.00
C115   C     0.04941   0.14571   0.14391   0.00000  Uiso   1.00
H116   H     0.00903   0.15637   0.13082   0.00000  Uiso   1.00
H117   H     0.05020   0.10893   0.14297   0.00000  Uiso   1.00
H118   H     0.06148   0.15678   0.18130   0.00000  Uiso   1.00
O119   O     0.20231   0.32423   0.37915   0.00000  Uiso   1.00
C120   C     0.25582   0.31992   0.37622   0.00000  Uiso   1.00
H121   H     0.26199   0.33109   0.34017   0.00000  Uiso   1.00
H122   H     0.26991   0.28534   0.38088   0.00000  Uiso   1.00
C123   C     0.28946   0.34999   0.41231   0.00000  Uiso   1.00
H124   H     0.28587   0.33923   0.44898   0.00000  Uiso   1.00
H125   H     0.33105   0.34837   0.40785   0.00000  Uiso   1.00
H126   H     0.27694   0.38476   0.40699   0.00000  Uiso   1.00
I127   I     0.28217   0.29580   0.04460   0.00000  Uiso   1.00
I128   I     0.15237   0.14568   0.47791   0.00000  Uiso   1.00
C129   C     0.50522   0.16443   0.25108   0.00000  Uiso   1.00
C130   C     0.49643   0.33595   0.24909   0.00000  Uiso   1.00
C131   C     0.45878   0.23292   0.04558   0.00000  Uiso   1.00
C132   C     0.51345   0.28851   0.44915   0.00000  Uiso   1.00
C133   C     0.45939   0.23113   0.09553   0.00000  Uiso   1.00
C134   C     0.51691   0.28698   0.40025   0.00000  Uiso   1.00
C135   C     0.54182   0.26833   0.10959   0.00000  Uiso   1.00
C136   C     0.48839   0.21187   0.39662   0.00000  Uiso   1.00
C137   C     0.54490   0.26828   0.06087   0.00000  Uiso   1.00
C138   C     0.49325   0.20975   0.44682   0.00000  Uiso   1.00
C139   C     0.50328   0.24982   0.02736   0.00000  Uiso   1.00
C140   C     0.50470   0.24897   0.47426   0.00000  Uiso   1.00
C141   C     0.40027   0.24983   0.23738   0.00000  Uiso   1.00
C142   C     0.59973   0.25008   0.26262   0.00000  Uiso   1.00
C143   C     0.34509   0.24965   0.23075   0.00000  Uiso   1.00
C144   C     0.65489   0.25009   0.26924   0.00000  Uiso   1.00
C145   C     0.48775   0.04953   0.28874   0.00000  Uiso   1.00
C146   C     0.49085   0.45462   0.20687   0.00000  Uiso   1.00
C147   C     0.50179   0.09381   0.29368   0.00000  Uiso   1.00
C148   C     0.49399   0.40861   0.20573   0.00000  Uiso   1.00
C149   C     0.51358   0.11711   0.25377   0.00000  Uiso   1.00
C150   C     0.49092   0.38383   0.24754   0.00000  Uiso   1.00
C151   C     0.53456   0.09415   0.21899   0.00000  Uiso   1.00
C152   C     0.48567   0.40609   0.28921   0.00000  Uiso   1.00
C153   C     0.53681   0.04805   0.22258   0.00000  Uiso   1.00
C154   C     0.50195   0.45005   0.29363   0.00000  Uiso   1.00
C155   C     0.50798   0.02491   0.25415   0.00000  Uiso   1.00
C156   C     0.50067   0.47617   0.25167   0.00000  Uiso   1.00
H157   H     0.65732   0.24915   0.19439   0.00000  Uiso   1.00
H158   H     0.34266   0.25055   0.30560   0.00000  Uiso   1.00
H159   H     0.57364   0.28269   0.13461   0.00000  Uiso   1.00
H160   H     0.47750   0.18219   0.37606   0.00000  Uiso   1.00
N161   N     0.50000   0.24999   0.12624   0.00000  Uiso   1.00
N162   N     0.50000   0.25001   0.37377   0.00000  Uiso   1.00
O163   O     0.50000   0.18453   0.28974   0.00000  Uiso   1.00
O164   O     0.50000   0.31546   0.21026   0.00000  Uiso   1.00
O165   O     0.50000   0.18453   0.21026   0.00000  Uiso   1.00
O166   O     0.50000   0.31547   0.28974   0.00000  Uiso   1.00
O167   O     0.42392   0.25000   0.28045   0.00000  Uiso   1.00
O168   O     0.57608   0.25000   0.21956   0.00000  Uiso   1.00
O169   O     0.42392   0.24999   0.20097   0.00000  Uiso   1.00
O170   O     0.57608   0.25000   0.29904   0.00000  Uiso   1.00
Zn171  Zn    0.50000   0.25000   0.30307   0.00000  Uiso   1.00
Zn172  Zn    0.50000   0.24999   0.19693   0.00000  Uiso   1.00
O173   O     0.45969   0.03093   0.32159   0.00000  Uiso   1.00
C174   C     0.40757   0.02342   0.29948   0.00000  Uiso   1.00
H175   H     0.40523   0.49819   0.27103   0.00000  Uiso   1.00
H176   H     0.38995   0.05472   0.28405   0.00000  Uiso   1.00
C177   C     0.37609   0.00568   0.33652   0.00000  Uiso   1.00
H178   H     0.39578   0.47714   0.35603   0.00000  Uiso   1.00
H179   H     0.33696   0.49423   0.31858   0.00000  Uiso   1.00
H180   H     0.37186   0.03210   0.36236   0.00000  Uiso   1.00
O181   O     0.48524   0.47764   0.16403   0.00000  Uiso   1.00
C182   C     0.43385   0.49264   0.15297   0.00000  Uiso   1.00
H183   H     0.42436   0.01421   0.18165   0.00000  Uiso   1.00
H184   H     0.40553   0.46392   0.14721   0.00000  Uiso   1.00
C185   C     0.42861   0.02009   0.10731   0.00000  Uiso   1.00
H186   H     0.43791   0.49973   0.07770   0.00000  Uiso   1.00
H187   H     0.38800   0.03162   0.09779   0.00000  Uiso   1.00
H188   H     0.45580   0.04949   0.11240   0.00000  Uiso   1.00
O189   O     0.51254   0.11154   0.33908   0.00000  Uiso   1.00
C190   C     0.56775   0.11267   0.35288   0.00000  Uiso   1.00
H191   H     0.58492   0.08031   0.34622   0.00000  Uiso   1.00
H192   H     0.58604   0.13925   0.33302   0.00000  Uiso   1.00
C193   C     0.58283   0.12200   0.40574   0.00000  Uiso   1.00
H194   H     0.56301   0.09748   0.42664   0.00000  Uiso   1.00
H195   H     0.62572   0.11923   0.41645   0.00000  Uiso   1.00
H196   H     0.57235   0.15614   0.41354   0.00000  Uiso   1.00
O197   O     0.49673   0.38840   0.16288   0.00000  Uiso   1.00
C198   C     0.54939   0.38950   0.15552   0.00000  Uiso   1.00
H199   H     0.56816   0.35827   0.16919   0.00000  Uiso   1.00
H200   H     0.57341   0.41771   0.17339   0.00000  Uiso   1.00
C201   C     0.55074   0.39340   0.10250   0.00000  Uiso   1.00
H202   H     0.53400   0.42540   0.08881   0.00000  Uiso   1.00
H203   H     0.59170   0.39241   0.09605   0.00000  Uiso   1.00
H204   H     0.52768   0.36557   0.08330   0.00000  Uiso   1.00
I205   I     0.57212   0.12652   0.16599   0.00000  Uiso   1.00
I206   I     0.43892   0.38068   0.33885   0.00000  Uiso   1.00
O207   O     0.56459   0.02642   0.19278   0.00000  Uiso   1.00
C208   C     0.61076   0.01021   0.21958   0.00000  Uiso   1.00
H209   H     0.60200   0.48001   0.24001   0.00000  Uiso   1.00
H210   H     0.63142   0.03564   0.24462   0.00000  Uiso   1.00
C211   C     0.64701   0.49779   0.18543   0.00000  Uiso   1.00
H212   H     0.66378   0.02838   0.17098   0.00000  Uiso   1.00
H213   H     0.62550   0.47824   0.15521   0.00000  Uiso   1.00
H214   H     0.34546   0.47740   0.20442   0.00000  Uiso   1.00
O215   O     0.51604   0.46664   0.33917   0.00000  Uiso   1.00
C216   C     0.57081   0.47244   0.34910   0.00000  Uiso   1.00
H217   H     0.58391   0.49986   0.32704   0.00000  Uiso   1.00
H218   H     0.59070   0.44142   0.34250   0.00000  Uiso   1.00
C219   C     0.58692   0.48476   0.40124   0.00000  Uiso   1.00
H220   H     0.57447   0.45797   0.42444   0.00000  Uiso   1.00
H221   H     0.63002   0.48957   0.40960   0.00000  Uiso   1.00
H222   H     0.56834   0.01601   0.40863   0.00000  Uiso   1.00
O223   O     0.41662   0.21351   0.01599   0.00000  Uiso   1.00
C224   C     0.38589   0.24618   0.49023   0.00000  Uiso   1.00
H225   H     0.40496   0.26055   0.46118   0.00000  Uiso   1.00
H226   H     0.37830   0.27350   0.01376   0.00000  Uiso   1.00
C227   C     0.33436   0.22435   0.46729   0.00000  Uiso   1.00
H228   H     0.64849   0.20707   0.49479   0.00000  Uiso   1.00
H229   H     0.64128   0.24980   0.44948   0.00000  Uiso   1.00
H230   H     0.34137   0.19980   0.44041   0.00000  Uiso   1.00
O231   O     0.52049   0.32906   0.47186   0.00000  Uiso   1.00
C232   C     0.47122   0.34690   0.47387   0.00000  Uiso   1.00
H233   H     0.45741   0.33519   0.00699   0.00000  Uiso   1.00
H234   H     0.44085   0.33774   0.44267   0.00000  Uiso   1.00
C235   C     0.47671   0.39729   0.47489   0.00000  Uiso   1.00
H236   H     0.48957   0.40983   0.44173   0.00000  Uiso   1.00
H237   H     0.50617   0.40813   0.00561   0.00000  Uiso   1.00
H238   H     0.43861   0.41176   0.47790   0.00000  Uiso   1.00
O239   O     0.41734   0.21259   0.11359   0.00000  Uiso   1.00
C240   C     0.41944   0.16583   0.11241   0.00000  Uiso   1.00
H241   H     0.45936   0.15388   0.12570   0.00000  Uiso   1.00
H242   H     0.40649   0.15349   0.07557   0.00000  Uiso   1.00
C243   C     0.38274   0.14571   0.14391   0.00000  Uiso   1.00
H244   H     0.34237   0.15637   0.13082   0.00000  Uiso   1.00
H245   H     0.38353   0.10893   0.14297   0.00000  Uiso   1.00
H246   H     0.39482   0.15678   0.18130   0.00000  Uiso   1.00
O247   O     0.53564   0.32423   0.37915   0.00000  Uiso   1.00
C248   C     0.58916   0.31992   0.37622   0.00000  Uiso   1.00
H249   H     0.59532   0.33109   0.34017   0.00000  Uiso   1.00
H250   H     0.60325   0.28534   0.38088   0.00000  Uiso   1.00
C251   C     0.62279   0.34999   0.41231   0.00000  Uiso   1.00
H252   H     0.61921   0.33923   0.44898   0.00000  Uiso   1.00
H253   H     0.66438   0.34837   0.40785   0.00000  Uiso   1.00
H254   H     0.61027   0.38476   0.40699   0.00000  Uiso   1.00
I255   I     0.61550   0.29580   0.04460   0.00000  Uiso   1.00
I256   I     0.48571   0.14568   0.47791   0.00000  Uiso   1.00
C257   C     0.83855   0.16443   0.25108   0.00000  Uiso   1.00
C258   C     0.82976   0.33595   0.24909   0.00000  Uiso   1.00
C259   C     0.79211   0.23292   0.04558   0.00000  Uiso   1.00
C260   C     0.84678   0.28851   0.44915   0.00000  Uiso   1.00
C261   C     0.79272   0.23113   0.09553   0.00000  Uiso   1.00
C262   C     0.85024   0.28698   0.40025   0.00000  Uiso   1.00
C263   C     0.87515   0.26833   0.10959   0.00000  Uiso   1.00
C264   C     0.82173   0.21187   0.39662   0.00000  Uiso   1.00
C265   C     0.87823   0.26828   0.06087   0.00000  Uiso   1.00
C266   C     0.82658   0.20975   0.44682   0.00000  Uiso   1.00
C267   C     0.83661   0.24982   0.02736   0.00000  Uiso   1.00
C268   C     0.83803   0.24897   0.47426   0.00000  Uiso   1.00
C269   C     0.73360   0.24983   0.23738   0.00000  Uiso   1.00
C270   C     0.93306   0.25008   0.26262   0.00000  Uiso   1.00
C271   C     0.67842   0.24965   0.23075   0.00000  Uiso   1.00
C272   C     0.98822   0.25009   0.26924   0.00000  Uiso   1.00
C273   C     0.82108   0.04953   0.28874   0.00000  Uiso   1.00
C274   C     0.82418   0.45462   0.20687   0.00000  Uiso   1.00
C275   C     0.83512   0.09381   0.29368   0.00000  Uiso   1.00
C276   C     0.82733   0.40861   0.20573   0.00000  Uiso   1.00
C277   C     0.84691   0.11711   0.25377   0.00000  Uiso   1.00
C278   C     0.82425   0.38383   0.24754   0.00000  Uiso   1.00
C279   C     0.86789   0.09415   0.21899   0.00000  Uiso   1.00
C280   C     0.81900   0.40609   0.28921   0.00000  Uiso   1.00
C281   C     0.87014   0.04805   0.22258   0.00000  Uiso   1.00
C282   C     0.83528   0.45005   0.29363   0.00000  Uiso   1.00
C283   C     0.84132   0.02491   0.25415   0.00000  Uiso   1.00
C284   C     0.83400   0.47617   0.25167   0.00000  Uiso   1.00
H285   H     0.99066   0.24915   0.19439   0.00000  Uiso   1.00
H286   H     0.67599   0.25055   0.30560   0.00000  Uiso   1.00
H287   H     0.90698   0.28269   0.13461   0.00000  Uiso   1.00
H288   H     0.81084   0.18219   0.37606   0.00000  Uiso   1.00
N289   N     0.83333   0.24999   0.12624   0.00000  Uiso   1.00
N290   N     0.83333   0.25001   0.37377   0.00000  Uiso   1.00
O291   O     0.83334   0.18453   0.28974   0.00000  Uiso   1.00
O292   O     0.83333   0.31546   0.21026   0.00000  Uiso   1.00
O293   O     0.83334   0.18453   0.21026   0.00000  Uiso   1.00
O294   O     0.83333   0.31547   0.28974   0.00000  Uiso   1.00
O295   O     0.75725   0.25000   0.28045   0.00000  Uiso   1.00
O296   O     0.90942   0.25000   0.21956   0.00000  Uiso   1.00
O297   O     0.75725   0.24999   0.20097   0.00000  Uiso   1.00
O298   O     0.90942   0.25000   0.29904   0.00000  Uiso   1.00
Zn299  Zn    0.83333   0.25000   0.30307   0.00000  Uiso   1.00
Zn300  Zn    0.83333   0.24999   0.19693   0.00000  Uiso   1.00
O301   O     0.79302   0.03093   0.32159   0.00000  Uiso   1.00
C302   C     0.74091   0.02342   0.29948   0.00000  Uiso   1.00
H303   H     0.73856   0.49819   0.27103   0.00000  Uiso   1.00
H304   H     0.72328   0.05472   0.28405   0.00000  Uiso   1.00
C305   C     0.70943   0.00568   0.33652   0.00000  Uiso   1.00
H306   H     0.72912   0.47714   0.35603   0.00000  Uiso   1.00
H307   H     0.67029   0.49423   0.31858   0.00000  Uiso   1.00
H308   H     0.70519   0.03210   0.36236   0.00000  Uiso   1.00
O309   O     0.81857   0.47764   0.16403   0.00000  Uiso   1.00
C310   C     0.76718   0.49264   0.15297   0.00000  Uiso   1.00
H311   H     0.75770   0.01421   0.18165   0.00000  Uiso   1.00
H312   H     0.73886   0.46392   0.14721   0.00000  Uiso   1.00
C313   C     0.76194   0.02009   0.10731   0.00000  Uiso   1.00
H314   H     0.77124   0.49973   0.07770   0.00000  Uiso   1.00
H315   H     0.72133   0.03162   0.09779   0.00000  Uiso   1.00
H316   H     0.78913   0.04949   0.11240   0.00000  Uiso   1.00
O317   O     0.84587   0.11154   0.33908   0.00000  Uiso   1.00
C318   C     0.90109   0.11267   0.35288   0.00000  Uiso   1.00
H319   H     0.91826   0.08031   0.34622   0.00000  Uiso   1.00
H320   H     0.91937   0.13925   0.33302   0.00000  Uiso   1.00
C321   C     0.91617   0.12200   0.40574   0.00000  Uiso   1.00
H322   H     0.89635   0.09748   0.42664   0.00000  Uiso   1.00
H323   H     0.95905   0.11923   0.41645   0.00000  Uiso   1.00
H324   H     0.90568   0.15614   0.41354   0.00000  Uiso   1.00
O325   O     0.83006   0.38840   0.16288   0.00000  Uiso   1.00
C326   C     0.88272   0.38950   0.15552   0.00000  Uiso   1.00
H327   H     0.90150   0.35827   0.16919   0.00000  Uiso   1.00
H328   H     0.90675   0.41771   0.17339   0.00000  Uiso   1.00
C329   C     0.88408   0.39340   0.10250   0.00000  Uiso   1.00
H330   H     0.86733   0.42540   0.08881   0.00000  Uiso   1.00
H331   H     0.92503   0.39241   0.09605   0.00000  Uiso   1.00
H332   H     0.86101   0.36557   0.08330   0.00000  Uiso   1.00
I333   I     0.90545   0.12652   0.16599   0.00000  Uiso   1.00
I334   I     0.77225   0.38068   0.33885   0.00000  Uiso   1.00
O335   O     0.89792   0.02642   0.19278   0.00000  Uiso   1.00
C336   C     0.94409   0.01021   0.21958   0.00000  Uiso   1.00
H337   H     0.93534   0.48001   0.24001   0.00000  Uiso   1.00
H338   H     0.96475   0.03564   0.24462   0.00000  Uiso   1.00
C339   C     0.98035   0.49779   0.18543   0.00000  Uiso   1.00
H340   H     0.99711   0.02838   0.17098   0.00000  Uiso   1.00
H341   H     0.95884   0.47824   0.15521   0.00000  Uiso   1.00
H342   H     0.67880   0.47740   0.20442   0.00000  Uiso   1.00
O343   O     0.84937   0.46664   0.33917   0.00000  Uiso   1.00
C344   C     0.90414   0.47244   0.34910   0.00000  Uiso   1.00
H345   H     0.91724   0.49986   0.32704   0.00000  Uiso   1.00
H346   H     0.92404   0.44142   0.34250   0.00000  Uiso   1.00
C347   C     0.92025   0.48476   0.40124   0.00000  Uiso   1.00
H348   H     0.90781   0.45797   0.42444   0.00000  Uiso   1.00
H349   H     0.96335   0.48957   0.40960   0.00000  Uiso   1.00
H350   H     0.90167   0.01601   0.40863   0.00000  Uiso   1.00
O351   O     0.74996   0.21351   0.01599   0.00000  Uiso   1.00
C352   C     0.71922   0.24618   0.49023   0.00000  Uiso   1.00
H353   H     0.73829   0.26055   0.46118   0.00000  Uiso   1.00
H354   H     0.71163   0.27350   0.01376   0.00000  Uiso   1.00
C355   C     0.66769   0.22435   0.46729   0.00000  Uiso   1.00
H356   H     0.98182   0.20707   0.49479   0.00000  Uiso   1.00
H357   H     0.97462   0.24980   0.44948   0.00000  Uiso   1.00
H358   H     0.67470   0.19980   0.44041   0.00000  Uiso   1.00
O359   O     0.85383   0.32906   0.47186   0.00000  Uiso   1.00
C360   C     0.80456   0.34690   0.47387   0.00000  Uiso   1.00
H361   H     0.79074   0.33519   0.00699   0.00000  Uiso   1.00
H362   H     0.77418   0.33774   0.44267   0.00000  Uiso   1.00
C363   C     0.81005   0.39729   0.47489   0.00000  Uiso   1.00
H364   H     0.82291   0.40983   0.44173   0.00000  Uiso   1.00
H365   H     0.83950   0.40813   0.00561   0.00000  Uiso   1.00
H366   H     0.77195   0.41176   0.47790   0.00000  Uiso   1.00
O367   O     0.75068   0.21259   0.11359   0.00000  Uiso   1.00
C368   C     0.75277   0.16583   0.11241   0.00000  Uiso   1.00
H369   H     0.79269   0.15388   0.12570   0.00000  Uiso   1.00
H370   H     0.73983   0.15349   0.07557   0.00000  Uiso   1.00
C371   C     0.71607   0.14571   0.14391   0.00000  Uiso   1.00
H372   H     0.67570   0.15637   0.13082   0.00000  Uiso   1.00
H373   H     0.71687   0.10893   0.14297   0.00000  Uiso   1.00
H374   H     0.72815   0.15678   0.18130   0.00000  Uiso   1.00
O375   O     0.86898   0.32423   0.37915   0.00000  Uiso   1.00
C376   C     0.92249   0.31992   0.37622   0.00000  Uiso   1.00
H377   H     0.92865   0.33109   0.34017   0.00000  Uiso   1.00
H378   H     0.93658   0.28534   0.38088   0.00000  Uiso   1.00
C379   C     0.95613   0.34999   0.41231   0.00000  Uiso   1.00
H380   H     0.95254   0.33923   0.44898   0.00000  Uiso   1.00
H381   H     0.99771   0.34837   0.40785   0.00000  Uiso   1.00
H382   H     0.94360   0.38476   0.40699   0.00000  Uiso   1.00
I383   I     0.94883   0.29580   0.04460   0.00000  Uiso   1.00
I384   I     0.81904   0.14568   0.47791   0.00000  Uiso   1.00
C385   C     0.17188   0.66443   0.25108   0.00000  Uiso   1.00
C386   C     0.16309   0.83595   0.24909   0.00000  Uiso   1.00
C387   C     0.12545   0.73292   0.04558   0.00000  Uiso   1.00
C388   C     0.18012   0.78851   0.44915   0.00000  Uiso   1.00
C389   C     0.12605   0.73113   0.09553   0.00000  Uiso   1.00
C390   C     0.18358   0.78698   0.40025   0.00000  Uiso   1.00
C391   C     0.20848   0.76833   0.10959   0.00000  Uiso   1.00
C392   C     0.15506   0.71187   0.39662   0.00000  Uiso   1.00
C393   C     0.21156   0.76828   0.06087   0.00000  Uiso   1.00
C394   C     0.15991   0.70975   0.44682   0.00000  Uiso   1.00
C395   C     0.16994   0.74982   0.02736   0.00000  Uiso   1.00
C396   C     0.17137   0.74897   0.47426   0.00000  Uiso   1.00
C397   C     0.06693   0.74983   0.23738   0.00000  Uiso   1.00
C398   C     0.26639   0.75008   0.26262   0.00000  Uiso   1.00
C399   C     0.01176   0.74965   0.23075   0.00000  Uiso   1.00
C400   C     0.32156   0.75009   0.26924   0.00000  Uiso   1.00
C401   C     0.15442   0.54953   0.28874   0.00000  Uiso   1.00
C402   C     0.15752   0.95462   0.20687   0.00000  Uiso   1.00
C403   C     0.16845   0.59381   0.29368   0.00000  Uiso   1.00
C404   C     0.16066   0.90861   0.20573   0.00000  Uiso   1.00
C405   C     0.18024   0.61711   0.25377   0.00000  Uiso   1.00
C406   C     0.15758   0.88383   0.24754   0.00000  Uiso   1.00
C407   C     0.20123   0.59415   0.21899   0.00000  Uiso   1.00
C408   C     0.15234   0.90609   0.28921   0.00000  Uiso   1.00
C409   C     0.20347   0.54805   0.22258   0.00000  Uiso   1.00
C410   C     0.16862   0.95005   0.29363   0.00000  Uiso   1.00
C411   C     0.17465   0.52491   0.25415   0.00000  Uiso   1.00
C412   C     0.16733   0.97617   0.25167   0.00000  Uiso   1.00
H413   H     0.32399   0.74915   0.19439   0.00000  Uiso   1.00
H414   H     0.00933   0.75055   0.30560   0.00000  Uiso   1.00
H415   H     0.24031   0.78269   0.13461   0.00000  Uiso   1.00
H416   H     0.14417   0.68219   0.37606   0.00000  Uiso   1.00
N417   N     0.16667   0.74999   0.12624   0.00000  Uiso   1.00
N418   N     0.16667   0.75001   0.37377   0.00000  Uiso   1.00
O419   O     0.16667   0.68453   0.28974   0.00000  Uiso   1.00
O420   O     0.16666   0.81546   0.21026   0.00000  Uiso   1.00
O421   O     0.16667   0.68453   0.21026   0.00000  Uiso   1.00
O422   O     0.16666   0.81547   0.28974   0.00000  Uiso   1.00
O423   O     0.09058   0.75000   0.28045   0.00000  Uiso   1.00
O424   O     0.24275   0.75000   0.21956   0.00000  Uiso   1.00
O425   O     0.09058   0.74999   0.20097   0.00000  Uiso   1.00
O426   O     0.24275   0.75000   0.29904   0.00000  Uiso   1.00
Zn427  Zn    0.16667   0.75000   0.30307   0.00000  Uiso   1.00
Zn428  Zn    0.16667   0.74999   0.19693   0.00000  Uiso   1.00
O429   O     0.12635   0.53093   0.32159   0.00000  Uiso   1.00
C430   C     0.07424   0.52342   0.29948   0.00000  Uiso   1.00
H431   H     0.07189   0.99819   0.27103   0.00000  Uiso   1.00
H432   H     0.05661   0.55472   0.28405   0.00000  Uiso   1.00
C433   C     0.04276   0.50568   0.33652   0.00000  Uiso   1.00
H434   H     0.06245   0.97714   0.35603   0.00000  Uiso   1.00
H435   H     0.00363   0.99423   0.31858   0.00000  Uiso   1.00
H436   H     0.03852   0.53210   0.36236   0.00000  Uiso   1.00
O437   O     0.15191   0.97764   0.16403   0.00000  Uiso   1.00
C438   C     0.10052   0.99264   0.15297   0.00000  Uiso   1.00
H439   H     0.09103   0.51421   0.18165   0.00000  Uiso   1.00
H440   H     0.07220   0.96392   0.14721   0.00000  Uiso   1.00
C441   C     0.09527   0.52009   0.10731   0.00000  Uiso   1.00
H442   H     0.10457   0.99973   0.07770   0.00000  Uiso   1.00
H443   H     0.05466   0.53162   0.09779   0.00000  Uiso   1.00
H444   H     0.12247   0.54949   0.11240   0.00000  Uiso   1.00
O445   O     0.17920   0.61154   0.33908   0.00000  Uiso   1.00
C446   C     0.23442   0.61267   0.35288   0.00000  Uiso   1.00
H447   H     0.25159   0.58031   0.34622   0.00000  Uiso   1.00
H448   H     0.25270   0.63925   0.33302   0.00000  Uiso   1.00
C449   C     0.24950   0.62200   0.40574   0.00000  Uiso   1.00
H450   H     0.22968   0.59748   0.42664   0.00000  Uiso   1.00
H451   H     0.29239   0.61923   0.41645   0.00000  Uiso   1.00
H452   H     0.23901   0.65614   0.41354   0.00000  Uiso   1.00
O453   O     0.16339   0.88840   0.16288   0.00000  Uiso   1.00
C454   C     0.21605   0.88950   0.15552   0.00000  Uiso   1.00
H455   H     0.23483   0.85827   0.16919   0.00000  Uiso   1.00
H456   H     0.24008   0.91771   0.17339   0.00000  Uiso   1.00
C457   C     0.21741   0.89340   0.10250   0.00000  Uiso   1.00
H458   H     0.20066   0.92540   0.08881   0.00000  Uiso   1.00
H459   H     0.25837   0.89241   0.09605   0.00000  Uiso   1.00
H460   H     0.19435   0.86557   0.08330   0.00000  Uiso   1.00
I461   I     0.23878   0.62652   0.16599   0.00000  Uiso   1.00
I462   I     0.10558   0.88068   0.33885   0.00000  Uiso   1.00
O463   O     0.23125   0.52642   0.19278   0.00000  Uiso   1.00
C464   C     0.27743   0.51021   0.21958   0.00000  Uiso   1.00
H465   H     0.26867   0.98001   0.24001   0.00000  Uiso   1.00
H466   H     0.29808   0.53564   0.24462   0.00000  Uiso   1.00
C467   C     0.31368   0.99779   0.18543   0.00000  Uiso   1.00
H468   H     0.33045   0.52838   0.17098   0.00000  Uiso   1.00
H469   H     0.29217   0.97824   0.15521   0.00000  Uiso   1.00
H470   H     0.01213   0.97740   0.20442   0.00000  Uiso   1.00
O471   O     0.18271   0.96664   0.33917   0.00000  Uiso   1.00
C472   C     0.23747   0.97244   0.34910   0.00000  Uiso   1.00
H473   H     0.25058   0.99986   0.32704   0.00000  Uiso   1.00
H474   H     0.25737   0.94142   0.34250   0.00000  Uiso   1.00
C475   C     0.25359   0.98476   0.40124   0.00000  Uiso   1.00
H476   H     0.24114   0.95797   0.42444   0.00000  Uiso   1.00
H477   H     0.29668   0.98957   0.40960   0.00000  Uiso   1.00
H478   H     0.23501   0.51601   0.40863   0.00000  Uiso   1.00
O479   O     0.08329   0.71351   0.01599   0.00000  Uiso   1.00
C480   C     0.05255   0.74618   0.49023   0.00000  Uiso   1.00
H481   H     0.07163   0.76055   0.46118   0.00000  Uiso   1.00
H482   H     0.04496   0.77350   0.01376   0.00000  Uiso   1.00
C483   C     0.00103   0.72435   0.46729   0.00000  Uiso   1.00
H484   H     0.31515   0.70707   0.49479   0.00000  Uiso   1.00
H485   H     0.30795   0.74980   0.44948   0.00000  Uiso   1.00
H486   H     0.00804   0.69980   0.44041   0.00000  Uiso   1.00
O487   O     0.18716   0.82906   0.47186   0.00000  Uiso   1.00
C488   C     0.13789   0.84690   0.47387   0.00000  Uiso   1.00
H489   H     0.12408   0.83519   0.00699   0.00000  Uiso   1.00
H490   H     0.10752   0.83774   0.44267   0.00000  Uiso   1.00
C491   C     0.14338   0.89729   0.47489   0.00000  Uiso   1.00
H492   H     0.15624   0.90983   0.44173   0.00000  Uiso   1.00
H493   H     0.17284   0.90813   0.00561   0.00000  Uiso   1.00
H494   H     0.10528   0.91176   0.47790   0.00000  Uiso   1.00
O495   O     0.08401   0.71259   0.11359   0.00000  Uiso   1.00
C496   C     0.08610   0.66583   0.11241   0.00000  Uiso   1.00
H497   H     0.12603   0.65388   0.12570   0.00000  Uiso   1.00
H498   H     0.07316   0.65349   0.07557   0.00000  Uiso   1.00
C499   C     0.04941   0.64571   0.14391   0.00000  Uiso   1.00
H500   H     0.00903   0.65637   0.13082   0.00000  Uiso   1.00
H501   H     0.05020   0.60893   0.14297   0.00000  Uiso   1.00
H502   H     0.06148   0.65678   0.18130   0.00000  Uiso   1.00
O503   O     0.20231   0.82423   0.37915   0.00000  Uiso   1.00
C504   C     0.25582   0.81992   0.37622   0.00000  Uiso   1.00
H505   H     0.26199   0.83109   0.34017   0.00000  Uiso   1.00
H506   H     0.26991   0.78534   0.38088   0.00000  Uiso   1.00
C507   C     0.28946   0.84999   0.41231   0.00000  Uiso   1.00
H508   H     0.28587   0.83923   0.44898   0.00000  Uiso   1.00
H509   H     0.33105   0.84837   0.40785   0.00000  Uiso   1.00
H510   H     0.27694   0.88476   0.40699   0.00000  Uiso   1.00
I511   I     0.28217   0.79580   0.04460   0.00000  Uiso   1.00
I512   I     0.15237   0.64568   0.47791   0.00000  Uiso   1.00
C513   C     0.50522   0.66443   0.25108   0.00000  Uiso   1.00
C514   C     0.49643   0.83595   0.24909   0.00000  Uiso   1.00
C515   C     0.45878   0.73292   0.04558   0.00000  Uiso   1.00
C516   C     0.51345   0.78851   0.44915   0.00000  Uiso   1.00
C517   C     0.45939   0.73113   0.09553   0.00000  Uiso   1.00
C518   C     0.51691   0.78698   0.40025   0.00000  Uiso   1.00
C519   C     0.54182   0.76833   0.10959   0.00000  Uiso   1.00
C520   C     0.48839   0.71187   0.39662   0.00000  Uiso   1.00
C521   C     0.54490   0.76828   0.06087   0.00000  Uiso   1.00
C522   C     0.49325   0.70975   0.44682   0.00000  Uiso   1.00
C523   C     0.50328   0.74982   0.02736   0.00000  Uiso   1.00
C524   C     0.50470   0.74897   0.47426   0.00000  Uiso   1.00
C525   C     0.40027   0.74983   0.23738   0.00000  Uiso   1.00
C526   C     0.59973   0.75008   0.26262   0.00000  Uiso   1.00
C527   C     0.34509   0.74965   0.23075   0.00000  Uiso   1.00
C528   C     0.65489   0.75009   0.26924   0.00000  Uiso   1.00
C529   C     0.48775   0.54953   0.28874   0.00000  Uiso   1.00
C530   C     0.49085   0.95462   0.20687   0.00000  Uiso   1.00
C531   C     0.50179   0.59381   0.29368   0.00000  Uiso   1.00
C532   C     0.49399   0.90861   0.20573   0.00000  Uiso   1.00
C533   C     0.51358   0.61711   0.25377   0.00000  Uiso   1.00
C534   C     0.49092   0.88383   0.24754   0.00000  Uiso   1.00
C535   C     0.53456   0.59415   0.21899   0.00000  Uiso   1.00
C536   C     0.48567   0.90609   0.28921   0.00000  Uiso   1.00
C537   C     0.53681   0.54805   0.22258   0.00000  Uiso   1.00
C538   C     0.50195   0.95005   0.29363   0.00000  Uiso   1.00
C539   C     0.50798   0.52491   0.25415   0.00000  Uiso   1.00
C540   C     0.50067   0.97617   0.25167   0.00000  Uiso   1.00
H541   H     0.65732   0.74915   0.19439   0.00000  Uiso   1.00
H542   H     0.34266   0.75055   0.30560   0.00000  Uiso   1.00
H543   H     0.57364   0.78269   0.13461   0.00000  Uiso   1.00
H544   H     0.47750   0.68219   0.37606   0.00000  Uiso   1.00
N545   N     0.50000   0.74999   0.12624   0.00000  Uiso   1.00
N546   N     0.50000   0.75001   0.37377   0.00000  Uiso   1.00
O547   O     0.50000   0.68453   0.28974   0.00000  Uiso   1.00
O548   O     0.50000   0.81546   0.21026   0.00000  Uiso   1.00
O549   O     0.50000   0.68453   0.21026   0.00000  Uiso   1.00
O550   O     0.50000   0.81547   0.28974   0.00000  Uiso   1.00
O551   O     0.42392   0.75000   0.28045   0.00000  Uiso   1.00
O552   O     0.57608   0.75000   0.21956   0.00000  Uiso   1.00
O553   O     0.42392   0.74999   0.20097   0.00000  Uiso   1.00
O554   O     0.57608   0.75000   0.29904   0.00000  Uiso   1.00
Zn555  Zn    0.50000   0.75000   0.30307   0.00000  Uiso   1.00
Zn556  Zn    0.50000   0.74999   0.19693   0.00000  Uiso   1.00
O557   O     0.45969   0.53093   0.32159   0.00000  Uiso   1.00
C558   C     0.40757   0.52342   0.29948   0.00000  Uiso   1.00
H559   H     0.40523   0.99819   0.27103   0.00000  Uiso   1.00
H560   H     0.38995   0.55472   0.28405   0.00000  Uiso   1.00
C561   C     0.37609   0.50568   0.33652   0.00000  Uiso   1.00
H562   H     0.39578   0.97714   0.35603   0.00000  Uiso   1.00
H563   H     0.33696   0.99423   0.31858   0.00000  Uiso   1.00
H564   H     0.37186   0.53210   0.36236   0.00000  Uiso   1.00
O565   O     0.48524   0.97764   0.16403   0.00000  Uiso   1.00
C566   C     0.43385   0.99264   0.15297   0.00000  Uiso   1.00
H567   H     0.42436   0.51421   0.18165   0.00000  Uiso   1.00
H568   H     0.40553   0.96392   0.14721   0.00000  Uiso   1.00
C569   C     0.42861   0.52009   0.10731   0.00000  Uiso   1.00
H570   H     0.43791   0.99973   0.07770   0.00000  Uiso   1.00
H571   H     0.38800   0.53162   0.09779   0.00000  Uiso   1.00
H572   H     0.45580   0.54949   0.11240   0.00000  Uiso   1.00
O573   O     0.51254   0.61154   0.33908   0.00000  Uiso   1.00
C574   C     0.56775   0.61267   0.35288   0.00000  Uiso   1.00
H575   H     0.58492   0.58031   0.34622   0.00000  Uiso   1.00
H576   H     0.58604   0.63925   0.33302   0.00000  Uiso   1.00
C577   C     0.58283   0.62200   0.40574   0.00000  Uiso   1.00
H578   H     0.56301   0.59748   0.42664   0.00000  Uiso   1.00
H579   H     0.62572   0.61923   0.41645   0.00000  Uiso   1.00
H580   H     0.57235   0.65614   0.41354   0.00000  Uiso   1.00
O581   O     0.49673   0.88840   0.16288   0.00000  Uiso   1.00
C582   C     0.54939   0.88950   0.15552   0.00000  Uiso   1.00
H583   H     0.56816   0.85827   0.16919   0.00000  Uiso   1.00
H584   H     0.57341   0.91771   0.17339   0.00000  Uiso   1.00
C585   C     0.55074   0.89340   0.10250   0.00000  Uiso   1.00
H586   H     0.53400   0.92540   0.08881   0.00000  Uiso   1.00
H587   H     0.59170   0.89241   0.09605   0.00000  Uiso   1.00
H588   H     0.52768   0.86557   0.08330   0.00000  Uiso   1.00
I589   I     0.57212   0.62652   0.16599   0.00000  Uiso   1.00
I590   I     0.43892   0.88068   0.33885   0.00000  Uiso   1.00
O591   O     0.56459   0.52642   0.19278   0.00000  Uiso   1.00
C592   C     0.61076   0.51021   0.21958   0.00000  Uiso   1.00
H593   H     0.60200   0.98001   0.24001   0.00000  Uiso   1.00
H594   H     0.63142   0.53564   0.24462   0.00000  Uiso   1.00
C595   C     0.64701   0.99779   0.18543   0.00000  Uiso   1.00
H596   H     0.66378   0.52838   0.17098   0.00000  Uiso   1.00
H597   H     0.62550   0.97824   0.15521   0.00000  Uiso   1.00
H598   H     0.34546   0.97740   0.20442   0.00000  Uiso   1.00
O599   O     0.51604   0.96664   0.33917   0.00000  Uiso   1.00
C600   C     0.57081   0.97244   0.34910   0.00000  Uiso   1.00
H601   H     0.58391   0.99986   0.32704   0.00000  Uiso   1.00
H602   H     0.59070   0.94142   0.34250   0.00000  Uiso   1.00
C603   C     0.58692   0.98476   0.40124   0.00000  Uiso   1.00
H604   H     0.57447   0.95797   0.42444   0.00000  Uiso   1.00
H605   H     0.63002   0.98957   0.40960   0.00000  Uiso   1.00
H606   H     0.56834   0.51601   0.40863   0.00000  Uiso   1.00
O607   O     0.41662   0.71351   0.01599   0.00000  Uiso   1.00
C608   C     0.38589   0.74618   0.49023   0.00000  Uiso   1.00
H609   H     0.40496   0.76055   0.46118   0.00000  Uiso   1.00
H610   H     0.37830   0.77350   0.01376   0.00000  Uiso   1.00
C611   C     0.33436   0.72435   0.46729   0.00000  Uiso   1.00
H612   H     0.64849   0.70707   0.49479   0.00000  Uiso   1.00
H613   H     0.64128   0.74980   0.44948   0.00000  Uiso   1.00
H614   H     0.34137   0.69980   0.44041   0.00000  Uiso   1.00
O615   O     0.52049   0.82906   0.47186   0.00000  Uiso   1.00
C616   C     0.47122   0.84690   0.47387   0.00000  Uiso   1.00
H617   H     0.45741   0.83519   0.00699   0.00000  Uiso   1.00
H618   H     0.44085   0.83774   0.44267   0.00000  Uiso   1.00
C619   C     0.47671   0.89729   0.47489   0.00000  Uiso   1.00
H620   H     0.48957   0.90983   0.44173   0.00000  Uiso   1.00
H621   H     0.50617   0.90813   0.00561   0.00000  Uiso   1.00
H622   H     0.43861   0.91176   0.47790   0.00000  Uiso   1.00
O623   O     0.41734   0.71259   0.11359   0.00000  Uiso   1.00
C624   C     0.41944   0.66583   0.11241   0.00000  Uiso   1.00
H625   H     0.45936   0.65388   0.12570   0.00000  Uiso   1.00
H626   H     0.40649   0.65349   0.07557   0.00000  Uiso   1.00
C627   C     0.38274   0.64571   0.14391   0.00000  Uiso   1.00
H628   H     0.34237   0.65637   0.13082   0.00000  Uiso   1.00
H629   H     0.38353   0.60893   0.14297   0.00000  Uiso   1.00
H630   H     0.39482   0.65678   0.18130   0.00000  Uiso   1.00
O631   O     0.53564   0.82423   0.37915   0.00000  Uiso   1.00
C632   C     0.58916   0.81992   0.37622   0.00000  Uiso   1.00
H633   H     0.59532   0.83109   0.34017   0.00000  Uiso   1.00
H634   H     0.60325   0.78534   0.38088   0.00000  Uiso   1.00
C635   C     0.62279   0.84999   0.41231   0.00000  Uiso   1.00
H636   H     0.61921   0.83923   0.44898   0.00000  Uiso   1.00
H637   H     0.66438   0.84837   0.40785   0.00000  Uiso   1.00
H638   H     0.61027   0.88476   0.40699   0.00000  Uiso   1.00
I639   I     0.61550   0.79580   0.04460   0.00000  Uiso   1.00
I640   I     0.48571   0.64568   0.47791   0.00000  Uiso   1.00
C641   C     0.83855   0.66443   0.25108   0.00000  Uiso   1.00
C642   C     0.82976   0.83595   0.24909   0.00000  Uiso   1.00
C643   C     0.79211   0.73292   0.04558   0.00000  Uiso   1.00
C644   C     0.84678   0.78851   0.44915   0.00000  Uiso   1.00
C645   C     0.79272   0.73113   0.09553   0.00000  Uiso   1.00
C646   C     0.85024   0.78698   0.40025   0.00000  Uiso   1.00
C647   C     0.87515   0.76833   0.10959   0.00000  Uiso   1.00
C648   C     0.82173   0.71187   0.39662   0.00000  Uiso   1.00
C649   C     0.87823   0.76828   0.06087   0.00000  Uiso   1.00
C650   C     0.82658   0.70975   0.44682   0.00000  Uiso   1.00
C651   C     0.83661   0.74982   0.02736   0.00000  Uiso   1.00
C652   C     0.83803   0.74897   0.47426   0.00000  Uiso   1.00
C653   C     0.73360   0.74983   0.23738   0.00000  Uiso   1.00
C654   C     0.93306   0.75008   0.26262   0.00000  Uiso   1.00
C655   C     0.67842   0.74965   0.23075   0.00000  Uiso   1.00
C656   C     0.98822   0.75009   0.26924   0.00000  Uiso   1.00
C657   C     0.82108   0.54953   0.28874   0.00000  Uiso   1.00
C658   C     0.82418   0.95462   0.20687   0.00000  Uiso   1.00
C659   C     0.83512   0.59381   0.29368   0.00000  Uiso   1.00
C660   C     0.82733   0.90861   0.20573   0.00000  Uiso   1.00
C661   C     0.84691   0.61711   0.25377   0.00000  Uiso   1.00
C662   C     0.82425   0.88383   0.24754   0.00000  Uiso   1.00
C663   C     0.86789   0.59415   0.21899   0.00000  Uiso   1.00
C664   C     0.81900   0.90609   0.28921   0.00000  Uiso   1.00
C665   C     0.87014   0.54805   0.22258   0.00000  Uiso   1.00
C666   C     0.83528   0.95005   0.29363   0.00000  Uiso   1.00
C667   C     0.84132   0.52491   0.25415   0.00000  Uiso   1.00
C668   C     0.83400   0.97617   0.25167   0.00000  Uiso   1.00
H669   H     0.99066   0.74915   0.19439   0.00000  Uiso   1.00
H670   H     0.67599   0.75055   0.30560   0.00000  Uiso   1.00
H671   H     0.90698   0.78269   0.13461   0.00000  Uiso   1.00
H672   H     0.81084   0.68219   0.37606   0.00000  Uiso   1.00
N673   N     0.83333   0.74999   0.12624   0.00000  Uiso   1.00
N674   N     0.83333   0.75001   0.37377   0.00000  Uiso   1.00
O675   O     0.83334   0.68453   0.28974   0.00000  Uiso   1.00
O676   O     0.83333   0.81546   0.21026   0.00000  Uiso   1.00
O677   O     0.83334   0.68453   0.21026   0.00000  Uiso   1.00
O678   O     0.83333   0.81547   0.28974   0.00000  Uiso   1.00
O679   O     0.75725   0.75000   0.28045   0.00000  Uiso   1.00
O680   O     0.90942   0.75000   0.21956   0.00000  Uiso   1.00
O681   O     0.75725   0.74999   0.20097   0.00000  Uiso   1.00
O682   O     0.90942   0.75000   0.29904   0.00000  Uiso   1.00
Zn683  Zn    0.83333   0.75000   0.30307   0.00000  Uiso   1.00
Zn684  Zn    0.83333   0.74999   0.19693   0.00000  Uiso   1.00
O685   O     0.79302   0.53093   0.32159   0.00000  Uiso   1.00
C686   C     0.74091   0.52342   0.29948   0.00000  Uiso   1.00
H687   H     0.73856   0.99819   0.27103   0.00000  Uiso   1.00
H688   H     0.72328   0.55472   0.28405   0.00000  Uiso   1.00
C689   C     0.70943   0.50568   0.33652   0.00000  Uiso   1.00
H690   H     0.72912   0.97714   0.35603   0.00000  Uiso   1.00
H691   H     0.67029   0.99423   0.31858   0.00000  Uiso   1.00
H692   H     0.70519   0.53210   0.36236   0.00000  Uiso   1.00
O693   O     0.81857   0.97764   0.16403   0.00000  Uiso   1.00
C694   C     0.76718   0.99264   0.15297   0.00000  Uiso   1.00
H695   H     0.75770   0.51421   0.18165   0.00000  Uiso   1.00
H696   H     0.73886   0.96392   0.14721   0.00000  Uiso   1.00
C697   C     0.76194   0.52009   0.10731   0.00000  Uiso   1.00
H698   H     0.77124   0.99973   0.07770   0.00000  Uiso   1.00
H699   H     0.72133   0.53162   0.09779   0.00000  Uiso   1.00
H700   H     0.78913   0.54949   0.11240   0.00000  Uiso   1.00
O701   O     0.84587   0.61154   0.33908   0.00000  Uiso   1.00
C702   C     0.90109   0.61267   0.35288   0.00000  Uiso   1.00
H703   H     0.91826   0.58031   0.34622   0.00000  Uiso   1.00
H704   H     0.91937   0.63925   0.33302   0.00000  Uiso   1.00
C705   C     0.91617   0.62200   0.40574   0.00000  Uiso   1.00
H706   H     0.89635   0.59748   0.42664   0.00000  Uiso   1.00
H707   H     0.95905   0.61923   0.41645   0.00000  Uiso   1.00
H708   H     0.90568   0.65614   0.41354   0.00000  Uiso   1.00
O709   O     0.83006   0.88840   0.16288   0.00000  Uiso   1.00
C710   C     0.88272   0.88950   0.15552   0.00000  Uiso   1.00
H711   H     0.90150   0.85827   0.16919   0.00000  Uiso   1.00
H712   H     0.90675   0.91771   0.17339   0.00000  Uiso   1.00
C713   C     0.88408   0.89340   0.10250   0.00000  Uiso   1.00
H714   H     0.86733   0.92540   0.08881   0.00000  Uiso   1.00
H715   H     0.92503   0.89241   0.09605   0.00000  Uiso   1.00
H716   H     0.86101   0.86557   0.08330   0.00000  Uiso   1.00
I717   I     0.90545   0.62652   0.16599   0.00000  Uiso   1.00
I718   I     0.77225   0.88068   0.33885   0.00000  Uiso   1.00
O719   O     0.89792   0.52642   0.19278   0.00000  Uiso   1.00
C720   C     0.94409   0.51021   0.21958   0.00000  Uiso   1.00
H721   H     0.93534   0.98001   0.24001   0.00000  Uiso   1.00
H722   H     0.96475   0.53564   0.24462   0.00000  Uiso   1.00
C723   C     0.98035   0.99779   0.18543   0.00000  Uiso   1.00
H724   H     0.99711   0.52838   0.17098   0.00000  Uiso   1.00
H725   H     0.95884   0.97824   0.15521   0.00000  Uiso   1.00
H726   H     0.67880   0.97740   0.20442   0.00000  Uiso   1.00
O727   O     0.84937   0.96664   0.33917   0.00000  Uiso   1.00
C728   C     0.90414   0.97244   0.34910   0.00000  Uiso   1.00
H729   H     0.91724   0.99986   0.32704   0.00000  Uiso   1.00
H730   H     0.92404   0.94142   0.34250   0.00000  Uiso   1.00
C731   C     0.92025   0.98476   0.40124   0.00000  Uiso   1.00
H732   H     0.90781   0.95797   0.42444   0.00000  Uiso   1.00
H733   H     0.96335   0.98957   0.40960   0.00000  Uiso   1.00
H734   H     0.90167   0.51601   0.40863   0.00000  Uiso   1.00
O735   O     0.74996   0.71351   0.01599   0.00000  Uiso   1.00
C736   C     0.71922   0.74618   0.49023   0.00000  Uiso   1.00
H737   H     0.73829   0.76055   0.46118   0.00000  Uiso   1.00
H738   H     0.71163   0.77350   0.01376   0.00000  Uiso   1.00
C739   C     0.66769   0.72435   0.46729   0.00000  Uiso   1.00
H740   H     0.98182   0.70707   0.49479   0.00000  Uiso   1.00
H741   H     0.97462   0.74980   0.44948   0.00000  Uiso   1.00
H742   H     0.67470   0.69980   0.44041   0.00000  Uiso   1.00
O743   O     0.85383   0.82906   0.47186   0.00000  Uiso   1.00
C744   C     0.80456   0.84690   0.47387   0.00000  Uiso   1.00
H745   H     0.79074   0.83519   0.00699   0.00000  Uiso   1.00
H746   H     0.77418   0.83774   0.44267   0.00000  Uiso   1.00
C747   C     0.81005   0.89729   0.47489   0.00000  Uiso   1.00
H748   H     0.82291   0.90983   0.44173   0.00000  Uiso   1.00
H749   H     0.83950   0.90813   0.00561   0.00000  Uiso   1.00
H750   H     0.77195   0.91176   0.47790   0.00000  Uiso   1.00
O751   O     0.75068   0.71259   0.11359   0.00000  Uiso   1.00
C752   C     0.75277   0.66583   0.11241   0.00000  Uiso   1.00
H753   H     0.79269   0.65388   0.12570   0.00000  Uiso   1.00
H754   H     0.73983   0.65349   0.07557   0.00000  Uiso   1.00
C755   C     0.71607   0.64571   0.14391   0.00000  Uiso   1.00
H756   H     0.67570   0.65637   0.13082   0.00000  Uiso   1.00
H757   H     0.71687   0.60893   0.14297   0.00000  Uiso   1.00
H758   H     0.72815   0.65678   0.18130   0.00000  Uiso   1.00
O759   O     0.86898   0.82423   0.37915   0.00000  Uiso   1.00
C760   C     0.92249   0.81992   0.37622   0.00000  Uiso   1.00
H761   H     0.92865   0.83109   0.34017   0.00000  Uiso   1.00
H762   H     0.93658   0.78534   0.38088   0.00000  Uiso   1.00
C763   C     0.95613   0.84999   0.41231   0.00000  Uiso   1.00
H764   H     0.95254   0.83923   0.44898   0.00000  Uiso   1.00
H765   H     0.99771   0.84837   0.40785   0.00000  Uiso   1.00
H766   H     0.94360   0.88476   0.40699   0.00000  Uiso   1.00
I767   I     0.94883   0.79580   0.04460   0.00000  Uiso   1.00
I768   I     0.81904   0.64568   0.47791   0.00000  Uiso   1.00
C769   C     0.17188   0.16443   0.75108   0.00000  Uiso   1.00
C770   C     0.16309   0.33595   0.74909   0.00000  Uiso   1.00
C771   C     0.12545   0.23292   0.54558   0.00000  Uiso   1.00
C772   C     0.18012   0.28851   0.94915   0.00000  Uiso   1.00
C773   C     0.12605   0.23113   0.59553   0.00000  Uiso   1.00
C774   C     0.18358   0.28698   0.90025   0.00000  Uiso   1.00
C775   C     0.20848   0.26833   0.60959   0.00000  Uiso   1.00
C776   C     0.15506   0.21187   0.89662   0.00000  Uiso   1.00
C777   C     0.21156   0.26828   0.56087   0.00000  Uiso   1.00
C778   C     0.15991   0.20975   0.94682   0.00000  Uiso   1.00
C779   C     0.16994   0.24982   0.52736   0.00000  Uiso   1.00
C780   C     0.17137   0.24897   0.97426   0.00000  Uiso   1.00
C781   C     0.06693   0.24983   0.73738   0.00000  Uiso   1.00
C782   C     0.26639   0.25008   0.76262   0.00000  Uiso   1.00
C783   C     0.01176   0.24965   0.73075   0.00000  Uiso   1.00
C784   C     0.32156   0.25009   0.76924   0.00000  Uiso   1.00
C785   C     0.15442   0.04953   0.78874   0.00000  Uiso   1.00
C786   C     0.15752   0.45462   0.70687   0.00000  Uiso   1.00
C787   C     0.16845   0.09381   0.79368   0.00000  Uiso   1.00
C788   C     0.16066   0.40861   0.70573   0.00000  Uiso   1.00
C789   C     0.18024   0.11711   0.75377   0.00000  Uiso   1.00
C790   C     0.15758   0.38383   0.74754   0.00000  Uiso   1.00
C791   C     0.20123   0.09415   0.71899   0.00000  Uiso   1.00
C792   C     0.15234   0.40609   0.78921   0.00000  Uiso   1.00
C793   C     0.20347   0.04805   0.72258   0.00000  Uiso   1.00
C794   C     0.16862   0.45005   0.79363   0.00000  Uiso   1.00
C795   C     0.17465   0.02491   0.75415   0.00000  Uiso   1.00
C796   C     0.16733   0.47617   0.75167   0.00000  Uiso   1.00
H797   H     0.32399   0.24915   0.69439   0.00000  Uiso   1.00
H798   H     0.00933   0.25055   0.80560   0.00000  Uiso   1.00
H799   H     0.24031   0.28269   0.63461   0.00000  Uiso   1.00
H800   H     0.14417   0.18219   0.87606   0.00000  Uiso   1.00
N801   N     0.16667   0.24999   0.62624   0.00000  Uiso   1.00
N802   N     0.16667   0.25001   0.87377   0.00000  Uiso   1.00
O803   O     0.16667   0.18453   0.78974   0.00000  Uiso   1.00
O804   O     0.16666   0.31546   0.71026   0.00000  Uiso   1.00
O805   O     0.16667   0.18453   0.71026   0.00000  Uiso   1.00
O806   O     0.16666   0.31547   0.78974   0.00000  Uiso   1.00
O807   O     0.09058   0.25000   0.78045   0.00000  Uiso   1.00
O808   O     0.24275   0.25000   0.71956   0.00000  Uiso   1.00
O809   O     0.09058   0.24999   0.70097   0.00000  Uiso   1.00
O810   O     0.24275   0.25000   0.79904   0.00000  Uiso   1.00
Zn811  Zn    0.16667   0.25000   0.80307   0.00000  Uiso   1.00
Zn812  Zn    0.16667   0.24999   0.69693   0.00000  Uiso   1.00
O813   O     0.12635   0.03093   0.82159   0.00000  Uiso   1.00
C814   C     0.07424   0.02342   0.79948   0.00000  Uiso   1.00
H815   H     0.07189   0.49819   0.77103   0.00000  Uiso   1.00
H816   H     0.05661   0.05472   0.78405   0.00000  Uiso   1.00
C817   C     0.04276   0.00568   0.83652   0.00000  Uiso   1.00
H818   H     0.06245   0.47714   0.85603   0.00000  Uiso   1.00
H819   H     0.00363   0.49423   0.81858   0.00000  Uiso   1.00
H820   H     0.03852   0.03210   0.86236   0.00000  Uiso   1.00
O821   O     0.15191   0.47764   0.66403   0.00000  Uiso   1.00
C822   C     0.10052   0.49264   0.65297   0.00000  Uiso   1.00
H823   H     0.09103   0.01421   0.68165   0.00000  Uiso   1.00
H824   H     0.07220   0.46392   0.64721   0.00000  Uiso   1.00
C825   C     0.09527   0.02009   0.60731   0.00000  Uiso   1.00
H826   H     0.10457   0.49973   0.57770   0.00000  Uiso   1.00
H827   H     0.05466   0.03162   0.59779   0.00000  Uiso   1.00
H828   H     0.12247   0.04949   0.61240   0.00000  Uiso   1.00
O829   O     0.17920   0.11154   0.83908   0.00000  Uiso   1.00
C830   C     0.23442   0.11267   0.85288   0.00000  Uiso   1.00
H831   H     0.25159   0.08031   0.84622   0.00000  Uiso   1.00
H832   H     0.25270   0.13925   0.83302   0.00000  Uiso   1.00
C833   C     0.24950   0.12200   0.90574   0.00000  Uiso   1.00
H834   H     0.22968   0.09748   0.92664   0.00000  Uiso   1.00
H835   H     0.29239   0.11923   0.91645   0.00000  Uiso   1.00
H836   H     0.23901   0.15614   0.91354   0.00000  Uiso   1.00
O837   O     0.16339   0.38840   0.66288   0.00000  Uiso   1.00
C838   C     0.21605   0.38950   0.65552   0.00000  Uiso   1.00
H839   H     0.23483   0.35827   0.66919   0.00000  Uiso   1.00
H840   H     0.24008   0.41771   0.67339   0.00000  Uiso   1.00
C841   C     0.21741   0.39340   0.60250   0.00000  Uiso   1.00
H842   H     0.20066   0.42540   0.58881   0.00000  Uiso   1.00
H843   H     0.25837   0.39241   0.59605   0.00000  Uiso   1.00
H844   H     0.19435   0.36557   0.58330   0.00000  Uiso   1.00
I845   I     0.23878   0.12652   0.66599   0.00000  Uiso   1.00
I846   I     0.10558   0.38068   0.83885   0.00000  Uiso   1.00
O847   O     0.23125   0.02642   0.69278   0.00000  Uiso   1.00
C848   C     0.27743   0.01021   0.71958   0.00000  Uiso   1.00
H849   H     0.26867   0.48001   0.74001   0.00000  Uiso   1.00
H850   H     0.29808   0.03564   0.74462   0.00000  Uiso   1.00
C851   C     0.31368   0.49779   0.68543   0.00000  Uiso   1.00
H852   H     0.33045   0.02838   0.67098   0.00000  Uiso   1.00
H853   H     0.29217   0.47824   0.65521   0.00000  Uiso   1.00
H854   H     0.01213   0.47740   0.70442   0.00000  Uiso   1.00
O855   O     0.18271   0.46664   0.83917   0.00000  Uiso   1.00
C856   C     0.23747   0.47244   0.84910   0.00000  Uiso   1.00
H857   H     0.25058   0.49986   0.82704   0.00000  Uiso   1.00
H858   H     0.25737   0.44142   0.84250   0.00000  Uiso   1.00
C859   C     0.25359   0.48476   0.90124   0.00000  Uiso   1.00
H860   H     0.24114   0.45797   0.92444   0.00000  Uiso   1.00
H861   H     0.29668   0.48957   0.90960   0.00000  Uiso   1.00
H862   H     0.23501   0.01601   0.90863   0.00000  Uiso   1.00
O863   O     0.08329   0.21351   0.51599   0.00000  Uiso   1.00
C864   C     0.05255   0.24618   0.99023   0.00000  Uiso   1.00
H865   H     0.07163   0.26055   0.96118   0.00000  Uiso   1.00
H866   H     0.04496   0.27350   0.51376   0.00000  Uiso   1.00
C867   C     0.00103   0.22435   0.96729   0.00000  Uiso   1.00
H868   H     0.31515   0.20707   0.99479   0.00000  Uiso   1.00
H869   H     0.30795   0.24980   0.94948   0.00000  Uiso   1.00
H870   H     0.00804   0.19980   0.94041   0.00000  Uiso   1.00
O871   O     0.18716   0.32906   0.97186   0.00000  Uiso   1.00
C872   C     0.13789   0.34690   0.97387   0.00000  Uiso   1.00
H873   H     0.12408   0.33519   0.50699   0.00000  Uiso   1.00
H874   H     0.10752   0.33774   0.94267   0.00000  Uiso   1.00
C875   C     0.14338   0.39729   0.97489   0.00000  Uiso   1.00
H876   H     0.15624   0.40983   0.94173   0.00000  Uiso   1.00
H877   H     0.17284   0.40813   0.50561   0.00000  Uiso   1.00
H878   H     0.10528   0.41176   0.97790   0.00000  Uiso   1.00
O879   O     0.08401   0.21259   0.61359   0.00000  Uiso   1.00
C880   C     0.08610   0.16583   0.61241   0.00000  Uiso   1.00
H881   H     0.12603   0.15388   0.62570   0.00000  Uiso   1.00
H882   H     0.07316   0.15349   0.57557   0.00000  Uiso   1.00
C883   C     0.04941   0.14571   0.64391   0.00000  Uiso   1.00
H884   H     0.00903   0.15637   0.63082   0.00000  Uiso   1.00
H885   H     0.05020   0.10893   0.64297   0.00000  Uiso   1.00
H886   H     0.06148   0.15678   0.68130   0.00000  Uiso   1.00
O887   O     0.20231   0.32423   0.87915   0.00000  Uiso   1.00
C888   C     0.25582   0.31992   0.87622   0.00000  Uiso   1.00
H889   H     0.26199   0.33109   0.84017   0.00000  Uiso   1.00
H890   H     0.26991   0.28534   0.88088   0.00000  Uiso   1.00
C891   C     0.28946   0.34999   0.91231   0.00000  Uiso   1.00
H892   H     0.28587   0.33923   0.94898   0.00000  Uiso   1.00
H893   H     0.33105   0.34837   0.90785   0.00000  Uiso   1.00
H894   H     0.27694   0.38476   0.90699   0.00000  Uiso   1.00
I895   I     0.28217   0.29580   0.54460   0.00000  Uiso   1.00
I896   I     0.15237   0.14568   0.97791   0.00000  Uiso   1.00
C897   C     0.50522   0.16443   0.75108   0.00000  Uiso   1.00
C898   C     0.49643   0.33595   0.74909   0.00000  Uiso   1.00
C899   C     0.45878   0.23292   0.54558   0.00000  Uiso   1.00
C900   C     0.51345   0.28851   0.94915   0.00000  Uiso   1.00
C901   C     0.45939   0.23113   0.59553   0.00000  Uiso   1.00
C902   C     0.51691   0.28698   0.90025   0.00000  Uiso   1.00
C903   C     0.54182   0.26833   0.60959   0.00000  Uiso   1.00
C904   C     0.48839   0.21187   0.89662   0.00000  Uiso   1.00
C905   C     0.54490   0.26828   0.56087   0.00000  Uiso   1.00
C906   C     0.49325   0.20975   0.94682   0.00000  Uiso   1.00
C907   C     0.50328   0.24982   0.52736   0.00000  Uiso   1.00
C908   C     0.50470   0.24897   0.97426   0.00000  Uiso   1.00
C909   C     0.40027   0.24983   0.73738   0.00000  Uiso   1.00
C910   C     0.59973   0.25008   0.76262   0.00000  Uiso   1.00
C911   C     0.34509   0.24965   0.73075   0.00000  Uiso   1.00
C912   C     0.65489   0.25009   0.76924   0.00000  Uiso   1.00
C913   C     0.48775   0.04953   0.78874   0.00000  Uiso   1.00
C914   C     0.49085   0.45462   0.70687   0.00000  Uiso   1.00
C915   C     0.50179   0.09381   0.79368   0.00000  Uiso   1.00
C916   C     0.49399   0.40861   0.70573   0.00000  Uiso   1.00
C917   C     0.51358   0.11711   0.75377   0.00000  Uiso   1.00
C918   C     0.49092   0.38383   0.74754   0.00000  Uiso   1.00
C919   C     0.53456   0.09415   0.71899   0.00000  Uiso   1.00
C920   C     0.48567   0.40609   0.78921   0.00000  Uiso   1.00
C921   C     0.53681   0.04805   0.72258   0.00000  Uiso   1.00
C922   C     0.50195   0.45005   0.79363   0.00000  Uiso   1.00
C923   C     0.50798   0.02491   0.75415   0.00000  Uiso   1.00
C924   C     0.50067   0.47617   0.75167   0.00000  Uiso   1.00
H925   H     0.65732   0.24915   0.69439   0.00000  Uiso   1.00
H926   H     0.34266   0.25055   0.80560   0.00000  Uiso   1.00
H927   H     0.57364   0.28269   0.63461   0.00000  Uiso   1.00
H928   H     0.47750   0.18219   0.87606   0.00000  Uiso   1.00
N929   N     0.50000   0.24999   0.62624   0.00000  Uiso   1.00
N930   N     0.50000   0.25001   0.87377   0.00000  Uiso   1.00
O931   O     0.50000   0.18453   0.78974   0.00000  Uiso   1.00
O932   O     0.50000   0.31546   0.71026   0.00000  Uiso   1.00
O933   O     0.50000   0.18453   0.71026   0.00000  Uiso   1.00
O934   O     0.50000   0.31547   0.78974   0.00000  Uiso   1.00
O935   O     0.42392   0.25000   0.78045   0.00000  Uiso   1.00
O936   O     0.57608   0.25000   0.71956   0.00000  Uiso   1.00
O937   O     0.42392   0.24999   0.70097   0.00000  Uiso   1.00
O938   O     0.57608   0.25000   0.79904   0.00000  Uiso   1.00
Zn939  Zn    0.50000   0.25000   0.80307   0.00000  Uiso   1.00
Zn940  Zn    0.50000   0.24999   0.69693   0.00000  Uiso   1.00
O941   O     0.45969   0.03093   0.82159   0.00000  Uiso   1.00
C942   C     0.40757   0.02342   0.79948   0.00000  Uiso   1.00
H943   H     0.40523   0.49819   0.77103   0.00000  Uiso   1.00
H944   H     0.38995   0.05472   0.78405   0.00000  Uiso   1.00
C945   C     0.37609   0.00568   0.83652   0.00000  Uiso   1.00
H946   H     0.39578   0.47714   0.85603   0.00000  Uiso   1.00
H947   H     0.33696   0.49423   0.81858   0.00000  Uiso   1.00
H948   H     0.37186   0.03210   0.86236   0.00000  Uiso   1.00
O949   O     0.48524   0.47764   0.66403   0.00000  Uiso   1.00
C950   C     0.43385   0.49264   0.65297   0.00000  Uiso   1.00
H951   H     0.42436   0.01421   0.68165   0.00000  Uiso   1.00
H952   H     0.40553   0.46392   0.64721   0.00000  Uiso   1.00
C953   C     0.42861   0.02009   0.60731   0.00000  Uiso   1.00
H954   H     0.43791   0.49973   0.57770   0.00000  Uiso   1.00
H955   H     0.38800   0.03162   0.59779   0.00000  Uiso   1.00
H956   H     0.45580   0.04949   0.61240   0.00000  Uiso   1.00
O957   O     0.51254   0.11154   0.83908   0.00000  Uiso   1.00
C958   C     0.56775   0.11267   0.85288   0.00000  Uiso   1.00
H959   H     0.58492   0.08031   0.84622   0.00000  Uiso   1.00
H960   H     0.58604   0.13925   0.83302   0.00000  Uiso   1.00
C961   C     0.58283   0.12200   0.90574   0.00000  Uiso   1.00
H962   H     0.56301   0.09748   0.92664   0.00000  Uiso   1.00
H963   H     0.62572   0.11923   0.91645   0.00000  Uiso   1.00
H964   H     0.57235   0.15614   0.91354   0.00000  Uiso   1.00
O965   O     0.49673   0.38840   0.66288   0.00000  Uiso   1.00
C966   C     0.54939   0.38950   0.65552   0.00000  Uiso   1.00
H967   H     0.56816   0.35827   0.66919   0.00000  Uiso   1.00
H968   H     0.57341   0.41771   0.67339   0.00000  Uiso   1.00
C969   C     0.55074   0.39340   0.60250   0.00000  Uiso   1.00
H970   H     0.53400   0.42540   0.58881   0.00000  Uiso   1.00
H971   H     0.59170   0.39241   0.59605   0.00000  Uiso   1.00
H972   H     0.52768   0.36557   0.58330   0.00000  Uiso   1.00
I973   I     0.57212   0.12652   0.66599   0.00000  Uiso   1.00
I974   I     0.43892   0.38068   0.83885   0.00000  Uiso   1.00
O975   O     0.56459   0.02642   0.69278   0.00000  Uiso   1.00
C976   C     0.61076   0.01021   0.71958   0.00000  Uiso   1.00
H977   H     0.60200   0.48001   0.74001   0.00000  Uiso   1.00
H978   H     0.63142   0.03564   0.74462   0.00000  Uiso   1.00
C979   C     0.64701   0.49779   0.68543   0.00000  Uiso   1.00
H980   H     0.66378   0.02838   0.67098   0.00000  Uiso   1.00
H981   H     0.62550   0.47824   0.65521   0.00000  Uiso   1.00
H982   H     0.34546   0.47740   0.70442   0.00000  Uiso   1.00
O983   O     0.51604   0.46664   0.83917   0.00000  Uiso   1.00
C984   C     0.57081   0.47244   0.84910   0.00000  Uiso   1.00
H985   H     0.58391   0.49986   0.82704   0.00000  Uiso   1.00
H986   H     0.59070   0.44142   0.84250   0.00000  Uiso   1.00
C987   C     0.58692   0.48476   0.90124   0.00000  Uiso   1.00
H988   H     0.57447   0.45797   0.92444   0.00000  Uiso   1.00
H989   H     0.63002   0.48957   0.90960   0.00000  Uiso   1.00
H990   H     0.56834   0.01601   0.90863   0.00000  Uiso   1.00
O991   O     0.41662   0.21351   0.51599   0.00000  Uiso   1.00
C992   C     0.38589   0.24618   0.99023   0.00000  Uiso   1.00
H993   H     0.40496   0.26055   0.96118   0.00000  Uiso   1.00
H994   H     0.37830   0.27350   0.51376   0.00000  Uiso   1.00
C995   C     0.33436   0.22435   0.96729   0.00000  Uiso   1.00
H996   H     0.64849   0.20707   0.99479   0.00000  Uiso   1.00
H997   H     0.64128   0.24980   0.94948   0.00000  Uiso   1.00
H998   H     0.34137   0.19980   0.94041   0.00000  Uiso   1.00
O999   O     0.52049   0.32906   0.97186   0.00000  Uiso   1.00
C1000  C     0.47122   0.34690   0.97387   0.00000  Uiso   1.00
H1001  H     0.45741   0.33519   0.50699   0.00000  Uiso   1.00
H1002  H     0.44085   0.33774   0.94267   0.00000  Uiso   1.00
C1003  C     0.47671   0.39729   0.97489   0.00000  Uiso   1.00
H1004  H     0.48957   0.40983   0.94173   0.00000  Uiso   1.00
H1005  H     0.50617   0.40813   0.50561   0.00000  Uiso   1.00
H1006  H     0.43861   0.41176   0.97790   0.00000  Uiso   1.00
O1007  O     0.41734   0.21259   0.61359   0.00000  Uiso   1.00
C1008  C     0.41944   0.16583   0.61241   0.00000  Uiso   1.00
H1009  H     0.45936   0.15388   0.62570   0.00000  Uiso   1.00
H1010  H     0.40649   0.15349   0.57557   0.00000  Uiso   1.00
C1011  C     0.38274   0.14571   0.64391   0.00000  Uiso   1.00
H1012  H     0.34237   0.15637   0.63082   0.00000  Uiso   1.00
H1013  H     0.38353   0.10893   0.64297   0.00000  Uiso   1.00
H1014  H     0.39482   0.15678   0.68130   0.00000  Uiso   1.00
O1015  O     0.53564   0.32423   0.87915   0.00000  Uiso   1.00
C1016  C     0.58916   0.31992   0.87622   0.00000  Uiso   1.00
H1017  H     0.59532   0.33109   0.84017   0.00000  Uiso   1.00
H1018  H     0.60325   0.28534   0.88088   0.00000  Uiso   1.00
C1019  C     0.62279   0.34999   0.91231   0.00000  Uiso   1.00
H1020  H     0.61921   0.33923   0.94898   0.00000  Uiso   1.00
H1021  H     0.66438   0.34837   0.90785   0.00000  Uiso   1.00
H1022  H     0.61027   0.38476   0.90699   0.00000  Uiso   1.00
I1023  I     0.61550   0.29580   0.54460   0.00000  Uiso   1.00
I1024  I     0.48571   0.14568   0.97791   0.00000  Uiso   1.00
C1025  C     0.83855   0.16443   0.75108   0.00000  Uiso   1.00
C1026  C     0.82976   0.33595   0.74909   0.00000  Uiso   1.00
C1027  C     0.79211   0.23292   0.54558   0.00000  Uiso   1.00
C1028  C     0.84678   0.28851   0.94915   0.00000  Uiso   1.00
C1029  C     0.79272   0.23113   0.59553   0.00000  Uiso   1.00
C1030  C     0.85024   0.28698   0.90025   0.00000  Uiso   1.00
C1031  C     0.87515   0.26833   0.60959   0.00000  Uiso   1.00
C1032  C     0.82173   0.21187   0.89662   0.00000  Uiso   1.00
C1033  C     0.87823   0.26828   0.56087   0.00000  Uiso   1.00
C1034  C     0.82658   0.20975   0.94682   0.00000  Uiso   1.00
C1035  C     0.83661   0.24982   0.52736   0.00000  Uiso   1.00
C1036  C     0.83803   0.24897   0.97426   0.00000  Uiso   1.00
C1037  C     0.73360   0.24983   0.73738   0.00000  Uiso   1.00
C1038  C     0.93306   0.25008   0.76262   0.00000  Uiso   1.00
C1039  C     0.67842   0.24965   0.73075   0.00000  Uiso   1.00
C1040  C     0.98822   0.25009   0.76924   0.00000  Uiso   1.00
C1041  C     0.82108   0.04953   0.78874   0.00000  Uiso   1.00
C1042  C     0.82418   0.45462   0.70687   0.00000  Uiso   1.00
C1043  C     0.83512   0.09381   0.79368   0.00000  Uiso   1.00
C1044  C     0.82733   0.40861   0.70573   0.00000  Uiso   1.00
C1045  C     0.84691   0.11711   0.75377   0.00000  Uiso   1.00
C1046  C     0.82425   0.38383   0.74754   0.00000  Uiso   1.00
C1047  C     0.86789   0.09415   0.71899   0.00000  Uiso   1.00
C1048  C     0.81900   0.40609   0.78921   0.00000  Uiso   1.00
C1049  C     0.87014   0.04805   0.72258   0.00000  Uiso   1.00
C1050  C     0.83528   0.45005   0.79363   0.00000  Uiso   1.00
C1051  C     0.84132   0.02491   0.75415   0.00000  Uiso   1.00
C1052  C     0.83400   0.47617   0.75167   0.00000  Uiso   1.00
H1053  H     0.99066   0.24915   0.69439   0.00000  Uiso   1.00
H1054  H     0.67599   0.25055   0.80560   0.00000  Uiso   1.00
H1055  H     0.90698   0.28269   0.63461   0.00000  Uiso   1.00
H1056  H     0.81084   0.18219   0.87606   0.00000  Uiso   1.00
N1057  N     0.83333   0.24999   0.62624   0.00000  Uiso   1.00
N1058  N     0.83333   0.25001   0.87377   0.00000  Uiso   1.00
O1059  O     0.83334   0.18453   0.78974   0.00000  Uiso   1.00
O1060  O     0.83333   0.31546   0.71026   0.00000  Uiso   1.00
O1061  O     0.83334   0.18453   0.71026   0.00000  Uiso   1.00
O1062  O     0.83333   0.31547   0.78974   0.00000  Uiso   1.00
O1063  O     0.75725   0.25000   0.78045   0.00000  Uiso   1.00
O1064  O     0.90942   0.25000   0.71956   0.00000  Uiso   1.00
O1065  O     0.75725   0.24999   0.70097   0.00000  Uiso   1.00
O1066  O     0.90942   0.25000   0.79904   0.00000  Uiso   1.00
Zn1067 Zn    0.83333   0.25000   0.80307   0.00000  Uiso   1.00
Zn1068 Zn    0.83333   0.24999   0.69693   0.00000  Uiso   1.00
O1069  O     0.79302   0.03093   0.82159   0.00000  Uiso   1.00
C1070  C     0.74091   0.02342   0.79948   0.00000  Uiso   1.00
H1071  H     0.73856   0.49819   0.77103   0.00000  Uiso   1.00
H1072  H     0.72328   0.05472   0.78405   0.00000  Uiso   1.00
C1073  C     0.70943   0.00568   0.83652   0.00000  Uiso   1.00
H1074  H     0.72912   0.47714   0.85603   0.00000  Uiso   1.00
H1075  H     0.67029   0.49423   0.81858   0.00000  Uiso   1.00
H1076  H     0.70519   0.03210   0.86236   0.00000  Uiso   1.00
O1077  O     0.81857   0.47764   0.66403   0.00000  Uiso   1.00
C1078  C     0.76718   0.49264   0.65297   0.00000  Uiso   1.00
H1079  H     0.75770   0.01421   0.68165   0.00000  Uiso   1.00
H1080  H     0.73886   0.46392   0.64721   0.00000  Uiso   1.00
C1081  C     0.76194   0.02009   0.60731   0.00000  Uiso   1.00
H1082  H     0.77124   0.49973   0.57770   0.00000  Uiso   1.00
H1083  H     0.72133   0.03162   0.59779   0.00000  Uiso   1.00
H1084  H     0.78913   0.04949   0.61240   0.00000  Uiso   1.00
O1085  O     0.84587   0.11154   0.83908   0.00000  Uiso   1.00
C1086  C     0.90109   0.11267   0.85288   0.00000  Uiso   1.00
H1087  H     0.91826   0.08031   0.84622   0.00000  Uiso   1.00
H1088  H     0.91937   0.13925   0.83302   0.00000  Uiso   1.00
C1089  C     0.91617   0.12200   0.90574   0.00000  Uiso   1.00
H1090  H     0.89635   0.09748   0.92664   0.00000  Uiso   1.00
H1091  H     0.95905   0.11923   0.91645   0.00000  Uiso   1.00
H1092  H     0.90568   0.15614   0.91354   0.00000  Uiso   1.00
O1093  O     0.83006   0.38840   0.66288   0.00000  Uiso   1.00
C1094  C     0.88272   0.38950   0.65552   0.00000  Uiso   1.00
H1095  H     0.90150   0.35827   0.66919   0.00000  Uiso   1.00
H1096  H     0.90675   0.41771   0.67339   0.00000  Uiso   1.00
C1097  C     0.88408   0.39340   0.60250   0.00000  Uiso   1.00
H1098  H     0.86733   0.42540   0.58881   0.00000  Uiso   1.00
H1099  H     0.92503   0.39241   0.59605   0.00000  Uiso   1.00
H1100  H     0.86101   0.36557   0.58330   0.00000  Uiso   1.00
I1101  I     0.90545   0.12652   0.66599   0.00000  Uiso   1.00
I1102  I     0.77225   0.38068   0.83885   0.00000  Uiso   1.00
O1103  O     0.89792   0.02642   0.69278   0.00000  Uiso   1.00
C1104  C     0.94409   0.01021   0.71958   0.00000  Uiso   1.00
H1105  H     0.93534   0.48001   0.74001   0.00000  Uiso   1.00
H1106  H     0.96475   0.03564   0.74462   0.00000  Uiso   1.00
C1107  C     0.98035   0.49779   0.68543   0.00000  Uiso   1.00
H1108  H     0.99711   0.02838   0.67098   0.00000  Uiso   1.00
H1109  H     0.95884   0.47824   0.65521   0.00000  Uiso   1.00
H1110  H     0.67880   0.47740   0.70442   0.00000  Uiso   1.00
O1111  O     0.84937   0.46664   0.83917   0.00000  Uiso   1.00
C1112  C     0.90414   0.47244   0.84910   0.00000  Uiso   1.00
H1113  H     0.91724   0.49986   0.82704   0.00000  Uiso   1.00
H1114  H     0.92404   0.44142   0.84250   0.00000  Uiso   1.00
C1115  C     0.92025   0.48476   0.90124   0.00000  Uiso   1.00
H1116  H     0.90781   0.45797   0.92444   0.00000  Uiso   1.00
H1117  H     0.96335   0.48957   0.90960   0.00000  Uiso   1.00
H1118  H     0.90167   0.01601   0.90863   0.00000  Uiso   1.00
O1119  O     0.74996   0.21351   0.51599   0.00000  Uiso   1.00
C1120  C     0.71922   0.24618   0.99023   0.00000  Uiso   1.00
H1121  H     0.73829   0.26055   0.96118   0.00000  Uiso   1.00
H1122  H     0.71163   0.27350   0.51376   0.00000  Uiso   1.00
C1123  C     0.66769   0.22435   0.96729   0.00000  Uiso   1.00
H1124  H     0.98182   0.20707   0.99479   0.00000  Uiso   1.00
H1125  H     0.97462   0.24980   0.94948   0.00000  Uiso   1.00
H1126  H     0.67470   0.19980   0.94041   0.00000  Uiso   1.00
O1127  O     0.85383   0.32906   0.97186   0.00000  Uiso   1.00
C1128  C     0.80456   0.34690   0.97387   0.00000  Uiso   1.00
H1129  H     0.79074   0.33519   0.50699   0.00000  Uiso   1.00
H1130  H     0.77418   0.33774   0.94267   0.00000  Uiso   1.00
C1131  C     0.81005   0.39729   0.97489   0.00000  Uiso   1.00
H1132  H     0.82291   0.40983   0.94173   0.00000  Uiso   1.00
H1133  H     0.83950   0.40813   0.50561   0.00000  Uiso   1.00
H1134  H     0.77195   0.41176   0.97790   0.00000  Uiso   1.00
O1135  O     0.75068   0.21259   0.61359   0.00000  Uiso   1.00
C1136  C     0.75277   0.16583   0.61241   0.00000  Uiso   1.00
H1137  H     0.79269   0.15388   0.62570   0.00000  Uiso   1.00
H1138  H     0.73983   0.15349   0.57557   0.00000  Uiso   1.00
C1139  C     0.71607   0.14571   0.64391   0.00000  Uiso   1.00
H1140  H     0.67570   0.15637   0.63082   0.00000  Uiso   1.00
H1141  H     0.71687   0.10893   0.64297   0.00000  Uiso   1.00
H1142  H     0.72815   0.15678   0.68130   0.00000  Uiso   1.00
O1143  O     0.86898   0.32423   0.87915   0.00000  Uiso   1.00
C1144  C     0.92249   0.31992   0.87622   0.00000  Uiso   1.00
H1145  H     0.92865   0.33109   0.84017   0.00000  Uiso   1.00
H1146  H     0.93658   0.28534   0.88088   0.00000  Uiso   1.00
C1147  C     0.95613   0.34999   0.91231   0.00000  Uiso   1.00
H1148  H     0.95254   0.33923   0.94898   0.00000  Uiso   1.00
H1149  H     0.99771   0.34837   0.90785   0.00000  Uiso   1.00
H1150  H     0.94360   0.38476   0.90699   0.00000  Uiso   1.00
I1151  I     0.94883   0.29580   0.54460   0.00000  Uiso   1.00
I1152  I     0.81904   0.14568   0.97791   0.00000  Uiso   1.00
C1153  C     0.17188   0.66443   0.75108   0.00000  Uiso   1.00
C1154  C     0.16309   0.83595   0.74909   0.00000  Uiso   1.00
C1155  C     0.12545   0.73292   0.54558   0.00000  Uiso   1.00
C1156  C     0.18012   0.78851   0.94915   0.00000  Uiso   1.00
C1157  C     0.12605   0.73113   0.59553   0.00000  Uiso   1.00
C1158  C     0.18358   0.78698   0.90025   0.00000  Uiso   1.00
C1159  C     0.20848   0.76833   0.60959   0.00000  Uiso   1.00
C1160  C     0.15506   0.71187   0.89662   0.00000  Uiso   1.00
C1161  C     0.21156   0.76828   0.56087   0.00000  Uiso   1.00
C1162  C     0.15991   0.70975   0.94682   0.00000  Uiso   1.00
C1163  C     0.16994   0.74982   0.52736   0.00000  Uiso   1.00
C1164  C     0.17137   0.74897   0.97426   0.00000  Uiso   1.00
C1165  C     0.06693   0.74983   0.73738   0.00000  Uiso   1.00
C1166  C     0.26639   0.75008   0.76262   0.00000  Uiso   1.00
C1167  C     0.01176   0.74965   0.73075   0.00000  Uiso   1.00
C1168  C     0.32156   0.75009   0.76924   0.00000  Uiso   1.00
C1169  C     0.15442   0.54953   0.78874   0.00000  Uiso   1.00
C1170  C     0.15752   0.95462   0.70687   0.00000  Uiso   1.00
C1171  C     0.16845   0.59381   0.79368   0.00000  Uiso   1.00
C1172  C     0.16066   0.90861   0.70573   0.00000  Uiso   1.00
C1173  C     0.18024   0.61711   0.75377   0.00000  Uiso   1.00
C1174  C     0.15758   0.88383   0.74754   0.00000  Uiso   1.00
C1175  C     0.20123   0.59415   0.71899   0.00000  Uiso   1.00
C1176  C     0.15234   0.90609   0.78921   0.00000  Uiso   1.00
C1177  C     0.20347   0.54805   0.72258   0.00000  Uiso   1.00
C1178  C     0.16862   0.95005   0.79363   0.00000  Uiso   1.00
C1179  C     0.17465   0.52491   0.75415   0.00000  Uiso   1.00
C1180  C     0.16733   0.97617   0.75167   0.00000  Uiso   1.00
H1181  H     0.32399   0.74915   0.69439   0.00000  Uiso   1.00
H1182  H     0.00933   0.75055   0.80560   0.00000  Uiso   1.00
H1183  H     0.24031   0.78269   0.63461   0.00000  Uiso   1.00
H1184  H     0.14417   0.68219   0.87606   0.00000  Uiso   1.00
N1185  N     0.16667   0.74999   0.62624   0.00000  Uiso   1.00
N1186  N     0.16667   0.75001   0.87377   0.00000  Uiso   1.00
O1187  O     0.16667   0.68453   0.78974   0.00000  Uiso   1.00
O1188  O     0.16666   0.81546   0.71026   0.00000  Uiso   1.00
O1189  O     0.16667   0.68453   0.71026   0.00000  Uiso   1.00
O1190  O     0.16666   0.81547   0.78974   0.00000  Uiso   1.00
O1191  O     0.09058   0.75000   0.78045   0.00000  Uiso   1.00
O1192  O     0.24275   0.75000   0.71956   0.00000  Uiso   1.00
O1193  O     0.09058   0.74999   0.70097   0.00000  Uiso   1.00
O1194  O     0.24275   0.75000   0.79904   0.00000  Uiso   1.00
Zn1195 Zn    0.16667   0.75000   0.80307   0.00000  Uiso   1.00
Zn1196 Zn    0.16667   0.74999   0.69693   0.00000  Uiso   1.00
O1197  O     0.12635   0.53093   0.82159   0.00000  Uiso   1.00
C1198  C     0.07424   0.52342   0.79948   0.00000  Uiso   1.00
H1199  H     0.07189   0.99819   0.77103   0.00000  Uiso   1.00
H1200  H     0.05661   0.55472   0.78405   0.00000  Uiso   1.00
C1201  C     0.04276   0.50568   0.83652   0.00000  Uiso   1.00
H1202  H     0.06245   0.97714   0.85603   0.00000  Uiso   1.00
H1203  H     0.00363   0.99423   0.81858   0.00000  Uiso   1.00
H1204  H     0.03852   0.53210   0.86236   0.00000  Uiso   1.00
O1205  O     0.15191   0.97764   0.66403   0.00000  Uiso   1.00
C1206  C     0.10052   0.99264   0.65297   0.00000  Uiso   1.00
H1207  H     0.09103   0.51421   0.68165   0.00000  Uiso   1.00
H1208  H     0.07220   0.96392   0.64721   0.00000  Uiso   1.00
C1209  C     0.09527   0.52009   0.60731   0.00000  Uiso   1.00
H1210  H     0.10457   0.99973   0.57770   0.00000  Uiso   1.00
H1211  H     0.05466   0.53162   0.59779   0.00000  Uiso   1.00
H1212  H     0.12247   0.54949   0.61240   0.00000  Uiso   1.00
O1213  O     0.17920   0.61154   0.83908   0.00000  Uiso   1.00
C1214  C     0.23442   0.61267   0.85288   0.00000  Uiso   1.00
H1215  H     0.25159   0.58031   0.84622   0.00000  Uiso   1.00
H1216  H     0.25270   0.63925   0.83302   0.00000  Uiso   1.00
C1217  C     0.24950   0.62200   0.90574   0.00000  Uiso   1.00
H1218  H     0.22968   0.59748   0.92664   0.00000  Uiso   1.00
H1219  H     0.29239   0.61923   0.91645   0.00000  Uiso   1.00
H1220  H     0.23901   0.65614   0.91354   0.00000  Uiso   1.00
O1221  O     0.16339   0.88840   0.66288   0.00000  Uiso   1.00
C1222  C     0.21605   0.88950   0.65552   0.00000  Uiso   1.00
H1223  H     0.23483   0.85827   0.66919   0.00000  Uiso   1.00
H1224  H     0.24008   0.91771   0.67339   0.00000  Uiso   1.00
C1225  C     0.21741   0.89340   0.60250   0.00000  Uiso   1.00
H1226  H     0.20066   0.92540   0.58881   0.00000  Uiso   1.00
H1227  H     0.25837   0.89241   0.59605   0.00000  Uiso   1.00
H1228  H     0.19435   0.86557   0.58330   0.00000  Uiso   1.00
I1229  I     0.23878   0.62652   0.66599   0.00000  Uiso   1.00
I1230  I     0.10558   0.88068   0.83885   0.00000  Uiso   1.00
O1231  O     0.23125   0.52642   0.69278   0.00000  Uiso   1.00
C1232  C     0.27743   0.51021   0.71958   0.00000  Uiso   1.00
H1233  H     0.26867   0.98001   0.74001   0.00000  Uiso   1.00
H1234  H     0.29808   0.53564   0.74462   0.00000  Uiso   1.00
C1235  C     0.31368   0.99779   0.68543   0.00000  Uiso   1.00
H1236  H     0.33045   0.52838   0.67098   0.00000  Uiso   1.00
H1237  H     0.29217   0.97824   0.65521   0.00000  Uiso   1.00
H1238  H     0.01213   0.97740   0.70442   0.00000  Uiso   1.00
O1239  O     0.18271   0.96664   0.83917   0.00000  Uiso   1.00
C1240  C     0.23747   0.97244   0.84910   0.00000  Uiso   1.00
H1241  H     0.25058   0.99986   0.82704   0.00000  Uiso   1.00
H1242  H     0.25737   0.94142   0.84250   0.00000  Uiso   1.00
C1243  C     0.25359   0.98476   0.90124   0.00000  Uiso   1.00
H1244  H     0.24114   0.95797   0.92444   0.00000  Uiso   1.00
H1245  H     0.29668   0.98957   0.90960   0.00000  Uiso   1.00
H1246  H     0.23501   0.51601   0.90863   0.00000  Uiso   1.00
O1247  O     0.08329   0.71351   0.51599   0.00000  Uiso   1.00
C1248  C     0.05255   0.74618   0.99023   0.00000  Uiso   1.00
H1249  H     0.07163   0.76055   0.96118   0.00000  Uiso   1.00
H1250  H     0.04496   0.77350   0.51376   0.00000  Uiso   1.00
C1251  C     0.00103   0.72435   0.96729   0.00000  Uiso   1.00
H1252  H     0.31515   0.70707   0.99479   0.00000  Uiso   1.00
H1253  H     0.30795   0.74980   0.94948   0.00000  Uiso   1.00
H1254  H     0.00804   0.69980   0.94041   0.00000  Uiso   1.00
O1255  O     0.18716   0.82906   0.97186   0.00000  Uiso   1.00
C1256  C     0.13789   0.84690   0.97387   0.00000  Uiso   1.00
H1257  H     0.12408   0.83519   0.50699   0.00000  Uiso   1.00
H1258  H     0.10752   0.83774   0.94267   0.00000  Uiso   1.00
C1259  C     0.14338   0.89729   0.97489   0.00000  Uiso   1.00
H1260  H     0.15624   0.90983   0.94173   0.00000  Uiso   1.00
H1261  H     0.17284   0.90813   0.50561   0.00000  Uiso   1.00
H1262  H     0.10528   0.91176   0.97790   0.00000  Uiso   1.00
O1263  O     0.08401   0.71259   0.61359   0.00000  Uiso   1.00
C1264  C     0.08610   0.66583   0.61241   0.00000  Uiso   1.00
H1265  H     0.12603   0.65388   0.62570   0.00000  Uiso   1.00
H1266  H     0.07316   0.65349   0.57557   0.00000  Uiso   1.00
C1267  C     0.04941   0.64571   0.64391   0.00000  Uiso   1.00
H1268  H     0.00903   0.65637   0.63082   0.00000  Uiso   1.00
H1269  H     0.05020   0.60893   0.64297   0.00000  Uiso   1.00
H1270  H     0.06148   0.65678   0.68130   0.00000  Uiso   1.00
O1271  O     0.20231   0.82423   0.87915   0.00000  Uiso   1.00
C1272  C     0.25582   0.81992   0.87622   0.00000  Uiso   1.00
H1273  H     0.26199   0.83109   0.84017   0.00000  Uiso   1.00
H1274  H     0.26991   0.78534   0.88088   0.00000  Uiso   1.00
C1275  C     0.28946   0.84999   0.91231   0.00000  Uiso   1.00
H1276  H     0.28587   0.83923   0.94898   0.00000  Uiso   1.00
H1277  H     0.33105   0.84837   0.90785   0.00000  Uiso   1.00
H1278  H     0.27694   0.88476   0.90699   0.00000  Uiso   1.00
I1279  I     0.28217   0.79580   0.54460   0.00000  Uiso   1.00
I1280  I     0.15237   0.64568   0.97791   0.00000  Uiso   1.00
C1281  C     0.50522   0.66443   0.75108   0.00000  Uiso   1.00
C1282  C     0.49643   0.83595   0.74909   0.00000  Uiso   1.00
C1283  C     0.45878   0.73292   0.54558   0.00000  Uiso   1.00
C1284  C     0.51345   0.78851   0.94915   0.00000  Uiso   1.00
C1285  C     0.45939   0.73113   0.59553   0.00000  Uiso   1.00
C1286  C     0.51691   0.78698   0.90025   0.00000  Uiso   1.00
C1287  C     0.54182   0.76833   0.60959   0.00000  Uiso   1.00
C1288  C     0.48839   0.71187   0.89662   0.00000  Uiso   1.00
C1289  C     0.54490   0.76828   0.56087   0.00000  Uiso   1.00
C1290  C     0.49325   0.70975   0.94682   0.00000  Uiso   1.00
C1291  C     0.50328   0.74982   0.52736   0.00000  Uiso   1.00
C1292  C     0.50470   0.74897   0.97426   0.00000  Uiso   1.00
C1293  C     0.40027   0.74983   0.73738   0.00000  Uiso   1.00
C1294  C     0.59973   0.75008   0.76262   0.00000  Uiso   1.00
C1295  C     0.34509   0.74965   0.73075   0.00000  Uiso   1.00
C1296  C     0.65489   0.75009   0.76924   0.00000  Uiso   1.00
C1297  C     0.48775   0.54953   0.78874   0.00000  Uiso   1.00
C1298  C     0.49085   0.95462   0.70687   0.00000  Uiso   1.00
C1299  C     0.50179   0.59381   0.79368   0.00000  Uiso   1.00
C1300  C     0.49399   0.90861   0.70573   0.00000  Uiso   1.00
C1301  C     0.51358   0.61711   0.75377   0.00000  Uiso   1.00
C1302  C     0.49092   0.88383   0.74754   0.00000  Uiso   1.00
C1303  C     0.53456   0.59415   0.71899   0.00000  Uiso   1.00
C1304  C     0.48567   0.90609   0.78921   0.00000  Uiso   1.00
C1305  C     0.53681   0.54805   0.72258   0.00000  Uiso   1.00
C1306  C     0.50195   0.95005   0.79363   0.00000  Uiso   1.00
C1307  C     0.50798   0.52491   0.75415   0.00000  Uiso   1.00
C1308  C     0.50067   0.97617   0.75167   0.00000  Uiso   1.00
H1309  H     0.65732   0.74915   0.69439   0.00000  Uiso   1.00
H1310  H     0.34266   0.75055   0.80560   0.00000  Uiso   1.00
H1311  H     0.57364   0.78269   0.63461   0.00000  Uiso   1.00
H1312  H     0.47750   0.68219   0.87606   0.00000  Uiso   1.00
N1313  N     0.50000   0.74999   0.62624   0.00000  Uiso   1.00
N1314  N     0.50000   0.75001   0.87377   0.00000  Uiso   1.00
O1315  O     0.50000   0.68453   0.78974   0.00000  Uiso   1.00
O1316  O     0.50000   0.81546   0.71026   0.00000  Uiso   1.00
O1317  O     0.50000   0.68453   0.71026   0.00000  Uiso   1.00
O1318  O     0.50000   0.81547   0.78974   0.00000  Uiso   1.00
O1319  O     0.42392   0.75000   0.78045   0.00000  Uiso   1.00
O1320  O     0.57608   0.75000   0.71956   0.00000  Uiso   1.00
O1321  O     0.42392   0.74999   0.70097   0.00000  Uiso   1.00
O1322  O     0.57608   0.75000   0.79904   0.00000  Uiso   1.00
Zn1323 Zn    0.50000   0.75000   0.80307   0.00000  Uiso   1.00
Zn1324 Zn    0.50000   0.74999   0.69693   0.00000  Uiso   1.00
O1325  O     0.45969   0.53093   0.82159   0.00000  Uiso   1.00
C1326  C     0.40757   0.52342   0.79948   0.00000  Uiso   1.00
H1327  H     0.40523   0.99819   0.77103   0.00000  Uiso   1.00
H1328  H     0.38995   0.55472   0.78405   0.00000  Uiso   1.00
C1329  C     0.37609   0.50568   0.83652   0.00000  Uiso   1.00
H1330  H     0.39578   0.97714   0.85603   0.00000  Uiso   1.00
H1331  H     0.33696   0.99423   0.81858   0.00000  Uiso   1.00
H1332  H     0.37186   0.53210   0.86236   0.00000  Uiso   1.00
O1333  O     0.48524   0.97764   0.66403   0.00000  Uiso   1.00
C1334  C     0.43385   0.99264   0.65297   0.00000  Uiso   1.00
H1335  H     0.42436   0.51421   0.68165   0.00000  Uiso   1.00
H1336  H     0.40553   0.96392   0.64721   0.00000  Uiso   1.00
C1337  C     0.42861   0.52009   0.60731   0.00000  Uiso   1.00
H1338  H     0.43791   0.99973   0.57770   0.00000  Uiso   1.00
H1339  H     0.38800   0.53162   0.59779   0.00000  Uiso   1.00
H1340  H     0.45580   0.54949   0.61240   0.00000  Uiso   1.00
O1341  O     0.51254   0.61154   0.83908   0.00000  Uiso   1.00
C1342  C     0.56775   0.61267   0.85288   0.00000  Uiso   1.00
H1343  H     0.58492   0.58031   0.84622   0.00000  Uiso   1.00
H1344  H     0.58604   0.63925   0.83302   0.00000  Uiso   1.00
C1345  C     0.58283   0.62200   0.90574   0.00000  Uiso   1.00
H1346  H     0.56301   0.59748   0.92664   0.00000  Uiso   1.00
H1347  H     0.62572   0.61923   0.91645   0.00000  Uiso   1.00
H1348  H     0.57235   0.65614   0.91354   0.00000  Uiso   1.00
O1349  O     0.49673   0.88840   0.66288   0.00000  Uiso   1.00
C1350  C     0.54939   0.88950   0.65552   0.00000  Uiso   1.00
H1351  H     0.56816   0.85827   0.66919   0.00000  Uiso   1.00
H1352  H     0.57341   0.91771   0.67339   0.00000  Uiso   1.00
C1353  C     0.55074   0.89340   0.60250   0.00000  Uiso   1.00
H1354  H     0.53400   0.92540   0.58881   0.00000  Uiso   1.00
H1355  H     0.59170   0.89241   0.59605   0.00000  Uiso   1.00
H1356  H     0.52768   0.86557   0.58330   0.00000  Uiso   1.00
I1357  I     0.57212   0.62652   0.66599   0.00000  Uiso   1.00
I1358  I     0.43892   0.88068   0.83885   0.00000  Uiso   1.00
O1359  O     0.56459   0.52642   0.69278   0.00000  Uiso   1.00
C1360  C     0.61076   0.51021   0.71958   0.00000  Uiso   1.00
H1361  H     0.60200   0.98001   0.74001   0.00000  Uiso   1.00
H1362  H     0.63142   0.53564   0.74462   0.00000  Uiso   1.00
C1363  C     0.64701   0.99779   0.68543   0.00000  Uiso   1.00
H1364  H     0.66378   0.52838   0.67098   0.00000  Uiso   1.00
H1365  H     0.62550   0.97824   0.65521   0.00000  Uiso   1.00
H1366  H     0.34546   0.97740   0.70442   0.00000  Uiso   1.00
O1367  O     0.51604   0.96664   0.83917   0.00000  Uiso   1.00
C1368  C     0.57081   0.97244   0.84910   0.00000  Uiso   1.00
H1369  H     0.58391   0.99986   0.82704   0.00000  Uiso   1.00
H1370  H     0.59070   0.94142   0.84250   0.00000  Uiso   1.00
C1371  C     0.58692   0.98476   0.90124   0.00000  Uiso   1.00
H1372  H     0.57447   0.95797   0.92444   0.00000  Uiso   1.00
H1373  H     0.63002   0.98957   0.90960   0.00000  Uiso   1.00
H1374  H     0.56834   0.51601   0.90863   0.00000  Uiso   1.00
O1375  O     0.41662   0.71351   0.51599   0.00000  Uiso   1.00
C1376  C     0.38589   0.74618   0.99023   0.00000  Uiso   1.00
H1377  H     0.40496   0.76055   0.96118   0.00000  Uiso   1.00
H1378  H     0.37830   0.77350   0.51376   0.00000  Uiso   1.00
C1379  C     0.33436   0.72435   0.96729   0.00000  Uiso   1.00
H1380  H     0.64849   0.70707   0.99479   0.00000  Uiso   1.00
H1381  H     0.64128   0.74980   0.94948   0.00000  Uiso   1.00
H1382  H     0.34137   0.69980   0.94041   0.00000  Uiso   1.00
O1383  O     0.52049   0.82906   0.97186   0.00000  Uiso   1.00
C1384  C     0.47122   0.84690   0.97387   0.00000  Uiso   1.00
H1385  H     0.45741   0.83519   0.50699   0.00000  Uiso   1.00
H1386  H     0.44085   0.83774   0.94267   0.00000  Uiso   1.00
C1387  C     0.47671   0.89729   0.97489   0.00000  Uiso   1.00
H1388  H     0.48957   0.90983   0.94173   0.00000  Uiso   1.00
H1389  H     0.50617   0.90813   0.50561   0.00000  Uiso   1.00
H1390  H     0.43861   0.91176   0.97790   0.00000  Uiso   1.00
O1391  O     0.41734   0.71259   0.61359   0.00000  Uiso   1.00
C1392  C     0.41944   0.66583   0.61241   0.00000  Uiso   1.00
H1393  H     0.45936   0.65388   0.62570   0.00000  Uiso   1.00
H1394  H     0.40649   0.65349   0.57557   0.00000  Uiso   1.00
C1395  C     0.38274   0.64571   0.64391   0.00000  Uiso   1.00
H1396  H     0.34237   0.65637   0.63082   0.00000  Uiso   1.00
H1397  H     0.38353   0.60893   0.64297   0.00000  Uiso   1.00
H1398  H     0.39482   0.65678   0.68130   0.00000  Uiso   1.00
O1399  O     0.53564   0.82423   0.87915   0.00000  Uiso   1.00
C1400  C     0.58916   0.81992   0.87622   0.00000  Uiso   1.00
H1401  H     0.59532   0.83109   0.84017   0.00000  Uiso   1.00
H1402  H     0.60325   0.78534   0.88088   0.00000  Uiso   1.00
C1403  C     0.62279   0.84999   0.91231   0.00000  Uiso   1.00
H1404  H     0.61921   0.83923   0.94898   0.00000  Uiso   1.00
H1405  H     0.66438   0.84837   0.90785   0.00000  Uiso   1.00
H1406  H     0.61027   0.88476   0.90699   0.00000  Uiso   1.00
I1407  I     0.61550   0.79580   0.54460   0.00000  Uiso   1.00
I1408  I     0.48571   0.64568   0.97791   0.00000  Uiso   1.00
C1409  C     0.83855   0.66443   0.75108   0.00000  Uiso   1.00
C1410  C     0.82976   0.83595   0.74909   0.00000  Uiso   1.00
C1411  C     0.79211   0.73292   0.54558   0.00000  Uiso   1.00
C1412  C     0.84678   0.78851   0.94915   0.00000  Uiso   1.00
C1413  C     0.79272   0.73113   0.59553   0.00000  Uiso   1.00
C1414  C     0.85024   0.78698   0.90025   0.00000  Uiso   1.00
C1415  C     0.87515   0.76833   0.60959   0.00000  Uiso   1.00
C1416  C     0.82173   0.71187   0.89662   0.00000  Uiso   1.00
C1417  C     0.87823   0.76828   0.56087   0.00000  Uiso   1.00
C1418  C     0.82658   0.70975   0.94682   0.00000  Uiso   1.00
C1419  C     0.83661   0.74982   0.52736   0.00000  Uiso   1.00
C1420  C     0.83803   0.74897   0.97426   0.00000  Uiso   1.00
C1421  C     0.73360   0.74983   0.73738   0.00000  Uiso   1.00
C1422  C     0.93306   0.75008   0.76262   0.00000  Uiso   1.00
C1423  C     0.67842   0.74965   0.73075   0.00000  Uiso   1.00
C1424  C     0.98822   0.75009   0.76924   0.00000  Uiso   1.00
C1425  C     0.82108   0.54953   0.78874   0.00000  Uiso   1.00
C1426  C     0.82418   0.95462   0.70687   0.00000  Uiso   1.00
C1427  C     0.83512   0.59381   0.79368   0.00000  Uiso   1.00
C1428  C     0.82733   0.90861   0.70573   0.00000  Uiso   1.00
C1429  C     0.84691   0.61711   0.75377   0.00000  Uiso   1.00
C1430  C     0.82425   0.88383   0.74754   0.00000  Uiso   1.00
C1431  C     0.86789   0.59415   0.71899   0.00000  Uiso   1.00
C1432  C     0.81900   0.90609   0.78921   0.00000  Uiso   1.00
C1433  C     0.87014   0.54805   0.72258   0.00000  Uiso   1.00
C1434  C     0.83528   0.95005   0.79363   0.00000  Uiso   1.00
C1435  C     0.84132   0.52491   0.75415   0.00000  Uiso   1.00
C1436  C     0.83400   0.97617   0.75167   0.00000  Uiso   1.00
H1437  H     0.99066   0.74915   0.69439   0.00000  Uiso   1.00
H1438  H     0.67599   0.75055   0.80560   0.00000  Uiso   1.00
H1439  H     0.90698   0.78269   0.63461   0.00000  Uiso   1.00
H1440  H     0.81084   0.68219   0.87606   0.00000  Uiso   1.00
N1441  N     0.83333   0.74999   0.62624   0.00000  Uiso   1.00
N1442  N     0.83333   0.75001   0.87377   0.00000  Uiso   1.00
O1443  O     0.83334   0.68453   0.78974   0.00000  Uiso   1.00
O1444  O     0.83333   0.81546   0.71026   0.00000  Uiso   1.00
O1445  O     0.83334   0.68453   0.71026   0.00000  Uiso   1.00
O1446  O     0.83333   0.81547   0.78974   0.00000  Uiso   1.00
O1447  O     0.75725   0.75000   0.78045   0.00000  Uiso   1.00
O1448  O     0.90942   0.75000   0.71956   0.00000  Uiso   1.00
O1449  O     0.75725   0.74999   0.70097   0.00000  Uiso   1.00
O1450  O     0.90942   0.75000   0.79904   0.00000  Uiso   1.00
Zn1451 Zn    0.83333   0.75000   0.80307   0.00000  Uiso   1.00
Zn1452 Zn    0.83333   0.74999   0.69693   0.00000  Uiso   1.00
O1453  O     0.79302   0.53093   0.82159   0.00000  Uiso   1.00
C1454  C     0.74091   0.52342   0.79948   0.00000  Uiso   1.00
H1455  H     0.73856   0.99819   0.77103   0.00000  Uiso   1.00
H1456  H     0.72328   0.55472   0.78405   0.00000  Uiso   1.00
C1457  C     0.70943   0.50568   0.83652   0.00000  Uiso   1.00
H1458  H     0.72912   0.97714   0.85603   0.00000  Uiso   1.00
H1459  H     0.67029   0.99423   0.81858   0.00000  Uiso   1.00
H1460  H     0.70519   0.53210   0.86236   0.00000  Uiso   1.00
O1461  O     0.81857   0.97764   0.66403   0.00000  Uiso   1.00
C1462  C     0.76718   0.99264   0.65297   0.00000  Uiso   1.00
H1463  H     0.75770   0.51421   0.68165   0.00000  Uiso   1.00
H1464  H     0.73886   0.96392   0.64721   0.00000  Uiso   1.00
C1465  C     0.76194   0.52009   0.60731   0.00000  Uiso   1.00
H1466  H     0.77124   0.99973   0.57770   0.00000  Uiso   1.00
H1467  H     0.72133   0.53162   0.59779   0.00000  Uiso   1.00
H1468  H     0.78913   0.54949   0.61240   0.00000  Uiso   1.00
O1469  O     0.84587   0.61154   0.83908   0.00000  Uiso   1.00
C1470  C     0.90109   0.61267   0.85288   0.00000  Uiso   1.00
H1471  H     0.91826   0.58031   0.84622   0.00000  Uiso   1.00
H1472  H     0.91937   0.63925   0.83302   0.00000  Uiso   1.00
C1473  C     0.91617   0.62200   0.90574   0.00000  Uiso   1.00
H1474  H     0.89635   0.59748   0.92664   0.00000  Uiso   1.00
H1475  H     0.95905   0.61923   0.91645   0.00000  Uiso   1.00
H1476  H     0.90568   0.65614   0.91354   0.00000  Uiso   1.00
O1477  O     0.83006   0.88840   0.66288   0.00000  Uiso   1.00
C1478  C     0.88272   0.88950   0.65552   0.00000  Uiso   1.00
H1479  H     0.90150   0.85827   0.66919   0.00000  Uiso   1.00
H1480  H     0.90675   0.91771   0.67339   0.00000  Uiso   1.00
C1481  C     0.88408   0.89340   0.60250   0.00000  Uiso   1.00
H1482  H     0.86733   0.92540   0.58881   0.00000  Uiso   1.00
H1483  H     0.92503   0.89241   0.59605   0.00000  Uiso   1.00
H1484  H     0.86101   0.86557   0.58330   0.00000  Uiso   1.00
I1485  I     0.90545   0.62652   0.66599   0.00000  Uiso   1.00
I1486  I     0.77225   0.88068   0.83885   0.00000  Uiso   1.00
O1487  O     0.89792   0.52642   0.69278   0.00000  Uiso   1.00
C1488  C     0.94409   0.51021   0.71958   0.00000  Uiso   1.00
H1489  H     0.93534   0.98001   0.74001   0.00000  Uiso   1.00
H1490  H     0.96475   0.53564   0.74462   0.00000  Uiso   1.00
C1491  C     0.98035   0.99779   0.68543   0.00000  Uiso   1.00
H1492  H     0.99711   0.52838   0.67098   0.00000  Uiso   1.00
H1493  H     0.95884   0.97824   0.65521   0.00000  Uiso   1.00
H1494  H     0.67880   0.97740   0.70442   0.00000  Uiso   1.00
O1495  O     0.84937   0.96664   0.83917   0.00000  Uiso   1.00
C1496  C     0.90414   0.97244   0.84910   0.00000  Uiso   1.00
H1497  H     0.91724   0.99986   0.82704   0.00000  Uiso   1.00
H1498  H     0.92404   0.94142   0.84250   0.00000  Uiso   1.00
C1499  C     0.92025   0.98476   0.90124   0.00000  Uiso   1.00
H1500  H     0.90781   0.95797   0.92444   0.00000  Uiso   1.00
H1501  H     0.96335   0.98957   0.90960   0.00000  Uiso   1.00
H1502  H     0.90167   0.51601   0.90863   0.00000  Uiso   1.00
O1503  O     0.74996   0.71351   0.51599   0.00000  Uiso   1.00
C1504  C     0.71922   0.74618   0.99023   0.00000  Uiso   1.00
H1505  H     0.73829   0.76055   0.96118   0.00000  Uiso   1.00
H1506  H     0.71163   0.77350   0.51376   0.00000  Uiso   1.00
C1507  C     0.66769   0.72435   0.96729   0.00000  Uiso   1.00
H1508  H     0.98182   0.70707   0.99479   0.00000  Uiso   1.00
H1509  H     0.97462   0.74980   0.94948   0.00000  Uiso   1.00
H1510  H     0.67470   0.69980   0.94041   0.00000  Uiso   1.00
O1511  O     0.85383   0.82906   0.97186   0.00000  Uiso   1.00
C1512  C     0.80456   0.84690   0.97387   0.00000  Uiso   1.00
H1513  H     0.79074   0.83519   0.50699   0.00000  Uiso   1.00
H1514  H     0.77418   0.83774   0.94267   0.00000  Uiso   1.00
C1515  C     0.81005   0.89729   0.97489   0.00000  Uiso   1.00
H1516  H     0.82291   0.90983   0.94173   0.00000  Uiso   1.00
H1517  H     0.83950   0.90813   0.50561   0.00000  Uiso   1.00
H1518  H     0.77195   0.91176   0.97790   0.00000  Uiso   1.00
O1519  O     0.75068   0.71259   0.61359   0.00000  Uiso   1.00
C1520  C     0.75277   0.66583   0.61241   0.00000  Uiso   1.00
H1521  H     0.79269   0.65388   0.62570   0.00000  Uiso   1.00
H1522  H     0.73983   0.65349   0.57557   0.00000  Uiso   1.00
C1523  C     0.71607   0.64571   0.64391   0.00000  Uiso   1.00
H1524  H     0.67570   0.65637   0.63082   0.00000  Uiso   1.00
H1525  H     0.71687   0.60893   0.64297   0.00000  Uiso   1.00
H1526  H     0.72815   0.65678   0.68130   0.00000  Uiso   1.00
O1527  O     0.86898   0.82423   0.87915   0.00000  Uiso   1.00
C1528  C     0.92249   0.81992   0.87622   0.00000  Uiso   1.00
H1529  H     0.92865   0.83109   0.84017   0.00000  Uiso   1.00
H1530  H     0.93658   0.78534   0.88088   0.00000  Uiso   1.00
C1531  C     0.95613   0.84999   0.91231   0.00000  Uiso   1.00
H1532  H     0.95254   0.83923   0.94898   0.00000  Uiso   1.00
H1533  H     0.99771   0.84837   0.90785   0.00000  Uiso   1.00
H1534  H     0.94360   0.88476   0.90699   0.00000  Uiso   1.00
I1535  I     0.94883   0.79580   0.54460   0.00000  Uiso   1.00
I1536  I     0.81904   0.64568   0.97791   0.00000  Uiso   1.00
loop_
_geom_bond_atom_site_label_1
_geom_bond_atom_site_label_2
_geom_bond_distance
_geom_bond_site_symmetry_2
_ccdc_geom_bond_type
C1     C21     1.449   .     S
C1     O37     1.292   .     A
C1     O35     1.291   .     A
C2     O36     1.290   .     A
C2     C22     1.454   .     S
C2     O38     1.295   .     A
C3     C5      1.419   .     A
C3     O95     1.384   .     S
C3     C11     1.420   .     A
C4     O103    1.382   .     S
C4     C12     1.413   .     A
C4     C6      1.410   .     A
C5     O111    1.381   .     S
C5     N33     1.367   .     A
C6     N34     1.372   .     A
C6     O119    1.379   .     S
C7     H31     1.081   .     S
C7     N33     1.354   .     A
C7     C9      1.401   .     A
C8     H32     1.079   .     S
C8     N34     1.364   .     A
C8     C10     1.413   .     A
C9     I127    2.107   .     S
C9     C11     1.422   .     A
C10    I128    2.131   .     S
C10    C12     1.421   .     A
C11    C780    1.518   1_554 S
C12    C779    1.518   .     S
C13    O41     1.288   .     A
C13    C15     1.414   .     S
C13    O39     1.276   .     A
C14    O42     1.288   .     A
C14    C16     1.414   .     S
C14    O40     1.276   .     A
C15    C272    1.339   1_455 S
C15    H285    1.088   1_455 S
C16    C143    1.339   .     S
C16    H158    1.088   .     S
C17    O45     1.380   .     S
C17    C27     1.417   .     A
C17    C19     1.375   .     A
C18    O53     1.383   .     S
C18    C20     1.393   .     A
C18    C28     1.419   .     A
C19    C21     1.399   .     A
C19    O61     1.386   .     S
C20    C22     1.409   .     A
C20    O69     1.382   .     S
C21    C23     1.405   .     A
C22    C24     1.397   .     A
C23    I77     2.136   .     S
C23    C25     1.395   .     A
C24    C26     1.379   .     A
C24    I78     2.129   .     S
C25    O79     1.382   .     S
C25    C27     1.423   .     A
C26    O87     1.382   .     S
C26    C28     1.418   .     A
C27    C412    1.477   1_545 S
C28    C411    1.477   .     S
H29    C143    1.088   .     S
H30    C272    1.088   1_455 S
N33    Zn44    2.011   .     S
N34    Zn43    2.011   .     S
O35    Zn43    2.014   .     S
O36    Zn44    2.014   .     S
O37    Zn44    2.005   .     S
O38    Zn43    2.005   .     S
O39    Zn43    1.975   .     S
O40    Zn44    1.975   .     S
O41    Zn44    1.998   .     S
O42    Zn43    1.998   .     S
O45    C46     1.408   .     S
C46    C49     1.519   .     S
C46    H48     1.115   .     S
C46    H431    1.110   1_545 S
H47    C430    1.110   .     S
C49    H52     1.111   .     S
C49    H434    1.110   1_545 S
C49    H435    1.106   1_545 S
H50    C433    1.110   .     S
H51    C433    1.106   .     S
O53    C54     1.408   .     S
C54    H56     1.114   .     S
C54    H439    1.113   .     S
C54    C441    1.520   .     S
H55    C438    1.113   1_545 S
C57    H59     1.110   .     S
C57    H60     1.111   .     S
C57    C438    1.520   1_545 S
C57    H442    1.111   1_545 S
H58    C441    1.111   .     S
O61    C62     1.422   .     S
C62    H64     1.113   .     S
C62    C65     1.517   .     S
C62    H63     1.116   .     S
C65    H67     1.111   .     S
C65    H68     1.107   .     S
C65    H66     1.109   .     S
O69    C70     1.417   .     S
C70    H71     1.110   .     S
C70    C73     1.517   .     S
C70    H72     1.115   .     S
C73    H74     1.110   .     S
C73    H75     1.110   .     S
C73    H76     1.110   .     S
O79    C80     1.409   .     S
C80    H82     1.115   .     S
C80    H465    1.111   1_545 S
C80    C467    1.518   1_545 S
H81    C464    1.111   .     S
C83    H85     1.110   .     S
C83    C464    1.518   .     S
C83    H468    1.110   .     S
C83    H214    1.108   .     S
H84    C467    1.110   1_545 S
H86    C339    1.108   1_455 S
O87    C88     1.409   .     S
C88    H89     1.110   .     S
C88    C91     1.520   .     S
C88    H90     1.115   .     S
C91    H92     1.110   .     S
C91    H93     1.110   .     S
C91    H478    1.110   .     S
H94    C475    1.110   1_545 S
O95    C864    1.408   1_554 S
C96    C99     1.522   .     S
C96    H97     1.108   .     S
C96    O863    1.408   .     S
C96    H866    1.110   .     S
H98    C864    1.110   1_554 S
C99    H102    1.111   .     S
C99    H356    1.111   1_455 S
C99    H357    1.107   1_455 S
H100   C227    1.111   .     S
H101   C227    1.107   .     S
O103   C104    1.414   .     S
C104   C107    1.521   .     S
C104   H106    1.117   .     S
C104   H873    1.111   .     S
H105   C872    1.111   1_554 S
C107   H110    1.110   .     S
C107   H108    1.110   .     S
C107   H877    1.107   .     S
H109   C875    1.107   1_554 S
O111   C112    1.414   .     S
C112   H114    1.111   .     S
C112   H113    1.113   .     S
C112   C115    1.520   .     S
C115   H117    1.110   .     S
C115   H118    1.110   .     S
C115   H116    1.109   .     S
O119   C120    1.416   .     S
C120   C123    1.522   .     S
C120   H122    1.115   .     S
C120   H121    1.110   .     S
C123   H125    1.111   .     S
C123   H124    1.106   .     S
C123   H126    1.109   .     S
C129   C149    1.449   .     S
C129   O165    1.292   .     A
C129   O163    1.291   .     A
C130   O164    1.290   .     A
C130   C150    1.454   .     S
C130   O166    1.295   .     A
C131   C133    1.419   .     A
C131   O223    1.384   .     S
C131   C139    1.420   .     A
C132   O231    1.382   .     S
C132   C140    1.413   .     A
C132   C134    1.410   .     A
C133   O239    1.381   .     S
C133   N161    1.367   .     A
C134   N162    1.372   .     A
C134   O247    1.379   .     S
C135   H159    1.081   .     S
C135   N161    1.354   .     A
C135   C137    1.401   .     A
C136   H160    1.079   .     S
C136   N162    1.364   .     A
C136   C138    1.413   .     A
C137   I255    2.107   .     S
C137   C139    1.422   .     A
C138   I256    2.131   .     S
C138   C140    1.421   .     A
C139   C908    1.518   1_554 S
C140   C907    1.518   .     S
C141   O169    1.288   .     A
C141   C143    1.414   .     S
C141   O167    1.276   .     A
C142   O170    1.288   .     A
C142   C144    1.414   .     S
C142   O168    1.276   .     A
C144   C271    1.339   .     S
C144   H286    1.088   .     S
C145   O173    1.380   .     S
C145   C155    1.417   .     A
C145   C147    1.375   .     A
C146   O181    1.383   .     S
C146   C148    1.393   .     A
C146   C156    1.419   .     A
C147   C149    1.399   .     A
C147   O189    1.386   .     S
C148   C150    1.409   .     A
C148   O197    1.382   .     S
C149   C151    1.405   .     A
C150   C152    1.397   .     A
C151   I205    2.136   .     S
C151   C153    1.395   .     A
C152   C154    1.379   .     A
C152   I206    2.129   .     S
C153   O207    1.382   .     S
C153   C155    1.423   .     A
C154   O215    1.382   .     S
C154   C156    1.418   .     A
C155   C540    1.477   1_545 S
C156   C539    1.477   .     S
H157   C271    1.088   .     S
N161   Zn172   2.011   .     S
N162   Zn171   2.011   .     S
O163   Zn171   2.014   .     S
O164   Zn172   2.014   .     S
O165   Zn172   2.005   .     S
O166   Zn171   2.005   .     S
O167   Zn171   1.975   .     S
O168   Zn172   1.975   .     S
O169   Zn172   1.998   .     S
O170   Zn171   1.998   .     S
O173   C174    1.408   .     S
C174   C177    1.519   .     S
C174   H176    1.115   .     S
C174   H559    1.110   1_545 S
H175   C558    1.110   .     S
C177   H180    1.111   .     S
C177   H562    1.110   1_545 S
C177   H563    1.106   1_545 S
H178   C561    1.110   .     S
H179   C561    1.106   .     S
O181   C182    1.408   .     S
C182   H184    1.114   .     S
C182   H567    1.113   .     S
C182   C569    1.520   .     S
H183   C566    1.113   1_545 S
C185   H187    1.110   .     S
C185   H188    1.111   .     S
C185   C566    1.520   1_545 S
C185   H570    1.111   1_545 S
H186   C569    1.111   .     S
O189   C190    1.422   .     S
C190   H192    1.113   .     S
C190   C193    1.517   .     S
C190   H191    1.116   .     S
C193   H195    1.111   .     S
C193   H196    1.107   .     S
C193   H194    1.109   .     S
O197   C198    1.417   .     S
C198   H199    1.110   .     S
C198   C201    1.517   .     S
C198   H200    1.115   .     S
C201   H202    1.110   .     S
C201   H203    1.110   .     S
C201   H204    1.110   .     S
O207   C208    1.409   .     S
C208   H210    1.115   .     S
C208   H593    1.111   1_545 S
C208   C595    1.518   1_545 S
H209   C592    1.111   .     S
C211   H213    1.110   .     S
C211   C592    1.518   .     S
C211   H596    1.110   .     S
C211   H342    1.108   .     S
H212   C595    1.110   1_545 S
O215   C216    1.409   .     S
C216   H217    1.110   .     S
C216   C219    1.520   .     S
C216   H218    1.115   .     S
C219   H220    1.110   .     S
C219   H221    1.110   .     S
C219   H606    1.110   .     S
H222   C603    1.110   1_545 S
O223   C992    1.408   1_554 S
C224   C227    1.522   .     S
C224   H225    1.108   .     S
C224   O991    1.408   .     S
C224   H994    1.110   .     S
H226   C992    1.110   1_554 S
C227   H230    1.111   .     S
H228   C355    1.111   .     S
H229   C355    1.107   .     S
O231   C232    1.414   .     S
C232   C235    1.521   .     S
C232   H234    1.117   .     S
C232   H1001   1.111   .     S
H233   C1000   1.111   1_554 S
C235   H238    1.110   .     S
C235   H236    1.110   .     S
C235   H1005   1.107   .     S
H237   C1003   1.107   1_554 S
O239   C240    1.414   .     S
C240   H242    1.111   .     S
C240   H241    1.113   .     S
C240   C243    1.520   .     S
C243   H245    1.110   .     S
C243   H246    1.110   .     S
C243   H244    1.109   .     S
O247   C248    1.416   .     S
C248   C251    1.522   .     S
C248   H250    1.115   .     S
C248   H249    1.110   .     S
C251   H253    1.111   .     S
C251   H252    1.106   .     S
C251   H254    1.109   .     S
C257   C277    1.449   .     S
C257   O293    1.292   .     A
C257   O291    1.291   .     A
C258   O292    1.290   .     A
C258   C278    1.454   .     S
C258   O294    1.295   .     A
C259   C261    1.419   .     A
C259   O351    1.384   .     S
C259   C267    1.420   .     A
C260   O359    1.382   .     S
C260   C268    1.413   .     A
C260   C262    1.410   .     A
C261   O367    1.381   .     S
C261   N289    1.367   .     A
C262   N290    1.372   .     A
C262   O375    1.379   .     S
C263   H287    1.081   .     S
C263   N289    1.354   .     A
C263   C265    1.401   .     A
C264   H288    1.079   .     S
C264   N290    1.364   .     A
C264   C266    1.413   .     A
C265   I383    2.107   .     S
C265   C267    1.422   .     A
C266   I384    2.131   .     S
C266   C268    1.421   .     A
C267   C1036   1.518   1_554 S
C268   C1035   1.518   .     S
C269   O297    1.288   .     A
C269   C271    1.414   .     S
C269   O295    1.276   .     A
C270   O298    1.288   .     A
C270   C272    1.414   .     S
C270   O296    1.276   .     A
C272   C15     1.339   1_655 S
C272   H30     1.088   1_655 S
C273   O301    1.380   .     S
C273   C283    1.417   .     A
C273   C275    1.375   .     A
C274   O309    1.383   .     S
C274   C276    1.393   .     A
C274   C284    1.419   .     A
C275   C277    1.399   .     A
C275   O317    1.386   .     S
C276   C278    1.409   .     A
C276   O325    1.382   .     S
C277   C279    1.405   .     A
C278   C280    1.397   .     A
C279   I333    2.136   .     S
C279   C281    1.395   .     A
C280   C282    1.379   .     A
C280   I334    2.129   .     S
C281   O335    1.382   .     S
C281   C283    1.423   .     A
C282   O343    1.382   .     S
C282   C284    1.418   .     A
C283   C668    1.477   1_545 S
C284   C667    1.477   .     S
H285   C15     1.088   1_655 S
N289   Zn300   2.011   .     S
N290   Zn299   2.011   .     S
O291   Zn299   2.014   .     S
O292   Zn300   2.014   .     S
O293   Zn300   2.005   .     S
O294   Zn299   2.005   .     S
O295   Zn299   1.975   .     S
O296   Zn300   1.975   .     S
O297   Zn300   1.998   .     S
O298   Zn299   1.998   .     S
O301   C302    1.408   .     S
C302   C305    1.519   .     S
C302   H304    1.115   .     S
C302   H687    1.110   1_545 S
H303   C686    1.110   .     S
C305   H308    1.111   .     S
C305   H690    1.110   1_545 S
C305   H691    1.106   1_545 S
H306   C689    1.110   .     S
H307   C689    1.106   .     S
O309   C310    1.408   .     S
C310   H312    1.114   .     S
C310   H695    1.113   .     S
C310   C697    1.520   .     S
H311   C694    1.113   1_545 S
C313   H315    1.110   .     S
C313   H316    1.111   .     S
C313   C694    1.520   1_545 S
C313   H698    1.111   1_545 S
H314   C697    1.111   .     S
O317   C318    1.422   .     S
C318   H320    1.113   .     S
C318   C321    1.517   .     S
C318   H319    1.116   .     S
C321   H323    1.111   .     S
C321   H324    1.107   .     S
C321   H322    1.109   .     S
O325   C326    1.417   .     S
C326   H327    1.110   .     S
C326   C329    1.517   .     S
C326   H328    1.115   .     S
C329   H330    1.110   .     S
C329   H331    1.110   .     S
C329   H332    1.110   .     S
O335   C336    1.409   .     S
C336   H338    1.115   .     S
C336   H721    1.111   1_545 S
C336   C723    1.518   1_545 S
H337   C720    1.111   .     S
C339   H341    1.110   .     S
C339   C720    1.518   .     S
C339   H724    1.110   .     S
C339   H86     1.108   1_655 S
H340   C723    1.110   1_545 S
O343   C344    1.409   .     S
C344   H345    1.110   .     S
C344   C347    1.520   .     S
C344   H346    1.115   .     S
C347   H348    1.110   .     S
C347   H349    1.110   .     S
C347   H734    1.110   .     S
H350   C731    1.110   1_545 S
O351   C1120   1.408   1_554 S
C352   C355    1.522   .     S
C352   H353    1.108   .     S
C352   O1119   1.408   .     S
C352   H1122   1.110   .     S
H354   C1120   1.110   1_554 S
C355   H358    1.111   .     S
H356   C99     1.111   1_655 S
H357   C99     1.107   1_655 S
O359   C360    1.414   .     S
C360   C363    1.521   .     S
C360   H362    1.117   .     S
C360   H1129   1.111   .     S
H361   C1128   1.111   1_554 S
C363   H366    1.110   .     S
C363   H364    1.110   .     S
C363   H1133   1.107   .     S
H365   C1131   1.107   1_554 S
O367   C368    1.414   .     S
C368   H370    1.111   .     S
C368   H369    1.113   .     S
C368   C371    1.520   .     S
C371   H373    1.110   .     S
C371   H374    1.110   .     S
C371   H372    1.109   .     S
O375   C376    1.416   .     S
C376   C379    1.522   .     S
C376   H378    1.115   .     S
C376   H377    1.110   .     S
C379   H381    1.111   .     S
C379   H380    1.106   .     S
C379   H382    1.109   .     S
C385   C405    1.449   .     S
C385   O421    1.292   .     A
C385   O419    1.291   .     A
C386   O420    1.290   .     A
C386   C406    1.454   .     S
C386   O422    1.295   .     A
C387   C389    1.419   .     A
C387   O479    1.384   .     S
C387   C395    1.420   .     A
C388   O487    1.382   .     S
C388   C396    1.413   .     A
C388   C390    1.410   .     A
C389   O495    1.381   .     S
C389   N417    1.367   .     A
C390   N418    1.372   .     A
C390   O503    1.379   .     S
C391   H415    1.081   .     S
C391   N417    1.354   .     A
C391   C393    1.401   .     A
C392   H416    1.079   .     S
C392   N418    1.364   .     A
C392   C394    1.413   .     A
C393   I511    2.107   .     S
C393   C395    1.422   .     A
C394   I512    2.131   .     S
C394   C396    1.421   .     A
C395   C1164   1.518   1_554 S
C396   C1163   1.518   .     S
C397   O425    1.288   .     A
C397   C399    1.414   .     S
C397   O423    1.276   .     A
C398   O426    1.288   .     A
C398   C400    1.414   .     S
C398   O424    1.276   .     A
C399   C656    1.339   1_455 S
C399   H669    1.088   1_455 S
C400   C527    1.339   .     S
C400   H542    1.088   .     S
C401   O429    1.380   .     S
C401   C411    1.417   .     A
C401   C403    1.375   .     A
C402   O437    1.383   .     S
C402   C404    1.393   .     A
C402   C412    1.419   .     A
C403   C405    1.399   .     A
C403   O445    1.386   .     S
C404   C406    1.409   .     A
C404   O453    1.382   .     S
C405   C407    1.405   .     A
C406   C408    1.397   .     A
C407   I461    2.136   .     S
C407   C409    1.395   .     A
C408   C410    1.379   .     A
C408   I462    2.129   .     S
C409   O463    1.382   .     S
C409   C411    1.423   .     A
C410   O471    1.382   .     S
C410   C412    1.418   .     A
C412   C27     1.477   1_565 S
H413   C527    1.088   .     S
H414   C656    1.088   1_455 S
N417   Zn428   2.011   .     S
N418   Zn427   2.011   .     S
O419   Zn427   2.014   .     S
O420   Zn428   2.014   .     S
O421   Zn428   2.005   .     S
O422   Zn427   2.005   .     S
O423   Zn427   1.975   .     S
O424   Zn428   1.975   .     S
O425   Zn428   1.998   .     S
O426   Zn427   1.998   .     S
O429   C430    1.408   .     S
C430   C433    1.519   .     S
C430   H432    1.115   .     S
H431   C46     1.110   1_565 S
C433   H436    1.111   .     S
H434   C49     1.110   1_565 S
H435   C49     1.106   1_565 S
O437   C438    1.408   .     S
C438   H440    1.114   .     S
C438   H55     1.113   1_565 S
C438   C57     1.520   1_565 S
C441   H443    1.110   .     S
C441   H444    1.111   .     S
H442   C57     1.111   1_565 S
O445   C446    1.422   .     S
C446   H448    1.113   .     S
C446   C449    1.517   .     S
C446   H447    1.116   .     S
C449   H451    1.111   .     S
C449   H452    1.107   .     S
C449   H450    1.109   .     S
O453   C454    1.417   .     S
C454   H455    1.110   .     S
C454   C457    1.517   .     S
C454   H456    1.115   .     S
C457   H458    1.110   .     S
C457   H459    1.110   .     S
C457   H460    1.110   .     S
O463   C464    1.409   .     S
C464   H466    1.115   .     S
H465   C80     1.111   1_565 S
C467   H469    1.110   .     S
C467   C80     1.518   1_565 S
C467   H84     1.110   1_565 S
C467   H598    1.108   .     S
H470   C723    1.108   1_455 S
O471   C472    1.409   .     S
C472   H473    1.110   .     S
C472   C475    1.520   .     S
C472   H474    1.115   .     S
C475   H476    1.110   .     S
C475   H477    1.110   .     S
C475   H94     1.110   1_565 S
O479   C1248   1.408   1_554 S
C480   C483    1.522   .     S
C480   H481    1.108   .     S
C480   O1247   1.408   .     S
C480   H1250   1.110   .     S
H482   C1248   1.110   1_554 S
C483   H486    1.111   .     S
C483   H740    1.111   1_455 S
C483   H741    1.107   1_455 S
H484   C611    1.111   .     S
H485   C611    1.107   .     S
O487   C488    1.414   .     S
C488   C491    1.521   .     S
C488   H490    1.117   .     S
C488   H1257   1.111   .     S
H489   C1256   1.111   1_554 S
C491   H494    1.110   .     S
C491   H492    1.110   .     S
C491   H1261   1.107   .     S
H493   C1259   1.107   1_554 S
O495   C496    1.414   .     S
C496   H498    1.111   .     S
C496   H497    1.113   .     S
C496   C499    1.520   .     S
C499   H501    1.110   .     S
C499   H502    1.110   .     S
C499   H500    1.109   .     S
O503   C504    1.416   .     S
C504   C507    1.522   .     S
C504   H506    1.115   .     S
C504   H505    1.110   .     S
C507   H509    1.111   .     S
C507   H508    1.106   .     S
C507   H510    1.109   .     S
C513   C533    1.449   .     S
C513   O549    1.292   .     A
C513   O547    1.291   .     A
C514   O548    1.290   .     A
C514   C534    1.454   .     S
C514   O550    1.295   .     A
C515   C517    1.419   .     A
C515   O607    1.384   .     S
C515   C523    1.420   .     A
C516   O615    1.382   .     S
C516   C524    1.413   .     A
C516   C518    1.410   .     A
C517   O623    1.381   .     S
C517   N545    1.367   .     A
C518   N546    1.372   .     A
C518   O631    1.379   .     S
C519   H543    1.081   .     S
C519   N545    1.354   .     A
C519   C521    1.401   .     A
C520   H544    1.079   .     S
C520   N546    1.364   .     A
C520   C522    1.413   .     A
C521   I639    2.107   .     S
C521   C523    1.422   .     A
C522   I640    2.131   .     S
C522   C524    1.421   .     A
C523   C1292   1.518   1_554 S
C524   C1291   1.518   .     S
C525   O553    1.288   .     A
C525   C527    1.414   .     S
C525   O551    1.276   .     A
C526   O554    1.288   .     A
C526   C528    1.414   .     S
C526   O552    1.276   .     A
C528   C655    1.339   .     S
C528   H670    1.088   .     S
C529   O557    1.380   .     S
C529   C539    1.417   .     A
C529   C531    1.375   .     A
C530   O565    1.383   .     S
C530   C532    1.393   .     A
C530   C540    1.419   .     A
C531   C533    1.399   .     A
C531   O573    1.386   .     S
C532   C534    1.409   .     A
C532   O581    1.382   .     S
C533   C535    1.405   .     A
C534   C536    1.397   .     A
C535   I589    2.136   .     S
C535   C537    1.395   .     A
C536   C538    1.379   .     A
C536   I590    2.129   .     S
C537   O591    1.382   .     S
C537   C539    1.423   .     A
C538   O599    1.382   .     S
C538   C540    1.418   .     A
C540   C155    1.477   1_565 S
H541   C655    1.088   .     S
N545   Zn556   2.011   .     S
N546   Zn555   2.011   .     S
O547   Zn555   2.014   .     S
O548   Zn556   2.014   .     S
O549   Zn556   2.005   .     S
O550   Zn555   2.005   .     S
O551   Zn555   1.975   .     S
O552   Zn556   1.975   .     S
O553   Zn556   1.998   .     S
O554   Zn555   1.998   .     S
O557   C558    1.408   .     S
C558   C561    1.519   .     S
C558   H560    1.115   .     S
H559   C174    1.110   1_565 S
C561   H564    1.111   .     S
H562   C177    1.110   1_565 S
H563   C177    1.106   1_565 S
O565   C566    1.408   .     S
C566   H568    1.114   .     S
C566   H183    1.113   1_565 S
C566   C185    1.520   1_565 S
C569   H571    1.110   .     S
C569   H572    1.111   .     S
H570   C185    1.111   1_565 S
O573   C574    1.422   .     S
C574   H576    1.113   .     S
C574   C577    1.517   .     S
C574   H575    1.116   .     S
C577   H579    1.111   .     S
C577   H580    1.107   .     S
C577   H578    1.109   .     S
O581   C582    1.417   .     S
C582   H583    1.110   .     S
C582   C585    1.517   .     S
C582   H584    1.115   .     S
C585   H586    1.110   .     S
C585   H587    1.110   .     S
C585   H588    1.110   .     S
O591   C592    1.409   .     S
C592   H594    1.115   .     S
H593   C208    1.111   1_565 S
C595   H597    1.110   .     S
C595   C208    1.518   1_565 S
C595   H212    1.110   1_565 S
C595   H726    1.108   .     S
O599   C600    1.409   .     S
C600   H601    1.110   .     S
C600   C603    1.520   .     S
C600   H602    1.115   .     S
C603   H604    1.110   .     S
C603   H605    1.110   .     S
C603   H222    1.110   1_565 S
O607   C1376   1.408   1_554 S
C608   C611    1.522   .     S
C608   H609    1.108   .     S
C608   O1375   1.408   .     S
C608   H1378   1.110   .     S
H610   C1376   1.110   1_554 S
C611   H614    1.111   .     S
H612   C739    1.111   .     S
H613   C739    1.107   .     S
O615   C616    1.414   .     S
C616   C619    1.521   .     S
C616   H618    1.117   .     S
C616   H1385   1.111   .     S
H617   C1384   1.111   1_554 S
C619   H622    1.110   .     S
C619   H620    1.110   .     S
C619   H1389   1.107   .     S
H621   C1387   1.107   1_554 S
O623   C624    1.414   .     S
C624   H626    1.111   .     S
C624   H625    1.113   .     S
C624   C627    1.520   .     S
C627   H629    1.110   .     S
C627   H630    1.110   .     S
C627   H628    1.109   .     S
O631   C632    1.416   .     S
C632   C635    1.522   .     S
C632   H634    1.115   .     S
C632   H633    1.110   .     S
C635   H637    1.111   .     S
C635   H636    1.106   .     S
C635   H638    1.109   .     S
C641   C661    1.449   .     S
C641   O677    1.292   .     A
C641   O675    1.291   .     A
C642   O676    1.290   .     A
C642   C662    1.454   .     S
C642   O678    1.295   .     A
C643   C645    1.419   .     A
C643   O735    1.384   .     S
C643   C651    1.420   .     A
C644   O743    1.382   .     S
C644   C652    1.413   .     A
C644   C646    1.410   .     A
C645   O751    1.381   .     S
C645   N673    1.367   .     A
C646   N674    1.372   .     A
C646   O759    1.379   .     S
C647   H671    1.081   .     S
C647   N673    1.354   .     A
C647   C649    1.401   .     A
C648   H672    1.079   .     S
C648   N674    1.364   .     A
C648   C650    1.413   .     A
C649   I767    2.107   .     S
C649   C651    1.422   .     A
C650   I768    2.131   .     S
C650   C652    1.421   .     A
C651   C1420   1.518   1_554 S
C652   C1419   1.518   .     S
C653   O681    1.288   .     A
C653   C655    1.414   .     S
C653   O679    1.276   .     A
C654   O682    1.288   .     A
C654   C656    1.414   .     S
C654   O680    1.276   .     A
C656   C399    1.339   1_655 S
C656   H414    1.088   1_655 S
C657   O685    1.380   .     S
C657   C667    1.417   .     A
C657   C659    1.375   .     A
C658   O693    1.383   .     S
C658   C660    1.393   .     A
C658   C668    1.419   .     A
C659   C661    1.399   .     A
C659   O701    1.386   .     S
C660   C662    1.409   .     A
C660   O709    1.382   .     S
C661   C663    1.405   .     A
C662   C664    1.397   .     A
C663   I717    2.136   .     S
C663   C665    1.395   .     A
C664   C666    1.379   .     A
C664   I718    2.129   .     S
C665   O719    1.382   .     S
C665   C667    1.423   .     A
C666   O727    1.382   .     S
C666   C668    1.418   .     A
C668   C283    1.477   1_565 S
H669   C399    1.088   1_655 S
N673   Zn684   2.011   .     S
N674   Zn683   2.011   .     S
O675   Zn683   2.014   .     S
O676   Zn684   2.014   .     S
O677   Zn684   2.005   .     S
O678   Zn683   2.005   .     S
O679   Zn683   1.975   .     S
O680   Zn684   1.975   .     S
O681   Zn684   1.998   .     S
O682   Zn683   1.998   .     S
O685   C686    1.408   .     S
C686   C689    1.519   .     S
C686   H688    1.115   .     S
H687   C302    1.110   1_565 S
C689   H692    1.111   .     S
H690   C305    1.110   1_565 S
H691   C305    1.106   1_565 S
O693   C694    1.408   .     S
C694   H696    1.114   .     S
C694   H311    1.113   1_565 S
C694   C313    1.520   1_565 S
C697   H699    1.110   .     S
C697   H700    1.111   .     S
H698   C313    1.111   1_565 S
O701   C702    1.422   .     S
C702   H704    1.113   .     S
C702   C705    1.517   .     S
C702   H703    1.116   .     S
C705   H707    1.111   .     S
C705   H708    1.107   .     S
C705   H706    1.109   .     S
O709   C710    1.417   .     S
C710   H711    1.110   .     S
C710   C713    1.517   .     S
C710   H712    1.115   .     S
C713   H714    1.110   .     S
C713   H715    1.110   .     S
C713   H716    1.110   .     S
O719   C720    1.409   .     S
C720   H722    1.115   .     S
H721   C336    1.111   1_565 S
C723   H725    1.110   .     S
C723   C336    1.518   1_565 S
C723   H340    1.110   1_565 S
C723   H470    1.108   1_655 S
O727   C728    1.409   .     S
C728   H729    1.110   .     S
C728   C731    1.520   .     S
C728   H730    1.115   .     S
C731   H732    1.110   .     S
C731   H733    1.110   .     S
C731   H350    1.110   1_565 S
O735   C1504   1.408   1_554 S
C736   C739    1.522   .     S
C736   H737    1.108   .     S
C736   O1503   1.408   .     S
C736   H1506   1.110   .     S
H738   C1504   1.110   1_554 S
C739   H742    1.111   .     S
H740   C483    1.111   1_655 S
H741   C483    1.107   1_655 S
O743   C744    1.414   .     S
C744   C747    1.521   .     S
C744   H746    1.117   .     S
C744   H1513   1.111   .     S
H745   C1512   1.111   1_554 S
C747   H750    1.110   .     S
C747   H748    1.110   .     S
C747   H1517   1.107   .     S
H749   C1515   1.107   1_554 S
O751   C752    1.414   .     S
C752   H754    1.111   .     S
C752   H753    1.113   .     S
C752   C755    1.520   .     S
C755   H757    1.110   .     S
C755   H758    1.110   .     S
C755   H756    1.109   .     S
O759   C760    1.416   .     S
C760   C763    1.522   .     S
C760   H762    1.115   .     S
C760   H761    1.110   .     S
C763   H765    1.111   .     S
C763   H764    1.106   .     S
C763   H766    1.109   .     S
C769   C789    1.449   .     S
C769   O805    1.292   .     A
C769   O803    1.291   .     A
C770   O804    1.290   .     A
C770   C790    1.454   .     S
C770   O806    1.295   .     A
C771   C773    1.419   .     A
C771   O863    1.384   .     S
C771   C779    1.420   .     A
C772   O871    1.382   .     S
C772   C780    1.413   .     A
C772   C774    1.410   .     A
C773   O879    1.381   .     S
C773   N801    1.367   .     A
C774   N802    1.372   .     A
C774   O887    1.379   .     S
C775   H799    1.081   .     S
C775   N801    1.354   .     A
C775   C777    1.401   .     A
C776   H800    1.079   .     S
C776   N802    1.364   .     A
C776   C778    1.413   .     A
C777   I895    2.107   .     S
C777   C779    1.422   .     A
C778   I896    2.131   .     S
C778   C780    1.421   .     A
C780   C11     1.518   1_556 S
C781   O809    1.288   .     A
C781   C783    1.414   .     S
C781   O807    1.276   .     A
C782   O810    1.288   .     A
C782   C784    1.414   .     S
C782   O808    1.276   .     A
C783   C1040   1.339   1_455 S
C783   H1053   1.088   1_455 S
C784   C911    1.339   .     S
C784   H926    1.088   .     S
C785   O813    1.380   .     S
C785   C795    1.417   .     A
C785   C787    1.375   .     A
C786   O821    1.383   .     S
C786   C788    1.393   .     A
C786   C796    1.419   .     A
C787   C789    1.399   .     A
C787   O829    1.386   .     S
C788   C790    1.409   .     A
C788   O837    1.382   .     S
C789   C791    1.405   .     A
C790   C792    1.397   .     A
C791   I845    2.136   .     S
C791   C793    1.395   .     A
C792   C794    1.379   .     A
C792   I846    2.129   .     S
C793   O847    1.382   .     S
C793   C795    1.423   .     A
C794   O855    1.382   .     S
C794   C796    1.418   .     A
C795   C1180   1.477   1_545 S
C796   C1179   1.477   .     S
H797   C911    1.088   .     S
H798   C1040   1.088   1_455 S
N801   Zn812   2.011   .     S
N802   Zn811   2.011   .     S
O803   Zn811   2.014   .     S
O804   Zn812   2.014   .     S
O805   Zn812   2.005   .     S
O806   Zn811   2.005   .     S
O807   Zn811   1.975   .     S
O808   Zn812   1.975   .     S
O809   Zn812   1.998   .     S
O810   Zn811   1.998   .     S
O813   C814    1.408   .     S
C814   C817    1.519   .     S
C814   H816    1.115   .     S
C814   H1199   1.110   1_545 S
H815   C1198   1.110   .     S
C817   H820    1.111   .     S
C817   H1202   1.110   1_545 S
C817   H1203   1.106   1_545 S
H818   C1201   1.110   .     S
H819   C1201   1.106   .     S
O821   C822    1.408   .     S
C822   H824    1.114   .     S
C822   H1207   1.113   .     S
C822   C1209   1.520   .     S
H823   C1206   1.113   1_545 S
C825   H827    1.110   .     S
C825   H828    1.111   .     S
C825   C1206   1.520   1_545 S
C825   H1210   1.111   1_545 S
H826   C1209   1.111   .     S
O829   C830    1.422   .     S
C830   H832    1.113   .     S
C830   C833    1.517   .     S
C830   H831    1.116   .     S
C833   H835    1.111   .     S
C833   H836    1.107   .     S
C833   H834    1.109   .     S
O837   C838    1.417   .     S
C838   H839    1.110   .     S
C838   C841    1.517   .     S
C838   H840    1.115   .     S
C841   H842    1.110   .     S
C841   H843    1.110   .     S
C841   H844    1.110   .     S
O847   C848    1.409   .     S
C848   H850    1.115   .     S
C848   H1233   1.111   1_545 S
C848   C1235   1.518   1_545 S
H849   C1232   1.111   .     S
C851   H853    1.110   .     S
C851   C1232   1.518   .     S
C851   H1236   1.110   .     S
C851   H982    1.108   .     S
H852   C1235   1.110   1_545 S
H854   C1107   1.108   1_455 S
O855   C856    1.409   .     S
C856   H857    1.110   .     S
C856   C859    1.520   .     S
C856   H858    1.115   .     S
C859   H860    1.110   .     S
C859   H861    1.110   .     S
C859   H1246   1.110   .     S
H862   C1243   1.110   1_545 S
C864   C867    1.522   .     S
C864   H865    1.108   .     S
C864   O95     1.408   1_556 S
C864   H98     1.110   1_556 S
C867   H870    1.111   .     S
C867   H1124   1.111   1_455 S
C867   H1125   1.107   1_455 S
H868   C995    1.111   .     S
H869   C995    1.107   .     S
O871   C872    1.414   .     S
C872   C875    1.521   .     S
C872   H874    1.117   .     S
C872   H105    1.111   1_556 S
C875   H878    1.110   .     S
C875   H876    1.110   .     S
C875   H109    1.107   1_556 S
O879   C880    1.414   .     S
C880   H882    1.111   .     S
C880   H881    1.113   .     S
C880   C883    1.520   .     S
C883   H885    1.110   .     S
C883   H886    1.110   .     S
C883   H884    1.109   .     S
O887   C888    1.416   .     S
C888   C891    1.522   .     S
C888   H890    1.115   .     S
C888   H889    1.110   .     S
C891   H893    1.111   .     S
C891   H892    1.106   .     S
C891   H894    1.109   .     S
C897   C917    1.449   .     S
C897   O933    1.292   .     A
C897   O931    1.291   .     A
C898   O932    1.290   .     A
C898   C918    1.454   .     S
C898   O934    1.295   .     A
C899   C901    1.419   .     A
C899   O991    1.384   .     S
C899   C907    1.420   .     A
C900   O999    1.382   .     S
C900   C908    1.413   .     A
C900   C902    1.410   .     A
C901   O1007   1.381   .     S
C901   N929    1.367   .     A
C902   N930    1.372   .     A
C902   O1015   1.379   .     S
C903   H927    1.081   .     S
C903   N929    1.354   .     A
C903   C905    1.401   .     A
C904   H928    1.079   .     S
C904   N930    1.364   .     A
C904   C906    1.413   .     A
C905   I1023   2.107   .     S
C905   C907    1.422   .     A
C906   I1024   2.131   .     S
C906   C908    1.421   .     A
C908   C139    1.518   1_556 S
C909   O937    1.288   .     A
C909   C911    1.414   .     S
C909   O935    1.276   .     A
C910   O938    1.288   .     A
C910   C912    1.414   .     S
C910   O936    1.276   .     A
C912   C1039   1.339   .     S
C912   H1054   1.088   .     S
C913   O941    1.380   .     S
C913   C923    1.417   .     A
C913   C915    1.375   .     A
C914   O949    1.383   .     S
C914   C916    1.393   .     A
C914   C924    1.419   .     A
C915   C917    1.399   .     A
C915   O957    1.386   .     S
C916   C918    1.409   .     A
C916   O965    1.382   .     S
C917   C919    1.405   .     A
C918   C920    1.397   .     A
C919   I973    2.136   .     S
C919   C921    1.395   .     A
C920   C922    1.379   .     A
C920   I974    2.129   .     S
C921   O975    1.382   .     S
C921   C923    1.423   .     A
C922   O983    1.382   .     S
C922   C924    1.418   .     A
C923   C1308   1.477   1_545 S
C924   C1307   1.477   .     S
H925   C1039   1.088   .     S
N929   Zn940   2.011   .     S
N930   Zn939   2.011   .     S
O931   Zn939   2.014   .     S
O932   Zn940   2.014   .     S
O933   Zn940   2.005   .     S
O934   Zn939   2.005   .     S
O935   Zn939   1.975   .     S
O936   Zn940   1.975   .     S
O937   Zn940   1.998   .     S
O938   Zn939   1.998   .     S
O941   C942    1.408   .     S
C942   C945    1.519   .     S
C942   H944    1.115   .     S
C942   H1327   1.110   1_545 S
H943   C1326   1.110   .     S
C945   H948    1.111   .     S
C945   H1330   1.110   1_545 S
C945   H1331   1.106   1_545 S
H946   C1329   1.110   .     S
H947   C1329   1.106   .     S
O949   C950    1.408   .     S
C950   H952    1.114   .     S
C950   H1335   1.113   .     S
C950   C1337   1.520   .     S
H951   C1334   1.113   1_545 S
C953   H955    1.110   .     S
C953   H956    1.111   .     S
C953   C1334   1.520   1_545 S
C953   H1338   1.111   1_545 S
H954   C1337   1.111   .     S
O957   C958    1.422   .     S
C958   H960    1.113   .     S
C958   C961    1.517   .     S
C958   H959    1.116   .     S
C961   H963    1.111   .     S
C961   H964    1.107   .     S
C961   H962    1.109   .     S
O965   C966    1.417   .     S
C966   H967    1.110   .     S
C966   C969    1.517   .     S
C966   H968    1.115   .     S
C969   H970    1.110   .     S
C969   H971    1.110   .     S
C969   H972    1.110   .     S
O975   C976    1.409   .     S
C976   H978    1.115   .     S
C976   H1361   1.111   1_545 S
C976   C1363   1.518   1_545 S
H977   C1360   1.111   .     S
C979   H981    1.110   .     S
C979   C1360   1.518   .     S
C979   H1364   1.110   .     S
C979   H1110   1.108   .     S
H980   C1363   1.110   1_545 S
O983   C984    1.409   .     S
C984   H985    1.110   .     S
C984   C987    1.520   .     S
C984   H986    1.115   .     S
C987   H988    1.110   .     S
C987   H989    1.110   .     S
C987   H1374   1.110   .     S
H990   C1371   1.110   1_545 S
C992   C995    1.522   .     S
C992   H993    1.108   .     S
C992   O223    1.408   1_556 S
C992   H226    1.110   1_556 S
C995   H998    1.111   .     S
H996   C1123   1.111   .     S
H997   C1123   1.107   .     S
O999   C1000   1.414   .     S
C1000  C1003   1.521   .     S
C1000  H1002   1.117   .     S
C1000  H233    1.111   1_556 S
C1003  H1006   1.110   .     S
C1003  H1004   1.110   .     S
C1003  H237    1.107   1_556 S
O1007  C1008   1.414   .     S
C1008  H1010   1.111   .     S
C1008  H1009   1.113   .     S
C1008  C1011   1.520   .     S
C1011  H1013   1.110   .     S
C1011  H1014   1.110   .     S
C1011  H1012   1.109   .     S
O1015  C1016   1.416   .     S
C1016  C1019   1.522   .     S
C1016  H1018   1.115   .     S
C1016  H1017   1.110   .     S
C1019  H1021   1.111   .     S
C1019  H1020   1.106   .     S
C1019  H1022   1.109   .     S
C1025  C1045   1.449   .     S
C1025  O1061   1.292   .     A
C1025  O1059   1.291   .     A
C1026  O1060   1.290   .     A
C1026  C1046   1.454   .     S
C1026  O1062   1.295   .     A
C1027  C1029   1.419   .     A
C1027  O1119   1.384   .     S
C1027  C1035   1.420   .     A
C1028  O1127   1.382   .     S
C1028  C1036   1.413   .     A
C1028  C1030   1.410   .     A
C1029  O1135   1.381   .     S
C1029  N1057   1.367   .     A
C1030  N1058   1.372   .     A
C1030  O1143   1.379   .     S
C1031  H1055   1.081   .     S
C1031  N1057   1.354   .     A
C1031  C1033   1.401   .     A
C1032  H1056   1.079   .     S
C1032  N1058   1.364   .     A
C1032  C1034   1.413   .     A
C1033  I1151   2.107   .     S
C1033  C1035   1.422   .     A
C1034  I1152   2.131   .     S
C1034  C1036   1.421   .     A
C1036  C267    1.518   1_556 S
C1037  O1065   1.288   .     A
C1037  C1039   1.414   .     S
C1037  O1063   1.276   .     A
C1038  O1066   1.288   .     A
C1038  C1040   1.414   .     S
C1038  O1064   1.276   .     A
C1040  C783    1.339   1_655 S
C1040  H798    1.088   1_655 S
C1041  O1069   1.380   .     S
C1041  C1051   1.417   .     A
C1041  C1043   1.375   .     A
C1042  O1077   1.383   .     S
C1042  C1044   1.393   .     A
C1042  C1052   1.419   .     A
C1043  C1045   1.399   .     A
C1043  O1085   1.386   .     S
C1044  C1046   1.409   .     A
C1044  O1093   1.382   .     S
C1045  C1047   1.405   .     A
C1046  C1048   1.397   .     A
C1047  I1101   2.136   .     S
C1047  C1049   1.395   .     A
C1048  C1050   1.379   .     A
C1048  I1102   2.129   .     S
C1049  O1103   1.382   .     S
C1049  C1051   1.423   .     A
C1050  O1111   1.382   .     S
C1050  C1052   1.418   .     A
C1051  C1436   1.477   1_545 S
C1052  C1435   1.477   .     S
H1053  C783    1.088   1_655 S
N1057  Zn1068  2.011   .     S
N1058  Zn1067  2.011   .     S
O1059  Zn1067  2.014   .     S
O1060  Zn1068  2.014   .     S
O1061  Zn1068  2.005   .     S
O1062  Zn1067  2.005   .     S
O1063  Zn1067  1.975   .     S
O1064  Zn1068  1.975   .     S
O1065  Zn1068  1.998   .     S
O1066  Zn1067  1.998   .     S
O1069  C1070   1.408   .     S
C1070  C1073   1.519   .     S
C1070  H1072   1.115   .     S
C1070  H1455   1.110   1_545 S
H1071  C1454   1.110   .     S
C1073  H1076   1.111   .     S
C1073  H1458   1.110   1_545 S
C1073  H1459   1.106   1_545 S
H1074  C1457   1.110   .     S
H1075  C1457   1.106   .     S
O1077  C1078   1.408   .     S
C1078  H1080   1.114   .     S
C1078  H1463   1.113   .     S
C1078  C1465   1.520   .     S
H1079  C1462   1.113   1_545 S
C1081  H1083   1.110   .     S
C1081  H1084   1.111   .     S
C1081  C1462   1.520   1_545 S
C1081  H1466   1.111   1_545 S
H1082  C1465   1.111   .     S
O1085  C1086   1.422   .     S
C1086  H1088   1.113   .     S
C1086  C1089   1.517   .     S
C1086  H1087   1.116   .     S
C1089  H1091   1.111   .     S
C1089  H1092   1.107   .     S
C1089  H1090   1.109   .     S
O1093  C1094   1.417   .     S
C1094  H1095   1.110   .     S
C1094  C1097   1.517   .     S
C1094  H1096   1.115   .     S
C1097  H1098   1.110   .     S
C1097  H1099   1.110   .     S
C1097  H1100   1.110   .     S
O1103  C1104   1.409   .     S
C1104  H1106   1.115   .     S
C1104  H1489   1.111   1_545 S
C1104  C1491   1.518   1_545 S
H1105  C1488   1.111   .     S
C1107  H1109   1.110   .     S
C1107  C1488   1.518   .     S
C1107  H1492   1.110   .     S
C1107  H854    1.108   1_655 S
H1108  C1491   1.110   1_545 S
O1111  C1112   1.409   .     S
C1112  H1113   1.110   .     S
C1112  C1115   1.520   .     S
C1112  H1114   1.115   .     S
C1115  H1116   1.110   .     S
C1115  H1117   1.110   .     S
C1115  H1502   1.110   .     S
H1118  C1499   1.110   1_545 S
C1120  C1123   1.522   .     S
C1120  H1121   1.108   .     S
C1120  O351    1.408   1_556 S
C1120  H354    1.110   1_556 S
C1123  H1126   1.111   .     S
H1124  C867    1.111   1_655 S
H1125  C867    1.107   1_655 S
O1127  C1128   1.414   .     S
C1128  C1131   1.521   .     S
C1128  H1130   1.117   .     S
C1128  H361    1.111   1_556 S
C1131  H1134   1.110   .     S
C1131  H1132   1.110   .     S
C1131  H365    1.107   1_556 S
O1135  C1136   1.414   .     S
C1136  H1138   1.111   .     S
C1136  H1137   1.113   .     S
C1136  C1139   1.520   .     S
C1139  H1141   1.110   .     S
C1139  H1142   1.110   .     S
C1139  H1140   1.109   .     S
O1143  C1144   1.416   .     S
C1144  C1147   1.522   .     S
C1144  H1146   1.115   .     S
C1144  H1145   1.110   .     S
C1147  H1149   1.111   .     S
C1147  H1148   1.106   .     S
C1147  H1150   1.109   .     S
C1153  C1173   1.449   .     S
C1153  O1189   1.292   .     A
C1153  O1187   1.291   .     A
C1154  O1188   1.290   .     A
C1154  C1174   1.454   .     S
C1154  O1190   1.295   .     A
C1155  C1157   1.419   .     A
C1155  O1247   1.384   .     S
C1155  C1163   1.420   .     A
C1156  O1255   1.382   .     S
C1156  C1164   1.413   .     A
C1156  C1158   1.410   .     A
C1157  O1263   1.381   .     S
C1157  N1185   1.367   .     A
C1158  N1186   1.372   .     A
C1158  O1271   1.379   .     S
C1159  H1183   1.081   .     S
C1159  N1185   1.354   .     A
C1159  C1161   1.401   .     A
C1160  H1184   1.079   .     S
C1160  N1186   1.364   .     A
C1160  C1162   1.413   .     A
C1161  I1279   2.107   .     S
C1161  C1163   1.422   .     A
C1162  I1280   2.131   .     S
C1162  C1164   1.421   .     A
C1164  C395    1.518   1_556 S
C1165  O1193   1.288   .     A
C1165  C1167   1.414   .     S
C1165  O1191   1.276   .     A
C1166  O1194   1.288   .     A
C1166  C1168   1.414   .     S
C1166  O1192   1.276   .     A
C1167  C1424   1.339   1_455 S
C1167  H1437   1.088   1_455 S
C1168  C1295   1.339   .     S
C1168  H1310   1.088   .     S
C1169  O1197   1.380   .     S
C1169  C1179   1.417   .     A
C1169  C1171   1.375   .     A
C1170  O1205   1.383   .     S
C1170  C1172   1.393   .     A
C1170  C1180   1.419   .     A
C1171  C1173   1.399   .     A
C1171  O1213   1.386   .     S
C1172  C1174   1.409   .     A
C1172  O1221   1.382   .     S
C1173  C1175   1.405   .     A
C1174  C1176   1.397   .     A
C1175  I1229   2.136   .     S
C1175  C1177   1.395   .     A
C1176  C1178   1.379   .     A
C1176  I1230   2.129   .     S
C1177  O1231   1.382   .     S
C1177  C1179   1.423   .     A
C1178  O1239   1.382   .     S
C1178  C1180   1.418   .     A
C1180  C795    1.477   1_565 S
H1181  C1295   1.088   .     S
H1182  C1424   1.088   1_455 S
N1185  Zn1196  2.011   .     S
N1186  Zn1195  2.011   .     S
O1187  Zn1195  2.014   .     S
O1188  Zn1196  2.014   .     S
O1189  Zn1196  2.005   .     S
O1190  Zn1195  2.005   .     S
O1191  Zn1195  1.975   .     S
O1192  Zn1196  1.975   .     S
O1193  Zn1196  1.998   .     S
O1194  Zn1195  1.998   .     S
O1197  C1198   1.408   .     S
C1198  C1201   1.519   .     S
C1198  H1200   1.115   .     S
H1199  C814    1.110   1_565 S
C1201  H1204   1.111   .     S
H1202  C817    1.110   1_565 S
H1203  C817    1.106   1_565 S
O1205  C1206   1.408   .     S
C1206  H1208   1.114   .     S
C1206  H823    1.113   1_565 S
C1206  C825    1.520   1_565 S
C1209  H1211   1.110   .     S
C1209  H1212   1.111   .     S
H1210  C825    1.111   1_565 S
O1213  C1214   1.422   .     S
C1214  H1216   1.113   .     S
C1214  C1217   1.517   .     S
C1214  H1215   1.116   .     S
C1217  H1219   1.111   .     S
C1217  H1220   1.107   .     S
C1217  H1218   1.109   .     S
O1221  C1222   1.417   .     S
C1222  H1223   1.110   .     S
C1222  C1225   1.517   .     S
C1222  H1224   1.115   .     S
C1225  H1226   1.110   .     S
C1225  H1227   1.110   .     S
C1225  H1228   1.110   .     S
O1231  C1232   1.409   .     S
C1232  H1234   1.115   .     S
H1233  C848    1.111   1_565 S
C1235  H1237   1.110   .     S
C1235  C848    1.518   1_565 S
C1235  H852    1.110   1_565 S
C1235  H1366   1.108   .     S
H1238  C1491   1.108   1_455 S
O1239  C1240   1.409   .     S
C1240  H1241   1.110   .     S
C1240  C1243   1.520   .     S
C1240  H1242   1.115   .     S
C1243  H1244   1.110   .     S
C1243  H1245   1.110   .     S
C1243  H862    1.110   1_565 S
C1248  C1251   1.522   .     S
C1248  H1249   1.108   .     S
C1248  O479    1.408   1_556 S
C1248  H482    1.110   1_556 S
C1251  H1254   1.111   .     S
C1251  H1508   1.111   1_455 S
C1251  H1509   1.107   1_455 S
H1252  C1379   1.111   .     S
H1253  C1379   1.107   .     S
O1255  C1256   1.414   .     S
C1256  C1259   1.521   .     S
C1256  H1258   1.117   .     S
C1256  H489    1.111   1_556 S
C1259  H1262   1.110   .     S
C1259  H1260   1.110   .     S
C1259  H493    1.107   1_556 S
O1263  C1264   1.414   .     S
C1264  H1266   1.111   .     S
C1264  H1265   1.113   .     S
C1264  C1267   1.520   .     S
C1267  H1269   1.110   .     S
C1267  H1270   1.110   .     S
C1267  H1268   1.109   .     S
O1271  C1272   1.416   .     S
C1272  C1275   1.522   .     S
C1272  H1274   1.115   .     S
C1272  H1273   1.110   .     S
C1275  H1277   1.111   .     S
C1275  H1276   1.106   .     S
C1275  H1278   1.109   .     S
C1281  C1301   1.449   .     S
C1281  O1317   1.292   .     A
C1281  O1315   1.291   .     A
C1282  O1316   1.290   .     A
C1282  C1302   1.454   .     S
C1282  O1318   1.295   .     A
C1283  C1285   1.419   .     A
C1283  O1375   1.384   .     S
C1283  C1291   1.420   .     A
C1284  O1383   1.382   .     S
C1284  C1292   1.413   .     A
C1284  C1286   1.410   .     A
C1285  O1391   1.381   .     S
C1285  N1313   1.367   .     A
C1286  N1314   1.372   .     A
C1286  O1399   1.379   .     S
C1287  H1311   1.081   .     S
C1287  N1313   1.354   .     A
C1287  C1289   1.401   .     A
C1288  H1312   1.079   .     S
C1288  N1314   1.364   .     A
C1288  C1290   1.413   .     A
C1289  I1407   2.107   .     S
C1289  C1291   1.422   .     A
C1290  I1408   2.131   .     S
C1290  C1292   1.421   .     A
C1292  C523    1.518   1_556 S
C1293  O1321   1.288   .     A
C1293  C1295   1.414   .     S
C1293  O1319   1.276   .     A
C1294  O1322   1.288   .     A
C1294  C1296   1.414   .     S
C1294  O1320   1.276   .     A
C1296  C1423   1.339   .     S
C1296  H1438   1.088   .     S
C1297  O1325   1.380   .     S
C1297  C1307   1.417   .     A
C1297  C1299   1.375   .     A
C1298  O1333   1.383   .     S
C1298  C1300   1.393   .     A
C1298  C1308   1.419   .     A
C1299  C1301   1.399   .     A
C1299  O1341   1.386   .     S
C1300  C1302   1.409   .     A
C1300  O1349   1.382   .     S
C1301  C1303   1.405   .     A
C1302  C1304   1.397   .     A
C1303  I1357   2.136   .     S
C1303  C1305   1.395   .     A
C1304  C1306   1.379   .     A
C1304  I1358   2.129   .     S
C1305  O1359   1.382   .     S
C1305  C1307   1.423   .     A
C1306  O1367   1.382   .     S
C1306  C1308   1.418   .     A
C1308  C923    1.477   1_565 S
H1309  C1423   1.088   .     S
N1313  Zn1324  2.011   .     S
N1314  Zn1323  2.011   .     S
O1315  Zn1323  2.014   .     S
O1316  Zn1324  2.014   .     S
O1317  Zn1324  2.005   .     S
O1318  Zn1323  2.005   .     S
O1319  Zn1323  1.975   .     S
O1320  Zn1324  1.975   .     S
O1321  Zn1324  1.998   .     S
O1322  Zn1323  1.998   .     S
O1325  C1326   1.408   .     S
C1326  C1329   1.519   .     S
C1326  H1328   1.115   .     S
H1327  C942    1.110   1_565 S
C1329  H1332   1.111   .     S
H1330  C945    1.110   1_565 S
H1331  C945    1.106   1_565 S
O1333  C1334   1.408   .     S
C1334  H1336   1.114   .     S
C1334  H951    1.113   1_565 S
C1334  C953    1.520   1_565 S
C1337  H1339   1.110   .     S
C1337  H1340   1.111   .     S
H1338  C953    1.111   1_565 S
O1341  C1342   1.422   .     S
C1342  H1344   1.113   .     S
C1342  C1345   1.517   .     S
C1342  H1343   1.116   .     S
C1345  H1347   1.111   .     S
C1345  H1348   1.107   .     S
C1345  H1346   1.109   .     S
O1349  C1350   1.417   .     S
C1350  H1351   1.110   .     S
C1350  C1353   1.517   .     S
C1350  H1352   1.115   .     S
C1353  H1354   1.110   .     S
C1353  H1355   1.110   .     S
C1353  H1356   1.110   .     S
O1359  C1360   1.409   .     S
C1360  H1362   1.115   .     S
H1361  C976    1.111   1_565 S
C1363  H1365   1.110   .     S
C1363  C976    1.518   1_565 S
C1363  H980    1.110   1_565 S
C1363  H1494   1.108   .     S
O1367  C1368   1.409   .     S
C1368  H1369   1.110   .     S
C1368  C1371   1.520   .     S
C1368  H1370   1.115   .     S
C1371  H1372   1.110   .     S
C1371  H1373   1.110   .     S
C1371  H990    1.110   1_565 S
C1376  C1379   1.522   .     S
C1376  H1377   1.108   .     S
C1376  O607    1.408   1_556 S
C1376  H610    1.110   1_556 S
C1379  H1382   1.111   .     S
H1380  C1507   1.111   .     S
H1381  C1507   1.107   .     S
O1383  C1384   1.414   .     S
C1384  C1387   1.521   .     S
C1384  H1386   1.117   .     S
C1384  H617    1.111   1_556 S
C1387  H1390   1.110   .     S
C1387  H1388   1.110   .     S
C1387  H621    1.107   1_556 S
O1391  C1392   1.414   .     S
C1392  H1394   1.111   .     S
C1392  H1393   1.113   .     S
C1392  C1395   1.520   .     S
C1395  H1397   1.110   .     S
C1395  H1398   1.110   .     S
C1395  H1396   1.109   .     S
O1399  C1400   1.416   .     S
C1400  C1403   1.522   .     S
C1400  H1402   1.115   .     S
C1400  H1401   1.110   .     S
C1403  H1405   1.111   .     S
C1403  H1404   1.106   .     S
C1403  H1406   1.109   .     S
C1409  C1429   1.449   .     S
C1409  O1445   1.292   .     A
C1409  O1443   1.291   .     A
C1410  O1444   1.290   .     A
C1410  C1430   1.454   .     S
C1410  O1446   1.295   .     A
C1411  C1413   1.419   .     A
C1411  O1503   1.384   .     S
C1411  C1419   1.420   .     A
C1412  O1511   1.382   .     S
C1412  C1420   1.413   .     A
C1412  C1414   1.410   .     A
C1413  O1519   1.381   .     S
C1413  N1441   1.367   .     A
C1414  N1442   1.372   .     A
C1414  O1527   1.379   .     S
C1415  H1439   1.081   .     S
C1415  N1441   1.354   .     A
C1415  C1417   1.401   .     A
C1416  H1440   1.079   .     S
C1416  N1442   1.364   .     A
C1416  C1418   1.413   .     A
C1417  I1535   2.107   .     S
C1417  C1419   1.422   .     A
C1418  I1536   2.131   .     S
C1418  C1420   1.421   .     A
C1420  C651    1.518   1_556 S
C1421  O1449   1.288   .     A
C1421  C1423   1.414   .     S
C1421  O1447   1.276   .     A
C1422  O1450   1.288   .     A
C1422  C1424   1.414   .     S
C1422  O1448   1.276   .     A
C1424  C1167   1.339   1_655 S
C1424  H1182   1.088   1_655 S
C1425  O1453   1.380   .     S
C1425  C1435   1.417   .     A
C1425  C1427   1.375   .     A
C1426  O1461   1.383   .     S
C1426  C1428   1.393   .     A
C1426  C1436   1.419   .     A
C1427  C1429   1.399   .     A
C1427  O1469   1.386   .     S
C1428  C1430   1.409   .     A
C1428  O1477   1.382   .     S
C1429  C1431   1.405   .     A
C1430  C1432   1.397   .     A
C1431  I1485   2.136   .     S
C1431  C1433   1.395   .     A
C1432  C1434   1.379   .     A
C1432  I1486   2.129   .     S
C1433  O1487   1.382   .     S
C1433  C1435   1.423   .     A
C1434  O1495   1.382   .     S
C1434  C1436   1.418   .     A
C1436  C1051   1.477   1_565 S
H1437  C1167   1.088   1_655 S
N1441  Zn1452  2.011   .     S
N1442  Zn1451  2.011   .     S
O1443  Zn1451  2.014   .     S
O1444  Zn1452  2.014   .     S
O1445  Zn1452  2.005   .     S
O1446  Zn1451  2.005   .     S
O1447  Zn1451  1.975   .     S
O1448  Zn1452  1.975   .     S
O1449  Zn1452  1.998   .     S
O1450  Zn1451  1.998   .     S
O1453  C1454   1.408   .     S
C1454  C1457   1.519   .     S
C1454  H1456   1.115   .     S
H1455  C1070   1.110   1_565 S
C1457  H1460   1.111   .     S
H1458  C1073   1.110   1_565 S
H1459  C1073   1.106   1_565 S
O1461  C1462   1.408   .     S
C1462  H1464   1.114   .     S
C1462  H1079   1.113   1_565 S
C1462  C1081   1.520   1_565 S
C1465  H1467   1.110   .     S
C1465  H1468   1.111   .     S
H1466  C1081   1.111   1_565 S
O1469  C1470   1.422   .     S
C1470  H1472   1.113   .     S
C1470  C1473   1.517   .     S
C1470  H1471   1.116   .     S
C1473  H1475   1.111   .     S
C1473  H1476   1.107   .     S
C1473  H1474   1.109   .     S
O1477  C1478   1.417   .     S
C1478  H1479   1.110   .     S
C1478  C1481   1.517   .     S
C1478  H1480   1.115   .     S
C1481  H1482   1.110   .     S
C1481  H1483   1.110   .     S
C1481  H1484   1.110   .     S
O1487  C1488   1.409   .     S
C1488  H1490   1.115   .     S
H1489  C1104   1.111   1_565 S
C1491  H1493   1.110   .     S
C1491  C1104   1.518   1_565 S
C1491  H1108   1.110   1_565 S
C1491  H1238   1.108   1_655 S
O1495  C1496   1.409   .     S
C1496  H1497   1.110   .     S
C1496  C1499   1.520   .     S
C1496  H1498   1.115   .     S
C1499  H1500   1.110   .     S
C1499  H1501   1.110   .     S
C1499  H1118   1.110   1_565 S
C1504  C1507   1.522   .     S
C1504  H1505   1.108   .     S
C1504  O735    1.408   1_556 S
C1504  H738    1.110   1_556 S
C1507  H1510   1.111   .     S
H1508  C1251   1.111   1_655 S
H1509  C1251   1.107   1_655 S
O1511  C1512   1.414   .     S
C1512  C1515   1.521   .     S
C1512  H1514   1.117   .     S
C1512  H745    1.111   1_556 S
C1515  H1518   1.110   .     S
C1515  H1516   1.110   .     S
C1515  H749    1.107   1_556 S
O1519  C1520   1.414   .     S
C1520  H1522   1.111   .     S
C1520  H1521   1.113   .     S
C1520  C1523   1.520   .     S
C1523  H1525   1.110   .     S
C1523  H1526   1.110   .     S
C1523  H1524   1.109   .     S
O1527  C1528   1.416   .     S
C1528  C1531   1.522   .     S
C1528  H1530   1.115   .     S
C1528  H1529   1.110   .     S
C1531  H1533   1.111   .     S
C1531  H1532   1.106   .     S
C1531  H1534   1.109   .     S
