data_str_m3_o1_o18_pcu_sym.153
_audit_creation_date              2020-01-03
_audit_creation_method            'Materials Studio'
_symmetry_space_group_name_H-M    'P1'
_symmetry_Int_Tables_number       1
_symmetry_cell_setting            triclinic
loop_
_symmetry_equiv_pos_as_xyz
  x,y,z
_cell_length_a                    29.5423
_cell_length_b                    32.1626
_cell_length_c                    31.0410
_cell_angle_alpha                 90.0486
_cell_angle_beta                  66.9986
_cell_angle_gamma                 89.9626
loop_
_atom_site_label
_atom_site_type_symbol
_atom_site_fract_x
_atom_site_fract_y
_atom_site_fract_z
_atom_site_U_iso_or_equiv
_atom_site_adp_type
_atom_site_occupancy
C1     C     0.16665   0.24671   0.25006   0.00000  Uiso   1.00
C2     C     0.16667   0.08663   0.24997   0.00000  Uiso   1.00
C3     C     0.12614   0.12349   0.04169   0.00000  Uiso   1.00
C4     C     0.21840   0.18928   0.45053   0.00000  Uiso   1.00
C5     C     0.09366   0.11379   0.02089   0.00000  Uiso   1.00
C6     C     0.25163   0.19782   0.47084   0.00000  Uiso   1.00
C7     C     0.20542   0.31203   0.25540   0.00000  Uiso   1.00
C8     C     0.12785   0.02131   0.24472   0.00000  Uiso   1.00
C9     C     0.20546   0.02128   0.25532   0.00000  Uiso   1.00
C10    C     0.12783   0.31206   0.24478   0.00000  Uiso   1.00
C11    C     0.16667   0.04248   0.24999   0.00000  Uiso   1.00
C12    C     0.16662   0.29086   0.25011   0.00000  Uiso   1.00
C13    C     0.32162   0.14216   0.21901   0.00000  Uiso   1.00
C14    C     0.01168   0.19113   0.28102   0.00000  Uiso   1.00
C15    C     0.03682   0.14285   0.21884   0.00000  Uiso   1.00
C16    C     0.29650   0.19045   0.28119   0.00000  Uiso   1.00
C17    C     0.13576   0.16596   0.33804   0.00000  Uiso   1.00
C18    C     0.19761   0.16685   0.16185   0.00000  Uiso   1.00
C19    C     0.11610   0.15972   0.38844   0.00000  Uiso   1.00
C20    C     0.21774   0.16854   0.11080   0.00000  Uiso   1.00
C21    C     0.06775   0.11935   0.45643   0.00000  Uiso   1.00
C22    C     0.27483   0.19591   0.03718   0.00000  Uiso   1.00
C23    C     0.07641   0.13281   0.41104   0.00000  Uiso   1.00
C24    C     0.26322   0.18728   0.08456   0.00000  Uiso   1.00
C25    C     0.14421   0.17484   0.41191   0.00000  Uiso   1.00
C26    C     0.18765   0.15433   0.08882   0.00000  Uiso   1.00
C27    C     0.13959   0.15824   0.45501   0.00000  Uiso   1.00
C28    C     0.19894   0.16212   0.04150   0.00000  Uiso   1.00
C29    C     0.09975   0.13093   0.47791   0.00000  Uiso   1.00
C30    C     0.24222   0.18490   0.01620   0.00000  Uiso   1.00
C31    C     0.17456   0.16671   0.47488   0.00000  Uiso   1.00
C32    C     0.16633   0.15071   0.01991   0.00000  Uiso   1.00
H33    H     0.06387   0.09228   0.03839   0.00000  Uiso   1.00
H34    H     0.28448   0.21548   0.45117   0.00000  Uiso   1.00
H35    H     0.15335   0.14007   0.11053   0.00000  Uiso   1.00
H36    H     0.17161   0.19781   0.39397   0.00000  Uiso   1.00
H37    H     0.03827   0.09744   0.47341   0.00000  Uiso   1.00
H38    H     0.30796   0.21323   0.01750   0.00000  Uiso   1.00
H39    H     0.11981   0.10759   0.07407   0.00000  Uiso   1.00
H40    H     0.22913   0.19998   0.41507   0.00000  Uiso   1.00
H41    H     0.23555   0.29585   0.25976   0.00000  Uiso   1.00
H42    H     0.09773   0.03748   0.24037   0.00000  Uiso   1.00
H43    H     0.23560   0.03744   0.25962   0.00000  Uiso   1.00
H44    H     0.09771   0.29590   0.24044   0.00000  Uiso   1.00
H45    H     0.06608   0.12471   0.19372   0.00000  Uiso   1.00
H46    H     0.26726   0.20857   0.30636   0.00000  Uiso   1.00
N47    N     0.04759   0.16668   0.25001   0.00000  Uiso   1.00
N48    N     0.28574   0.16666   0.24999   0.00000  Uiso   1.00
O49    O     0.12846   0.22775   0.25000   0.00000  Uiso   1.00
O50    O     0.20488   0.10558   0.24999   0.00000  Uiso   1.00
O51    O     0.20490   0.22774   0.25000   0.00000  Uiso   1.00
O52    O     0.12843   0.10559   0.25000   0.00000  Uiso   1.00
O53    O     0.10661   0.16667   0.31612   0.00000  Uiso   1.00
O54    O     0.22672   0.16666   0.18387   0.00000  Uiso   1.00
O55    O     0.18305   0.16666   0.31612   0.00000  Uiso   1.00
O56    O     0.15028   0.16667   0.18388   0.00000  Uiso   1.00
Zn57   Zn    0.11562   0.16667   0.25000   0.00000  Uiso   1.00
Zn58   Zn    0.21771   0.16666   0.25000   0.00000  Uiso   1.00
O59    O     0.29238   0.20250   0.10670   0.00000  Uiso   1.00
C60    C     0.00401   0.18063   0.09041   0.00000  Uiso   1.00
H61    H     0.33151   0.14635   0.09313   0.00000  Uiso   1.00
H62    H     0.02428   0.18897   0.11266   0.00000  Uiso   1.00
H63    H     0.02746   0.18955   0.05388   0.00000  Uiso   1.00
O64    O     0.05162   0.11441   0.38635   0.00000  Uiso   1.00
C65    C     0.00472   0.13267   0.40047   0.00000  Uiso   1.00
H66    H     0.31912   0.11941   0.37898   0.00000  Uiso   1.00
H67    H     0.00749   0.16683   0.39437   0.00000  Uiso   1.00
H68    H     0.31515   0.12560   0.43775   0.00000  Uiso   1.00
O69    O     0.30968   0.11954   0.18676   0.00000  Uiso   1.00
C70    C     0.33206   0.07993   0.17814   0.00000  Uiso   1.00
H71    H     0.33127   0.06476   0.21069   0.00000  Uiso   1.00
H72    H     0.03690   0.08202   0.15142   0.00000  Uiso   1.00
H73    H     0.31118   0.05963   0.16353   0.00000  Uiso   1.00
O74    O     0.02346   0.21372   0.31336   0.00000  Uiso   1.00
C75    C     0.00222   0.25378   0.32075   0.00000  Uiso   1.00
H76    H     0.29710   0.25261   0.34704   0.00000  Uiso   1.00
H77    H     0.00399   0.26856   0.28767   0.00000  Uiso   1.00
H78    H     0.02327   0.27391   0.33533   0.00000  Uiso   1.00
C79    C     0.49998   0.24671   0.25006   0.00000  Uiso   1.00
C80    C     0.50001   0.08663   0.24997   0.00000  Uiso   1.00
C81    C     0.45947   0.12349   0.04169   0.00000  Uiso   1.00
C82    C     0.55173   0.18928   0.45053   0.00000  Uiso   1.00
C83    C     0.42699   0.11379   0.02089   0.00000  Uiso   1.00
C84    C     0.58496   0.19782   0.47084   0.00000  Uiso   1.00
C85    C     0.53876   0.31203   0.25540   0.00000  Uiso   1.00
C86    C     0.46119   0.02131   0.24472   0.00000  Uiso   1.00
C87    C     0.53879   0.02128   0.25532   0.00000  Uiso   1.00
C88    C     0.46116   0.31206   0.24478   0.00000  Uiso   1.00
C89    C     0.50001   0.04248   0.24999   0.00000  Uiso   1.00
C90    C     0.49995   0.29086   0.25011   0.00000  Uiso   1.00
C91    C     0.65496   0.14216   0.21901   0.00000  Uiso   1.00
C92    C     0.34501   0.19113   0.28102   0.00000  Uiso   1.00
C93    C     0.37016   0.14285   0.21884   0.00000  Uiso   1.00
C94    C     0.62983   0.19045   0.28119   0.00000  Uiso   1.00
C95    C     0.46910   0.16596   0.33804   0.00000  Uiso   1.00
C96    C     0.53095   0.16685   0.16185   0.00000  Uiso   1.00
C97    C     0.44943   0.15972   0.38844   0.00000  Uiso   1.00
C98    C     0.55108   0.16854   0.11080   0.00000  Uiso   1.00
C99    C     0.40108   0.11935   0.45643   0.00000  Uiso   1.00
C100   C     0.60816   0.19591   0.03718   0.00000  Uiso   1.00
C101   C     0.40974   0.13281   0.41104   0.00000  Uiso   1.00
C102   C     0.59656   0.18728   0.08456   0.00000  Uiso   1.00
C103   C     0.47754   0.17484   0.41191   0.00000  Uiso   1.00
C104   C     0.52099   0.15433   0.08882   0.00000  Uiso   1.00
C105   C     0.47292   0.15824   0.45501   0.00000  Uiso   1.00
C106   C     0.53228   0.16212   0.04150   0.00000  Uiso   1.00
C107   C     0.43308   0.13093   0.47791   0.00000  Uiso   1.00
C108   C     0.57556   0.18490   0.01620   0.00000  Uiso   1.00
C109   C     0.50790   0.16671   0.47488   0.00000  Uiso   1.00
C110   C     0.49967   0.15071   0.01991   0.00000  Uiso   1.00
H111   H     0.39720   0.09228   0.03839   0.00000  Uiso   1.00
H112   H     0.61781   0.21548   0.45117   0.00000  Uiso   1.00
H113   H     0.48668   0.14007   0.11053   0.00000  Uiso   1.00
H114   H     0.50494   0.19781   0.39397   0.00000  Uiso   1.00
H115   H     0.37160   0.09744   0.47341   0.00000  Uiso   1.00
H116   H     0.64129   0.21323   0.01750   0.00000  Uiso   1.00
H117   H     0.45315   0.10759   0.07407   0.00000  Uiso   1.00
H118   H     0.56246   0.19998   0.41507   0.00000  Uiso   1.00
H119   H     0.56888   0.29585   0.25976   0.00000  Uiso   1.00
H120   H     0.43106   0.03748   0.24037   0.00000  Uiso   1.00
H121   H     0.56893   0.03744   0.25962   0.00000  Uiso   1.00
H122   H     0.43104   0.29590   0.24044   0.00000  Uiso   1.00
H123   H     0.39942   0.12471   0.19372   0.00000  Uiso   1.00
H124   H     0.60059   0.20857   0.30636   0.00000  Uiso   1.00
N125   N     0.38093   0.16668   0.25001   0.00000  Uiso   1.00
N126   N     0.61907   0.16666   0.24999   0.00000  Uiso   1.00
O127   O     0.46179   0.22775   0.25000   0.00000  Uiso   1.00
O128   O     0.53821   0.10558   0.24999   0.00000  Uiso   1.00
O129   O     0.53823   0.22774   0.25000   0.00000  Uiso   1.00
O130   O     0.46177   0.10559   0.25000   0.00000  Uiso   1.00
O131   O     0.43994   0.16667   0.31612   0.00000  Uiso   1.00
O132   O     0.56006   0.16666   0.18387   0.00000  Uiso   1.00
O133   O     0.51639   0.16666   0.31612   0.00000  Uiso   1.00
O134   O     0.48361   0.16667   0.18388   0.00000  Uiso   1.00
Zn135  Zn    0.44896   0.16667   0.25000   0.00000  Uiso   1.00
Zn136  Zn    0.55104   0.16666   0.25000   0.00000  Uiso   1.00
O137   O     0.62571   0.20250   0.10670   0.00000  Uiso   1.00
C138   C     0.33734   0.18063   0.09041   0.00000  Uiso   1.00
H139   H     0.66484   0.14635   0.09313   0.00000  Uiso   1.00
H140   H     0.35761   0.18897   0.11266   0.00000  Uiso   1.00
H141   H     0.36079   0.18955   0.05388   0.00000  Uiso   1.00
O142   O     0.38496   0.11441   0.38635   0.00000  Uiso   1.00
C143   C     0.33805   0.13267   0.40047   0.00000  Uiso   1.00
H144   H     0.65246   0.11941   0.37898   0.00000  Uiso   1.00
H145   H     0.34082   0.16683   0.39437   0.00000  Uiso   1.00
H146   H     0.64849   0.12560   0.43775   0.00000  Uiso   1.00
O147   O     0.64302   0.11954   0.18676   0.00000  Uiso   1.00
C148   C     0.66539   0.07993   0.17814   0.00000  Uiso   1.00
H149   H     0.66460   0.06476   0.21069   0.00000  Uiso   1.00
H150   H     0.37023   0.08202   0.15142   0.00000  Uiso   1.00
H151   H     0.64451   0.05963   0.16353   0.00000  Uiso   1.00
O152   O     0.35680   0.21372   0.31336   0.00000  Uiso   1.00
C153   C     0.33556   0.25378   0.32075   0.00000  Uiso   1.00
H154   H     0.63044   0.25261   0.34704   0.00000  Uiso   1.00
H155   H     0.33732   0.26856   0.28767   0.00000  Uiso   1.00
H156   H     0.35660   0.27391   0.33533   0.00000  Uiso   1.00
C157   C     0.83331   0.24671   0.25006   0.00000  Uiso   1.00
C158   C     0.83334   0.08663   0.24997   0.00000  Uiso   1.00
C159   C     0.79280   0.12349   0.04169   0.00000  Uiso   1.00
C160   C     0.88506   0.18928   0.45053   0.00000  Uiso   1.00
C161   C     0.76032   0.11379   0.02089   0.00000  Uiso   1.00
C162   C     0.91829   0.19782   0.47084   0.00000  Uiso   1.00
C163   C     0.87209   0.31203   0.25540   0.00000  Uiso   1.00
C164   C     0.79452   0.02131   0.24472   0.00000  Uiso   1.00
C165   C     0.87213   0.02128   0.25532   0.00000  Uiso   1.00
C166   C     0.79450   0.31206   0.24478   0.00000  Uiso   1.00
C167   C     0.83334   0.04248   0.24999   0.00000  Uiso   1.00
C168   C     0.83328   0.29086   0.25011   0.00000  Uiso   1.00
C169   C     0.98829   0.14216   0.21901   0.00000  Uiso   1.00
C170   C     0.67834   0.19113   0.28102   0.00000  Uiso   1.00
C171   C     0.70349   0.14285   0.21884   0.00000  Uiso   1.00
C172   C     0.96317   0.19045   0.28119   0.00000  Uiso   1.00
C173   C     0.80243   0.16596   0.33804   0.00000  Uiso   1.00
C174   C     0.86428   0.16685   0.16185   0.00000  Uiso   1.00
C175   C     0.78276   0.15972   0.38844   0.00000  Uiso   1.00
C176   C     0.88441   0.16854   0.11080   0.00000  Uiso   1.00
C177   C     0.73442   0.11935   0.45643   0.00000  Uiso   1.00
C178   C     0.94150   0.19591   0.03718   0.00000  Uiso   1.00
C179   C     0.74307   0.13281   0.41104   0.00000  Uiso   1.00
C180   C     0.92989   0.18728   0.08456   0.00000  Uiso   1.00
C181   C     0.81087   0.17484   0.41191   0.00000  Uiso   1.00
C182   C     0.85432   0.15433   0.08882   0.00000  Uiso   1.00
C183   C     0.80626   0.15824   0.45501   0.00000  Uiso   1.00
C184   C     0.86561   0.16212   0.04150   0.00000  Uiso   1.00
C185   C     0.76641   0.13093   0.47791   0.00000  Uiso   1.00
C186   C     0.90889   0.18490   0.01620   0.00000  Uiso   1.00
C187   C     0.84123   0.16671   0.47488   0.00000  Uiso   1.00
C188   C     0.83300   0.15071   0.01991   0.00000  Uiso   1.00
H189   H     0.73053   0.09228   0.03839   0.00000  Uiso   1.00
H190   H     0.95114   0.21548   0.45117   0.00000  Uiso   1.00
H191   H     0.82001   0.14007   0.11053   0.00000  Uiso   1.00
H192   H     0.83827   0.19781   0.39397   0.00000  Uiso   1.00
H193   H     0.70494   0.09744   0.47341   0.00000  Uiso   1.00
H194   H     0.97462   0.21323   0.01750   0.00000  Uiso   1.00
H195   H     0.78648   0.10759   0.07407   0.00000  Uiso   1.00
H196   H     0.89579   0.19998   0.41507   0.00000  Uiso   1.00
H197   H     0.90221   0.29585   0.25976   0.00000  Uiso   1.00
H198   H     0.76440   0.03748   0.24037   0.00000  Uiso   1.00
H199   H     0.90227   0.03744   0.25962   0.00000  Uiso   1.00
H200   H     0.76438   0.29590   0.24044   0.00000  Uiso   1.00
H201   H     0.73275   0.12471   0.19372   0.00000  Uiso   1.00
H202   H     0.93392   0.20857   0.30636   0.00000  Uiso   1.00
N203   N     0.71426   0.16668   0.25001   0.00000  Uiso   1.00
N204   N     0.95241   0.16666   0.24999   0.00000  Uiso   1.00
O205   O     0.79512   0.22775   0.25000   0.00000  Uiso   1.00
O206   O     0.87154   0.10558   0.24999   0.00000  Uiso   1.00
O207   O     0.87157   0.22774   0.25000   0.00000  Uiso   1.00
O208   O     0.79510   0.10559   0.25000   0.00000  Uiso   1.00
O209   O     0.77328   0.16667   0.31612   0.00000  Uiso   1.00
O210   O     0.89339   0.16666   0.18387   0.00000  Uiso   1.00
O211   O     0.84972   0.16666   0.31612   0.00000  Uiso   1.00
O212   O     0.81695   0.16667   0.18388   0.00000  Uiso   1.00
Zn213  Zn    0.78229   0.16667   0.25000   0.00000  Uiso   1.00
Zn214  Zn    0.88438   0.16666   0.25000   0.00000  Uiso   1.00
O215   O     0.95905   0.20250   0.10670   0.00000  Uiso   1.00
C216   C     0.67068   0.18063   0.09041   0.00000  Uiso   1.00
H217   H     0.99817   0.14635   0.09313   0.00000  Uiso   1.00
H218   H     0.69094   0.18897   0.11266   0.00000  Uiso   1.00
H219   H     0.69413   0.18955   0.05388   0.00000  Uiso   1.00
O220   O     0.71829   0.11441   0.38635   0.00000  Uiso   1.00
C221   C     0.67138   0.13267   0.40047   0.00000  Uiso   1.00
H222   H     0.98579   0.11941   0.37898   0.00000  Uiso   1.00
H223   H     0.67415   0.16683   0.39437   0.00000  Uiso   1.00
H224   H     0.98182   0.12560   0.43775   0.00000  Uiso   1.00
O225   O     0.97635   0.11954   0.18676   0.00000  Uiso   1.00
C226   C     0.99872   0.07993   0.17814   0.00000  Uiso   1.00
H227   H     0.99793   0.06476   0.21069   0.00000  Uiso   1.00
H228   H     0.70357   0.08202   0.15142   0.00000  Uiso   1.00
H229   H     0.97784   0.05963   0.16353   0.00000  Uiso   1.00
O230   O     0.69013   0.21372   0.31336   0.00000  Uiso   1.00
C231   C     0.66889   0.25378   0.32075   0.00000  Uiso   1.00
H232   H     0.96377   0.25261   0.34704   0.00000  Uiso   1.00
H233   H     0.67066   0.26856   0.28767   0.00000  Uiso   1.00
H234   H     0.68994   0.27391   0.33533   0.00000  Uiso   1.00
C235   C     0.16665   0.58004   0.25006   0.00000  Uiso   1.00
C236   C     0.16667   0.41996   0.24997   0.00000  Uiso   1.00
C237   C     0.12614   0.45682   0.04169   0.00000  Uiso   1.00
C238   C     0.21840   0.52261   0.45053   0.00000  Uiso   1.00
C239   C     0.09366   0.44712   0.02089   0.00000  Uiso   1.00
C240   C     0.25163   0.53116   0.47084   0.00000  Uiso   1.00
C241   C     0.20542   0.64537   0.25540   0.00000  Uiso   1.00
C242   C     0.12785   0.35464   0.24472   0.00000  Uiso   1.00
C243   C     0.20546   0.35461   0.25532   0.00000  Uiso   1.00
C244   C     0.12783   0.64539   0.24478   0.00000  Uiso   1.00
C245   C     0.16667   0.37581   0.24999   0.00000  Uiso   1.00
C246   C     0.16662   0.62420   0.25011   0.00000  Uiso   1.00
C247   C     0.32162   0.47550   0.21901   0.00000  Uiso   1.00
C248   C     0.01168   0.52446   0.28102   0.00000  Uiso   1.00
C249   C     0.03682   0.47618   0.21884   0.00000  Uiso   1.00
C250   C     0.29650   0.52379   0.28119   0.00000  Uiso   1.00
C251   C     0.13576   0.49930   0.33804   0.00000  Uiso   1.00
C252   C     0.19761   0.50019   0.16185   0.00000  Uiso   1.00
C253   C     0.11610   0.49306   0.38844   0.00000  Uiso   1.00
C254   C     0.21774   0.50187   0.11080   0.00000  Uiso   1.00
C255   C     0.06775   0.45268   0.45643   0.00000  Uiso   1.00
C256   C     0.27483   0.52925   0.03718   0.00000  Uiso   1.00
C257   C     0.07641   0.46614   0.41104   0.00000  Uiso   1.00
C258   C     0.26322   0.52062   0.08456   0.00000  Uiso   1.00
C259   C     0.14421   0.50817   0.41191   0.00000  Uiso   1.00
C260   C     0.18765   0.48767   0.08882   0.00000  Uiso   1.00
C261   C     0.13959   0.49158   0.45501   0.00000  Uiso   1.00
C262   C     0.19894   0.49545   0.04150   0.00000  Uiso   1.00
C263   C     0.09975   0.46427   0.47791   0.00000  Uiso   1.00
C264   C     0.24222   0.51823   0.01620   0.00000  Uiso   1.00
C265   C     0.17456   0.50004   0.47488   0.00000  Uiso   1.00
C266   C     0.16633   0.48404   0.01991   0.00000  Uiso   1.00
H267   H     0.06387   0.42562   0.03839   0.00000  Uiso   1.00
H268   H     0.28448   0.54881   0.45117   0.00000  Uiso   1.00
H269   H     0.15335   0.47341   0.11053   0.00000  Uiso   1.00
H270   H     0.17161   0.53114   0.39397   0.00000  Uiso   1.00
H271   H     0.03827   0.43077   0.47341   0.00000  Uiso   1.00
H272   H     0.30796   0.54656   0.01750   0.00000  Uiso   1.00
H273   H     0.11981   0.44092   0.07407   0.00000  Uiso   1.00
H274   H     0.22913   0.53331   0.41507   0.00000  Uiso   1.00
H275   H     0.23555   0.62919   0.25976   0.00000  Uiso   1.00
H276   H     0.09773   0.37082   0.24037   0.00000  Uiso   1.00
H277   H     0.23560   0.37077   0.25962   0.00000  Uiso   1.00
H278   H     0.09771   0.62924   0.24044   0.00000  Uiso   1.00
H279   H     0.06608   0.45805   0.19372   0.00000  Uiso   1.00
H280   H     0.26726   0.54190   0.30636   0.00000  Uiso   1.00
N281   N     0.04759   0.50001   0.25001   0.00000  Uiso   1.00
N282   N     0.28574   0.49999   0.24999   0.00000  Uiso   1.00
O283   O     0.12846   0.56108   0.25000   0.00000  Uiso   1.00
O284   O     0.20488   0.43892   0.24999   0.00000  Uiso   1.00
O285   O     0.20490   0.56107   0.25000   0.00000  Uiso   1.00
O286   O     0.12843   0.43893   0.25000   0.00000  Uiso   1.00
O287   O     0.10661   0.50001   0.31612   0.00000  Uiso   1.00
O288   O     0.22672   0.49999   0.18387   0.00000  Uiso   1.00
O289   O     0.18305   0.50000   0.31612   0.00000  Uiso   1.00
O290   O     0.15028   0.50000   0.18388   0.00000  Uiso   1.00
Zn291  Zn    0.11562   0.50001   0.25000   0.00000  Uiso   1.00
Zn292  Zn    0.21771   0.49999   0.25000   0.00000  Uiso   1.00
O293   O     0.29238   0.53584   0.10670   0.00000  Uiso   1.00
C294   C     0.00401   0.51396   0.09041   0.00000  Uiso   1.00
H295   H     0.33151   0.47968   0.09313   0.00000  Uiso   1.00
H296   H     0.02428   0.52230   0.11266   0.00000  Uiso   1.00
H297   H     0.02746   0.52288   0.05388   0.00000  Uiso   1.00
O298   O     0.05162   0.44775   0.38635   0.00000  Uiso   1.00
C299   C     0.00472   0.46600   0.40047   0.00000  Uiso   1.00
H300   H     0.31912   0.45274   0.37898   0.00000  Uiso   1.00
H301   H     0.00749   0.50017   0.39437   0.00000  Uiso   1.00
H302   H     0.31515   0.45893   0.43775   0.00000  Uiso   1.00
O303   O     0.30968   0.45287   0.18676   0.00000  Uiso   1.00
C304   C     0.33206   0.41326   0.17814   0.00000  Uiso   1.00
H305   H     0.33127   0.39809   0.21069   0.00000  Uiso   1.00
H306   H     0.03690   0.41536   0.15142   0.00000  Uiso   1.00
H307   H     0.31118   0.39297   0.16353   0.00000  Uiso   1.00
O308   O     0.02346   0.54706   0.31336   0.00000  Uiso   1.00
C309   C     0.00222   0.58711   0.32075   0.00000  Uiso   1.00
H310   H     0.29710   0.58594   0.34704   0.00000  Uiso   1.00
H311   H     0.00399   0.60189   0.28767   0.00000  Uiso   1.00
H312   H     0.02327   0.60725   0.33533   0.00000  Uiso   1.00
C313   C     0.49998   0.58004   0.25006   0.00000  Uiso   1.00
C314   C     0.50001   0.41996   0.24997   0.00000  Uiso   1.00
C315   C     0.45947   0.45682   0.04169   0.00000  Uiso   1.00
C316   C     0.55173   0.52261   0.45053   0.00000  Uiso   1.00
C317   C     0.42699   0.44712   0.02089   0.00000  Uiso   1.00
C318   C     0.58496   0.53116   0.47084   0.00000  Uiso   1.00
C319   C     0.53876   0.64537   0.25540   0.00000  Uiso   1.00
C320   C     0.46119   0.35464   0.24472   0.00000  Uiso   1.00
C321   C     0.53879   0.35461   0.25532   0.00000  Uiso   1.00
C322   C     0.46116   0.64539   0.24478   0.00000  Uiso   1.00
C323   C     0.50001   0.37581   0.24999   0.00000  Uiso   1.00
C324   C     0.49995   0.62420   0.25011   0.00000  Uiso   1.00
C325   C     0.65496   0.47550   0.21901   0.00000  Uiso   1.00
C326   C     0.34501   0.52446   0.28102   0.00000  Uiso   1.00
C327   C     0.37016   0.47618   0.21884   0.00000  Uiso   1.00
C328   C     0.62983   0.52379   0.28119   0.00000  Uiso   1.00
C329   C     0.46910   0.49930   0.33804   0.00000  Uiso   1.00
C330   C     0.53095   0.50019   0.16185   0.00000  Uiso   1.00
C331   C     0.44943   0.49306   0.38844   0.00000  Uiso   1.00
C332   C     0.55108   0.50187   0.11080   0.00000  Uiso   1.00
C333   C     0.40108   0.45268   0.45643   0.00000  Uiso   1.00
C334   C     0.60816   0.52925   0.03718   0.00000  Uiso   1.00
C335   C     0.40974   0.46614   0.41104   0.00000  Uiso   1.00
C336   C     0.59656   0.52062   0.08456   0.00000  Uiso   1.00
C337   C     0.47754   0.50817   0.41191   0.00000  Uiso   1.00
C338   C     0.52099   0.48767   0.08882   0.00000  Uiso   1.00
C339   C     0.47292   0.49158   0.45501   0.00000  Uiso   1.00
C340   C     0.53228   0.49545   0.04150   0.00000  Uiso   1.00
C341   C     0.43308   0.46427   0.47791   0.00000  Uiso   1.00
C342   C     0.57556   0.51823   0.01620   0.00000  Uiso   1.00
C343   C     0.50790   0.50004   0.47488   0.00000  Uiso   1.00
C344   C     0.49967   0.48404   0.01991   0.00000  Uiso   1.00
H345   H     0.39720   0.42562   0.03839   0.00000  Uiso   1.00
H346   H     0.61781   0.54881   0.45117   0.00000  Uiso   1.00
H347   H     0.48668   0.47341   0.11053   0.00000  Uiso   1.00
H348   H     0.50494   0.53114   0.39397   0.00000  Uiso   1.00
H349   H     0.37160   0.43077   0.47341   0.00000  Uiso   1.00
H350   H     0.64129   0.54656   0.01750   0.00000  Uiso   1.00
H351   H     0.45315   0.44092   0.07407   0.00000  Uiso   1.00
H352   H     0.56246   0.53331   0.41507   0.00000  Uiso   1.00
H353   H     0.56888   0.62919   0.25976   0.00000  Uiso   1.00
H354   H     0.43106   0.37082   0.24037   0.00000  Uiso   1.00
H355   H     0.56893   0.37077   0.25962   0.00000  Uiso   1.00
H356   H     0.43104   0.62924   0.24044   0.00000  Uiso   1.00
H357   H     0.39942   0.45805   0.19372   0.00000  Uiso   1.00
H358   H     0.60059   0.54190   0.30636   0.00000  Uiso   1.00
N359   N     0.38093   0.50001   0.25001   0.00000  Uiso   1.00
N360   N     0.61907   0.49999   0.24999   0.00000  Uiso   1.00
O361   O     0.46179   0.56108   0.25000   0.00000  Uiso   1.00
O362   O     0.53821   0.43892   0.24999   0.00000  Uiso   1.00
O363   O     0.53823   0.56107   0.25000   0.00000  Uiso   1.00
O364   O     0.46177   0.43893   0.25000   0.00000  Uiso   1.00
O365   O     0.43994   0.50001   0.31612   0.00000  Uiso   1.00
O366   O     0.56006   0.49999   0.18387   0.00000  Uiso   1.00
O367   O     0.51639   0.50000   0.31612   0.00000  Uiso   1.00
O368   O     0.48361   0.50000   0.18388   0.00000  Uiso   1.00
Zn369  Zn    0.44896   0.50001   0.25000   0.00000  Uiso   1.00
Zn370  Zn    0.55104   0.49999   0.25000   0.00000  Uiso   1.00
O371   O     0.62571   0.53584   0.10670   0.00000  Uiso   1.00
C372   C     0.33734   0.51396   0.09041   0.00000  Uiso   1.00
H373   H     0.66484   0.47968   0.09313   0.00000  Uiso   1.00
H374   H     0.35761   0.52230   0.11266   0.00000  Uiso   1.00
H375   H     0.36079   0.52288   0.05388   0.00000  Uiso   1.00
O376   O     0.38496   0.44775   0.38635   0.00000  Uiso   1.00
C377   C     0.33805   0.46600   0.40047   0.00000  Uiso   1.00
H378   H     0.65246   0.45274   0.37898   0.00000  Uiso   1.00
H379   H     0.34082   0.50017   0.39437   0.00000  Uiso   1.00
H380   H     0.64849   0.45893   0.43775   0.00000  Uiso   1.00
O381   O     0.64302   0.45287   0.18676   0.00000  Uiso   1.00
C382   C     0.66539   0.41326   0.17814   0.00000  Uiso   1.00
H383   H     0.66460   0.39809   0.21069   0.00000  Uiso   1.00
H384   H     0.37023   0.41536   0.15142   0.00000  Uiso   1.00
H385   H     0.64451   0.39297   0.16353   0.00000  Uiso   1.00
O386   O     0.35680   0.54706   0.31336   0.00000  Uiso   1.00
C387   C     0.33556   0.58711   0.32075   0.00000  Uiso   1.00
H388   H     0.63044   0.58594   0.34704   0.00000  Uiso   1.00
H389   H     0.33732   0.60189   0.28767   0.00000  Uiso   1.00
H390   H     0.35660   0.60725   0.33533   0.00000  Uiso   1.00
C391   C     0.83331   0.58004   0.25006   0.00000  Uiso   1.00
C392   C     0.83334   0.41996   0.24997   0.00000  Uiso   1.00
C393   C     0.79280   0.45682   0.04169   0.00000  Uiso   1.00
C394   C     0.88506   0.52261   0.45053   0.00000  Uiso   1.00
C395   C     0.76032   0.44712   0.02089   0.00000  Uiso   1.00
C396   C     0.91829   0.53116   0.47084   0.00000  Uiso   1.00
C397   C     0.87209   0.64537   0.25540   0.00000  Uiso   1.00
C398   C     0.79452   0.35464   0.24472   0.00000  Uiso   1.00
C399   C     0.87213   0.35461   0.25532   0.00000  Uiso   1.00
C400   C     0.79450   0.64539   0.24478   0.00000  Uiso   1.00
C401   C     0.83334   0.37581   0.24999   0.00000  Uiso   1.00
C402   C     0.83328   0.62420   0.25011   0.00000  Uiso   1.00
C403   C     0.98829   0.47550   0.21901   0.00000  Uiso   1.00
C404   C     0.67834   0.52446   0.28102   0.00000  Uiso   1.00
C405   C     0.70349   0.47618   0.21884   0.00000  Uiso   1.00
C406   C     0.96317   0.52379   0.28119   0.00000  Uiso   1.00
C407   C     0.80243   0.49930   0.33804   0.00000  Uiso   1.00
C408   C     0.86428   0.50019   0.16185   0.00000  Uiso   1.00
C409   C     0.78276   0.49306   0.38844   0.00000  Uiso   1.00
C410   C     0.88441   0.50187   0.11080   0.00000  Uiso   1.00
C411   C     0.73442   0.45268   0.45643   0.00000  Uiso   1.00
C412   C     0.94150   0.52925   0.03718   0.00000  Uiso   1.00
C413   C     0.74307   0.46614   0.41104   0.00000  Uiso   1.00
C414   C     0.92989   0.52062   0.08456   0.00000  Uiso   1.00
C415   C     0.81087   0.50817   0.41191   0.00000  Uiso   1.00
C416   C     0.85432   0.48767   0.08882   0.00000  Uiso   1.00
C417   C     0.80626   0.49158   0.45501   0.00000  Uiso   1.00
C418   C     0.86561   0.49545   0.04150   0.00000  Uiso   1.00
C419   C     0.76641   0.46427   0.47791   0.00000  Uiso   1.00
C420   C     0.90889   0.51823   0.01620   0.00000  Uiso   1.00
C421   C     0.84123   0.50004   0.47488   0.00000  Uiso   1.00
C422   C     0.83300   0.48404   0.01991   0.00000  Uiso   1.00
H423   H     0.73053   0.42562   0.03839   0.00000  Uiso   1.00
H424   H     0.95114   0.54881   0.45117   0.00000  Uiso   1.00
H425   H     0.82001   0.47341   0.11053   0.00000  Uiso   1.00
H426   H     0.83827   0.53114   0.39397   0.00000  Uiso   1.00
H427   H     0.70494   0.43077   0.47341   0.00000  Uiso   1.00
H428   H     0.97462   0.54656   0.01750   0.00000  Uiso   1.00
H429   H     0.78648   0.44092   0.07407   0.00000  Uiso   1.00
H430   H     0.89579   0.53331   0.41507   0.00000  Uiso   1.00
H431   H     0.90221   0.62919   0.25976   0.00000  Uiso   1.00
H432   H     0.76440   0.37082   0.24037   0.00000  Uiso   1.00
H433   H     0.90227   0.37077   0.25962   0.00000  Uiso   1.00
H434   H     0.76438   0.62924   0.24044   0.00000  Uiso   1.00
H435   H     0.73275   0.45805   0.19372   0.00000  Uiso   1.00
H436   H     0.93392   0.54190   0.30636   0.00000  Uiso   1.00
N437   N     0.71426   0.50001   0.25001   0.00000  Uiso   1.00
N438   N     0.95241   0.49999   0.24999   0.00000  Uiso   1.00
O439   O     0.79512   0.56108   0.25000   0.00000  Uiso   1.00
O440   O     0.87154   0.43892   0.24999   0.00000  Uiso   1.00
O441   O     0.87157   0.56107   0.25000   0.00000  Uiso   1.00
O442   O     0.79510   0.43893   0.25000   0.00000  Uiso   1.00
O443   O     0.77328   0.50001   0.31612   0.00000  Uiso   1.00
O444   O     0.89339   0.49999   0.18387   0.00000  Uiso   1.00
O445   O     0.84972   0.50000   0.31612   0.00000  Uiso   1.00
O446   O     0.81695   0.50000   0.18388   0.00000  Uiso   1.00
Zn447  Zn    0.78229   0.50001   0.25000   0.00000  Uiso   1.00
Zn448  Zn    0.88438   0.49999   0.25000   0.00000  Uiso   1.00
O449   O     0.95905   0.53584   0.10670   0.00000  Uiso   1.00
C450   C     0.67068   0.51396   0.09041   0.00000  Uiso   1.00
H451   H     0.99817   0.47968   0.09313   0.00000  Uiso   1.00
H452   H     0.69094   0.52230   0.11266   0.00000  Uiso   1.00
H453   H     0.69413   0.52288   0.05388   0.00000  Uiso   1.00
O454   O     0.71829   0.44775   0.38635   0.00000  Uiso   1.00
C455   C     0.67138   0.46600   0.40047   0.00000  Uiso   1.00
H456   H     0.98579   0.45274   0.37898   0.00000  Uiso   1.00
H457   H     0.67415   0.50017   0.39437   0.00000  Uiso   1.00
H458   H     0.98182   0.45893   0.43775   0.00000  Uiso   1.00
O459   O     0.97635   0.45287   0.18676   0.00000  Uiso   1.00
C460   C     0.99872   0.41326   0.17814   0.00000  Uiso   1.00
H461   H     0.99793   0.39809   0.21069   0.00000  Uiso   1.00
H462   H     0.70357   0.41536   0.15142   0.00000  Uiso   1.00
H463   H     0.97784   0.39297   0.16353   0.00000  Uiso   1.00
O464   O     0.69013   0.54706   0.31336   0.00000  Uiso   1.00
C465   C     0.66889   0.58711   0.32075   0.00000  Uiso   1.00
H466   H     0.96377   0.58594   0.34704   0.00000  Uiso   1.00
H467   H     0.67066   0.60189   0.28767   0.00000  Uiso   1.00
H468   H     0.68994   0.60725   0.33533   0.00000  Uiso   1.00
C469   C     0.16665   0.91338   0.25006   0.00000  Uiso   1.00
C470   C     0.16667   0.75329   0.24997   0.00000  Uiso   1.00
C471   C     0.12614   0.79015   0.04169   0.00000  Uiso   1.00
C472   C     0.21840   0.85594   0.45053   0.00000  Uiso   1.00
C473   C     0.09366   0.78045   0.02089   0.00000  Uiso   1.00
C474   C     0.25163   0.86449   0.47084   0.00000  Uiso   1.00
C475   C     0.20542   0.97870   0.25540   0.00000  Uiso   1.00
C476   C     0.12785   0.68797   0.24472   0.00000  Uiso   1.00
C477   C     0.20546   0.68795   0.25532   0.00000  Uiso   1.00
C478   C     0.12783   0.97873   0.24478   0.00000  Uiso   1.00
C479   C     0.16667   0.70914   0.24999   0.00000  Uiso   1.00
C480   C     0.16662   0.95753   0.25011   0.00000  Uiso   1.00
C481   C     0.32162   0.80883   0.21901   0.00000  Uiso   1.00
C482   C     0.01168   0.85780   0.28102   0.00000  Uiso   1.00
C483   C     0.03682   0.80951   0.21884   0.00000  Uiso   1.00
C484   C     0.29650   0.85712   0.28119   0.00000  Uiso   1.00
C485   C     0.13576   0.83263   0.33804   0.00000  Uiso   1.00
C486   C     0.19761   0.83352   0.16185   0.00000  Uiso   1.00
C487   C     0.11610   0.82639   0.38844   0.00000  Uiso   1.00
C488   C     0.21774   0.83520   0.11080   0.00000  Uiso   1.00
C489   C     0.06775   0.78601   0.45643   0.00000  Uiso   1.00
C490   C     0.27483   0.86258   0.03718   0.00000  Uiso   1.00
C491   C     0.07641   0.79947   0.41104   0.00000  Uiso   1.00
C492   C     0.26322   0.85395   0.08456   0.00000  Uiso   1.00
C493   C     0.14421   0.84151   0.41191   0.00000  Uiso   1.00
C494   C     0.18765   0.82100   0.08882   0.00000  Uiso   1.00
C495   C     0.13959   0.82491   0.45501   0.00000  Uiso   1.00
C496   C     0.19894   0.82879   0.04150   0.00000  Uiso   1.00
C497   C     0.09975   0.79760   0.47791   0.00000  Uiso   1.00
C498   C     0.24222   0.85156   0.01620   0.00000  Uiso   1.00
C499   C     0.17456   0.83338   0.47488   0.00000  Uiso   1.00
C500   C     0.16633   0.81737   0.01991   0.00000  Uiso   1.00
H501   H     0.06387   0.75895   0.03839   0.00000  Uiso   1.00
H502   H     0.28448   0.88215   0.45117   0.00000  Uiso   1.00
H503   H     0.15335   0.80674   0.11053   0.00000  Uiso   1.00
H504   H     0.17161   0.86448   0.39397   0.00000  Uiso   1.00
H505   H     0.03827   0.76410   0.47341   0.00000  Uiso   1.00
H506   H     0.30796   0.87989   0.01750   0.00000  Uiso   1.00
H507   H     0.11981   0.77426   0.07407   0.00000  Uiso   1.00
H508   H     0.22913   0.86665   0.41507   0.00000  Uiso   1.00
H509   H     0.23555   0.96252   0.25976   0.00000  Uiso   1.00
H510   H     0.09773   0.70415   0.24037   0.00000  Uiso   1.00
H511   H     0.23560   0.70411   0.25962   0.00000  Uiso   1.00
H512   H     0.09771   0.96257   0.24044   0.00000  Uiso   1.00
H513   H     0.06608   0.79138   0.19372   0.00000  Uiso   1.00
H514   H     0.26726   0.87523   0.30636   0.00000  Uiso   1.00
N515   N     0.04759   0.83334   0.25001   0.00000  Uiso   1.00
N516   N     0.28574   0.83332   0.24999   0.00000  Uiso   1.00
O517   O     0.12846   0.89442   0.25000   0.00000  Uiso   1.00
O518   O     0.20488   0.77225   0.24999   0.00000  Uiso   1.00
O519   O     0.20490   0.89441   0.25000   0.00000  Uiso   1.00
O520   O     0.12843   0.77226   0.25000   0.00000  Uiso   1.00
O521   O     0.10661   0.83334   0.31612   0.00000  Uiso   1.00
O522   O     0.22672   0.83333   0.18387   0.00000  Uiso   1.00
O523   O     0.18305   0.83333   0.31612   0.00000  Uiso   1.00
O524   O     0.15028   0.83334   0.18388   0.00000  Uiso   1.00
Zn525  Zn    0.11562   0.83334   0.25000   0.00000  Uiso   1.00
Zn526  Zn    0.21771   0.83333   0.25000   0.00000  Uiso   1.00
O527   O     0.29238   0.86917   0.10670   0.00000  Uiso   1.00
C528   C     0.00401   0.84729   0.09041   0.00000  Uiso   1.00
H529   H     0.33151   0.81302   0.09313   0.00000  Uiso   1.00
H530   H     0.02428   0.85563   0.11266   0.00000  Uiso   1.00
H531   H     0.02746   0.85622   0.05388   0.00000  Uiso   1.00
O532   O     0.05162   0.78108   0.38635   0.00000  Uiso   1.00
C533   C     0.00472   0.79934   0.40047   0.00000  Uiso   1.00
H534   H     0.31912   0.78608   0.37898   0.00000  Uiso   1.00
H535   H     0.00749   0.83350   0.39437   0.00000  Uiso   1.00
H536   H     0.31515   0.79227   0.43775   0.00000  Uiso   1.00
O537   O     0.30968   0.78620   0.18676   0.00000  Uiso   1.00
C538   C     0.33206   0.74659   0.17814   0.00000  Uiso   1.00
H539   H     0.33127   0.73142   0.21069   0.00000  Uiso   1.00
H540   H     0.03690   0.74869   0.15142   0.00000  Uiso   1.00
H541   H     0.31118   0.72630   0.16353   0.00000  Uiso   1.00
O542   O     0.02346   0.88039   0.31336   0.00000  Uiso   1.00
C543   C     0.00222   0.92044   0.32075   0.00000  Uiso   1.00
H544   H     0.29710   0.91928   0.34704   0.00000  Uiso   1.00
H545   H     0.00399   0.93522   0.28767   0.00000  Uiso   1.00
H546   H     0.02327   0.94058   0.33533   0.00000  Uiso   1.00
C547   C     0.49998   0.91338   0.25006   0.00000  Uiso   1.00
C548   C     0.50001   0.75329   0.24997   0.00000  Uiso   1.00
C549   C     0.45947   0.79015   0.04169   0.00000  Uiso   1.00
C550   C     0.55173   0.85594   0.45053   0.00000  Uiso   1.00
C551   C     0.42699   0.78045   0.02089   0.00000  Uiso   1.00
C552   C     0.58496   0.86449   0.47084   0.00000  Uiso   1.00
C553   C     0.53876   0.97870   0.25540   0.00000  Uiso   1.00
C554   C     0.46119   0.68797   0.24472   0.00000  Uiso   1.00
C555   C     0.53879   0.68795   0.25532   0.00000  Uiso   1.00
C556   C     0.46116   0.97873   0.24478   0.00000  Uiso   1.00
C557   C     0.50001   0.70914   0.24999   0.00000  Uiso   1.00
C558   C     0.49995   0.95753   0.25011   0.00000  Uiso   1.00
C559   C     0.65496   0.80883   0.21901   0.00000  Uiso   1.00
C560   C     0.34501   0.85780   0.28102   0.00000  Uiso   1.00
C561   C     0.37016   0.80951   0.21884   0.00000  Uiso   1.00
C562   C     0.62983   0.85712   0.28119   0.00000  Uiso   1.00
C563   C     0.46910   0.83263   0.33804   0.00000  Uiso   1.00
C564   C     0.53095   0.83352   0.16185   0.00000  Uiso   1.00
C565   C     0.44943   0.82639   0.38844   0.00000  Uiso   1.00
C566   C     0.55108   0.83520   0.11080   0.00000  Uiso   1.00
C567   C     0.40108   0.78601   0.45643   0.00000  Uiso   1.00
C568   C     0.60816   0.86258   0.03718   0.00000  Uiso   1.00
C569   C     0.40974   0.79947   0.41104   0.00000  Uiso   1.00
C570   C     0.59656   0.85395   0.08456   0.00000  Uiso   1.00
C571   C     0.47754   0.84151   0.41191   0.00000  Uiso   1.00
C572   C     0.52099   0.82100   0.08882   0.00000  Uiso   1.00
C573   C     0.47292   0.82491   0.45501   0.00000  Uiso   1.00
C574   C     0.53228   0.82879   0.04150   0.00000  Uiso   1.00
C575   C     0.43308   0.79760   0.47791   0.00000  Uiso   1.00
C576   C     0.57556   0.85156   0.01620   0.00000  Uiso   1.00
C577   C     0.50790   0.83338   0.47488   0.00000  Uiso   1.00
C578   C     0.49967   0.81737   0.01991   0.00000  Uiso   1.00
H579   H     0.39720   0.75895   0.03839   0.00000  Uiso   1.00
H580   H     0.61781   0.88215   0.45117   0.00000  Uiso   1.00
H581   H     0.48668   0.80674   0.11053   0.00000  Uiso   1.00
H582   H     0.50494   0.86448   0.39397   0.00000  Uiso   1.00
H583   H     0.37160   0.76410   0.47341   0.00000  Uiso   1.00
H584   H     0.64129   0.87989   0.01750   0.00000  Uiso   1.00
H585   H     0.45315   0.77426   0.07407   0.00000  Uiso   1.00
H586   H     0.56246   0.86665   0.41507   0.00000  Uiso   1.00
H587   H     0.56888   0.96252   0.25976   0.00000  Uiso   1.00
H588   H     0.43106   0.70415   0.24037   0.00000  Uiso   1.00
H589   H     0.56893   0.70411   0.25962   0.00000  Uiso   1.00
H590   H     0.43104   0.96257   0.24044   0.00000  Uiso   1.00
H591   H     0.39942   0.79138   0.19372   0.00000  Uiso   1.00
H592   H     0.60059   0.87523   0.30636   0.00000  Uiso   1.00
N593   N     0.38093   0.83334   0.25001   0.00000  Uiso   1.00
N594   N     0.61907   0.83332   0.24999   0.00000  Uiso   1.00
O595   O     0.46179   0.89442   0.25000   0.00000  Uiso   1.00
O596   O     0.53821   0.77225   0.24999   0.00000  Uiso   1.00
O597   O     0.53823   0.89441   0.25000   0.00000  Uiso   1.00
O598   O     0.46177   0.77226   0.25000   0.00000  Uiso   1.00
O599   O     0.43994   0.83334   0.31612   0.00000  Uiso   1.00
O600   O     0.56006   0.83333   0.18387   0.00000  Uiso   1.00
O601   O     0.51639   0.83333   0.31612   0.00000  Uiso   1.00
O602   O     0.48361   0.83334   0.18388   0.00000  Uiso   1.00
Zn603  Zn    0.44896   0.83334   0.25000   0.00000  Uiso   1.00
Zn604  Zn    0.55104   0.83333   0.25000   0.00000  Uiso   1.00
O605   O     0.62571   0.86917   0.10670   0.00000  Uiso   1.00
C606   C     0.33734   0.84729   0.09041   0.00000  Uiso   1.00
H607   H     0.66484   0.81302   0.09313   0.00000  Uiso   1.00
H608   H     0.35761   0.85563   0.11266   0.00000  Uiso   1.00
H609   H     0.36079   0.85622   0.05388   0.00000  Uiso   1.00
O610   O     0.38496   0.78108   0.38635   0.00000  Uiso   1.00
C611   C     0.33805   0.79934   0.40047   0.00000  Uiso   1.00
H612   H     0.65246   0.78608   0.37898   0.00000  Uiso   1.00
H613   H     0.34082   0.83350   0.39437   0.00000  Uiso   1.00
H614   H     0.64849   0.79227   0.43775   0.00000  Uiso   1.00
O615   O     0.64302   0.78620   0.18676   0.00000  Uiso   1.00
C616   C     0.66539   0.74659   0.17814   0.00000  Uiso   1.00
H617   H     0.66460   0.73142   0.21069   0.00000  Uiso   1.00
H618   H     0.37023   0.74869   0.15142   0.00000  Uiso   1.00
H619   H     0.64451   0.72630   0.16353   0.00000  Uiso   1.00
O620   O     0.35680   0.88039   0.31336   0.00000  Uiso   1.00
C621   C     0.33556   0.92044   0.32075   0.00000  Uiso   1.00
H622   H     0.63044   0.91928   0.34704   0.00000  Uiso   1.00
H623   H     0.33732   0.93522   0.28767   0.00000  Uiso   1.00
H624   H     0.35660   0.94058   0.33533   0.00000  Uiso   1.00
C625   C     0.83331   0.91338   0.25006   0.00000  Uiso   1.00
C626   C     0.83334   0.75329   0.24997   0.00000  Uiso   1.00
C627   C     0.79280   0.79015   0.04169   0.00000  Uiso   1.00
C628   C     0.88506   0.85594   0.45053   0.00000  Uiso   1.00
C629   C     0.76032   0.78045   0.02089   0.00000  Uiso   1.00
C630   C     0.91829   0.86449   0.47084   0.00000  Uiso   1.00
C631   C     0.87209   0.97870   0.25540   0.00000  Uiso   1.00
C632   C     0.79452   0.68797   0.24472   0.00000  Uiso   1.00
C633   C     0.87213   0.68795   0.25532   0.00000  Uiso   1.00
C634   C     0.79450   0.97873   0.24478   0.00000  Uiso   1.00
C635   C     0.83334   0.70914   0.24999   0.00000  Uiso   1.00
C636   C     0.83328   0.95753   0.25011   0.00000  Uiso   1.00
C637   C     0.98829   0.80883   0.21901   0.00000  Uiso   1.00
C638   C     0.67834   0.85780   0.28102   0.00000  Uiso   1.00
C639   C     0.70349   0.80951   0.21884   0.00000  Uiso   1.00
C640   C     0.96317   0.85712   0.28119   0.00000  Uiso   1.00
C641   C     0.80243   0.83263   0.33804   0.00000  Uiso   1.00
C642   C     0.86428   0.83352   0.16185   0.00000  Uiso   1.00
C643   C     0.78276   0.82639   0.38844   0.00000  Uiso   1.00
C644   C     0.88441   0.83520   0.11080   0.00000  Uiso   1.00
C645   C     0.73442   0.78601   0.45643   0.00000  Uiso   1.00
C646   C     0.94150   0.86258   0.03718   0.00000  Uiso   1.00
C647   C     0.74307   0.79947   0.41104   0.00000  Uiso   1.00
C648   C     0.92989   0.85395   0.08456   0.00000  Uiso   1.00
C649   C     0.81087   0.84151   0.41191   0.00000  Uiso   1.00
C650   C     0.85432   0.82100   0.08882   0.00000  Uiso   1.00
C651   C     0.80626   0.82491   0.45501   0.00000  Uiso   1.00
C652   C     0.86561   0.82879   0.04150   0.00000  Uiso   1.00
C653   C     0.76641   0.79760   0.47791   0.00000  Uiso   1.00
C654   C     0.90889   0.85156   0.01620   0.00000  Uiso   1.00
C655   C     0.84123   0.83338   0.47488   0.00000  Uiso   1.00
C656   C     0.83300   0.81737   0.01991   0.00000  Uiso   1.00
H657   H     0.73053   0.75895   0.03839   0.00000  Uiso   1.00
H658   H     0.95114   0.88215   0.45117   0.00000  Uiso   1.00
H659   H     0.82001   0.80674   0.11053   0.00000  Uiso   1.00
H660   H     0.83827   0.86448   0.39397   0.00000  Uiso   1.00
H661   H     0.70494   0.76410   0.47341   0.00000  Uiso   1.00
H662   H     0.97462   0.87989   0.01750   0.00000  Uiso   1.00
H663   H     0.78648   0.77426   0.07407   0.00000  Uiso   1.00
H664   H     0.89579   0.86665   0.41507   0.00000  Uiso   1.00
H665   H     0.90221   0.96252   0.25976   0.00000  Uiso   1.00
H666   H     0.76440   0.70415   0.24037   0.00000  Uiso   1.00
H667   H     0.90227   0.70411   0.25962   0.00000  Uiso   1.00
H668   H     0.76438   0.96257   0.24044   0.00000  Uiso   1.00
H669   H     0.73275   0.79138   0.19372   0.00000  Uiso   1.00
H670   H     0.93392   0.87523   0.30636   0.00000  Uiso   1.00
N671   N     0.71426   0.83334   0.25001   0.00000  Uiso   1.00
N672   N     0.95241   0.83332   0.24999   0.00000  Uiso   1.00
O673   O     0.79512   0.89442   0.25000   0.00000  Uiso   1.00
O674   O     0.87154   0.77225   0.24999   0.00000  Uiso   1.00
O675   O     0.87157   0.89441   0.25000   0.00000  Uiso   1.00
O676   O     0.79510   0.77226   0.25000   0.00000  Uiso   1.00
O677   O     0.77328   0.83334   0.31612   0.00000  Uiso   1.00
O678   O     0.89339   0.83333   0.18387   0.00000  Uiso   1.00
O679   O     0.84972   0.83333   0.31612   0.00000  Uiso   1.00
O680   O     0.81695   0.83334   0.18388   0.00000  Uiso   1.00
Zn681  Zn    0.78229   0.83334   0.25000   0.00000  Uiso   1.00
Zn682  Zn    0.88438   0.83333   0.25000   0.00000  Uiso   1.00
O683   O     0.95905   0.86917   0.10670   0.00000  Uiso   1.00
C684   C     0.67068   0.84729   0.09041   0.00000  Uiso   1.00
H685   H     0.99817   0.81302   0.09313   0.00000  Uiso   1.00
H686   H     0.69094   0.85563   0.11266   0.00000  Uiso   1.00
H687   H     0.69413   0.85622   0.05388   0.00000  Uiso   1.00
O688   O     0.71829   0.78108   0.38635   0.00000  Uiso   1.00
C689   C     0.67138   0.79934   0.40047   0.00000  Uiso   1.00
H690   H     0.98579   0.78608   0.37898   0.00000  Uiso   1.00
H691   H     0.67415   0.83350   0.39437   0.00000  Uiso   1.00
H692   H     0.98182   0.79227   0.43775   0.00000  Uiso   1.00
O693   O     0.97635   0.78620   0.18676   0.00000  Uiso   1.00
C694   C     0.99872   0.74659   0.17814   0.00000  Uiso   1.00
H695   H     0.99793   0.73142   0.21069   0.00000  Uiso   1.00
H696   H     0.70357   0.74869   0.15142   0.00000  Uiso   1.00
H697   H     0.97784   0.72630   0.16353   0.00000  Uiso   1.00
O698   O     0.69013   0.88039   0.31336   0.00000  Uiso   1.00
C699   C     0.66889   0.92044   0.32075   0.00000  Uiso   1.00
H700   H     0.96377   0.91928   0.34704   0.00000  Uiso   1.00
H701   H     0.67066   0.93522   0.28767   0.00000  Uiso   1.00
H702   H     0.68994   0.94058   0.33533   0.00000  Uiso   1.00
C703   C     0.16665   0.24671   0.75006   0.00000  Uiso   1.00
C704   C     0.16667   0.08663   0.74997   0.00000  Uiso   1.00
C705   C     0.12614   0.12349   0.54169   0.00000  Uiso   1.00
C706   C     0.21840   0.18928   0.95053   0.00000  Uiso   1.00
C707   C     0.09366   0.11379   0.52089   0.00000  Uiso   1.00
C708   C     0.25163   0.19782   0.97084   0.00000  Uiso   1.00
C709   C     0.20542   0.31203   0.75540   0.00000  Uiso   1.00
C710   C     0.12785   0.02131   0.74472   0.00000  Uiso   1.00
C711   C     0.20546   0.02128   0.75532   0.00000  Uiso   1.00
C712   C     0.12783   0.31206   0.74478   0.00000  Uiso   1.00
C713   C     0.16667   0.04248   0.74999   0.00000  Uiso   1.00
C714   C     0.16662   0.29086   0.75011   0.00000  Uiso   1.00
C715   C     0.32162   0.14216   0.71901   0.00000  Uiso   1.00
C716   C     0.01168   0.19113   0.78102   0.00000  Uiso   1.00
C717   C     0.03682   0.14285   0.71884   0.00000  Uiso   1.00
C718   C     0.29650   0.19045   0.78119   0.00000  Uiso   1.00
C719   C     0.13576   0.16596   0.83804   0.00000  Uiso   1.00
C720   C     0.19761   0.16685   0.66185   0.00000  Uiso   1.00
C721   C     0.11610   0.15972   0.88844   0.00000  Uiso   1.00
C722   C     0.21774   0.16854   0.61080   0.00000  Uiso   1.00
C723   C     0.06775   0.11935   0.95643   0.00000  Uiso   1.00
C724   C     0.27483   0.19591   0.53718   0.00000  Uiso   1.00
C725   C     0.07641   0.13281   0.91104   0.00000  Uiso   1.00
C726   C     0.26322   0.18728   0.58456   0.00000  Uiso   1.00
C727   C     0.14421   0.17484   0.91191   0.00000  Uiso   1.00
C728   C     0.18765   0.15433   0.58882   0.00000  Uiso   1.00
C729   C     0.13959   0.15824   0.95501   0.00000  Uiso   1.00
C730   C     0.19894   0.16212   0.54150   0.00000  Uiso   1.00
C731   C     0.09975   0.13093   0.97791   0.00000  Uiso   1.00
C732   C     0.24222   0.18490   0.51620   0.00000  Uiso   1.00
C733   C     0.17456   0.16671   0.97488   0.00000  Uiso   1.00
C734   C     0.16633   0.15071   0.51991   0.00000  Uiso   1.00
H735   H     0.06387   0.09228   0.53839   0.00000  Uiso   1.00
H736   H     0.28448   0.21548   0.95117   0.00000  Uiso   1.00
H737   H     0.15335   0.14007   0.61053   0.00000  Uiso   1.00
H738   H     0.17161   0.19781   0.89397   0.00000  Uiso   1.00
H739   H     0.03827   0.09744   0.97341   0.00000  Uiso   1.00
H740   H     0.30796   0.21323   0.51750   0.00000  Uiso   1.00
H741   H     0.11981   0.10759   0.57407   0.00000  Uiso   1.00
H742   H     0.22913   0.19998   0.91507   0.00000  Uiso   1.00
H743   H     0.23555   0.29585   0.75976   0.00000  Uiso   1.00
H744   H     0.09773   0.03748   0.74037   0.00000  Uiso   1.00
H745   H     0.23560   0.03744   0.75962   0.00000  Uiso   1.00
H746   H     0.09771   0.29590   0.74044   0.00000  Uiso   1.00
H747   H     0.06608   0.12471   0.69372   0.00000  Uiso   1.00
H748   H     0.26726   0.20857   0.80636   0.00000  Uiso   1.00
N749   N     0.04759   0.16668   0.75001   0.00000  Uiso   1.00
N750   N     0.28574   0.16666   0.74999   0.00000  Uiso   1.00
O751   O     0.12846   0.22775   0.75000   0.00000  Uiso   1.00
O752   O     0.20488   0.10558   0.74999   0.00000  Uiso   1.00
O753   O     0.20490   0.22774   0.75000   0.00000  Uiso   1.00
O754   O     0.12843   0.10559   0.75000   0.00000  Uiso   1.00
O755   O     0.10661   0.16667   0.81612   0.00000  Uiso   1.00
O756   O     0.22672   0.16666   0.68387   0.00000  Uiso   1.00
O757   O     0.18305   0.16666   0.81612   0.00000  Uiso   1.00
O758   O     0.15028   0.16667   0.68388   0.00000  Uiso   1.00
Zn759  Zn    0.11562   0.16667   0.75000   0.00000  Uiso   1.00
Zn760  Zn    0.21771   0.16666   0.75000   0.00000  Uiso   1.00
O761   O     0.29238   0.20250   0.60670   0.00000  Uiso   1.00
C762   C     0.00401   0.18063   0.59041   0.00000  Uiso   1.00
H763   H     0.33151   0.14635   0.59313   0.00000  Uiso   1.00
H764   H     0.02428   0.18897   0.61266   0.00000  Uiso   1.00
H765   H     0.02746   0.18955   0.55388   0.00000  Uiso   1.00
O766   O     0.05162   0.11441   0.88635   0.00000  Uiso   1.00
C767   C     0.00472   0.13267   0.90047   0.00000  Uiso   1.00
H768   H     0.31912   0.11941   0.87898   0.00000  Uiso   1.00
H769   H     0.00749   0.16683   0.89437   0.00000  Uiso   1.00
H770   H     0.31515   0.12560   0.93775   0.00000  Uiso   1.00
O771   O     0.30968   0.11954   0.68676   0.00000  Uiso   1.00
C772   C     0.33206   0.07993   0.67814   0.00000  Uiso   1.00
H773   H     0.33127   0.06476   0.71069   0.00000  Uiso   1.00
H774   H     0.03690   0.08202   0.65142   0.00000  Uiso   1.00
H775   H     0.31118   0.05963   0.66353   0.00000  Uiso   1.00
O776   O     0.02346   0.21372   0.81336   0.00000  Uiso   1.00
C777   C     0.00222   0.25378   0.82075   0.00000  Uiso   1.00
H778   H     0.29710   0.25261   0.84704   0.00000  Uiso   1.00
H779   H     0.00399   0.26856   0.78767   0.00000  Uiso   1.00
H780   H     0.02327   0.27391   0.83533   0.00000  Uiso   1.00
C781   C     0.49998   0.24671   0.75006   0.00000  Uiso   1.00
C782   C     0.50001   0.08663   0.74997   0.00000  Uiso   1.00
C783   C     0.45947   0.12349   0.54169   0.00000  Uiso   1.00
C784   C     0.55173   0.18928   0.95053   0.00000  Uiso   1.00
C785   C     0.42699   0.11379   0.52089   0.00000  Uiso   1.00
C786   C     0.58496   0.19782   0.97084   0.00000  Uiso   1.00
C787   C     0.53876   0.31203   0.75540   0.00000  Uiso   1.00
C788   C     0.46119   0.02131   0.74472   0.00000  Uiso   1.00
C789   C     0.53879   0.02128   0.75532   0.00000  Uiso   1.00
C790   C     0.46116   0.31206   0.74478   0.00000  Uiso   1.00
C791   C     0.50001   0.04248   0.74999   0.00000  Uiso   1.00
C792   C     0.49995   0.29086   0.75011   0.00000  Uiso   1.00
C793   C     0.65496   0.14216   0.71901   0.00000  Uiso   1.00
C794   C     0.34501   0.19113   0.78102   0.00000  Uiso   1.00
C795   C     0.37016   0.14285   0.71884   0.00000  Uiso   1.00
C796   C     0.62983   0.19045   0.78119   0.00000  Uiso   1.00
C797   C     0.46910   0.16596   0.83804   0.00000  Uiso   1.00
C798   C     0.53095   0.16685   0.66185   0.00000  Uiso   1.00
C799   C     0.44943   0.15972   0.88844   0.00000  Uiso   1.00
C800   C     0.55108   0.16854   0.61080   0.00000  Uiso   1.00
C801   C     0.40108   0.11935   0.95643   0.00000  Uiso   1.00
C802   C     0.60816   0.19591   0.53718   0.00000  Uiso   1.00
C803   C     0.40974   0.13281   0.91104   0.00000  Uiso   1.00
C804   C     0.59656   0.18728   0.58456   0.00000  Uiso   1.00
C805   C     0.47754   0.17484   0.91191   0.00000  Uiso   1.00
C806   C     0.52099   0.15433   0.58882   0.00000  Uiso   1.00
C807   C     0.47292   0.15824   0.95501   0.00000  Uiso   1.00
C808   C     0.53228   0.16212   0.54150   0.00000  Uiso   1.00
C809   C     0.43308   0.13093   0.97791   0.00000  Uiso   1.00
C810   C     0.57556   0.18490   0.51620   0.00000  Uiso   1.00
C811   C     0.50790   0.16671   0.97488   0.00000  Uiso   1.00
C812   C     0.49967   0.15071   0.51991   0.00000  Uiso   1.00
H813   H     0.39720   0.09228   0.53839   0.00000  Uiso   1.00
H814   H     0.61781   0.21548   0.95117   0.00000  Uiso   1.00
H815   H     0.48668   0.14007   0.61053   0.00000  Uiso   1.00
H816   H     0.50494   0.19781   0.89397   0.00000  Uiso   1.00
H817   H     0.37160   0.09744   0.97341   0.00000  Uiso   1.00
H818   H     0.64129   0.21323   0.51750   0.00000  Uiso   1.00
H819   H     0.45315   0.10759   0.57407   0.00000  Uiso   1.00
H820   H     0.56246   0.19998   0.91507   0.00000  Uiso   1.00
H821   H     0.56888   0.29585   0.75976   0.00000  Uiso   1.00
H822   H     0.43106   0.03748   0.74037   0.00000  Uiso   1.00
H823   H     0.56893   0.03744   0.75962   0.00000  Uiso   1.00
H824   H     0.43104   0.29590   0.74044   0.00000  Uiso   1.00
H825   H     0.39942   0.12471   0.69372   0.00000  Uiso   1.00
H826   H     0.60059   0.20857   0.80636   0.00000  Uiso   1.00
N827   N     0.38093   0.16668   0.75001   0.00000  Uiso   1.00
N828   N     0.61907   0.16666   0.74999   0.00000  Uiso   1.00
O829   O     0.46179   0.22775   0.75000   0.00000  Uiso   1.00
O830   O     0.53821   0.10558   0.74999   0.00000  Uiso   1.00
O831   O     0.53823   0.22774   0.75000   0.00000  Uiso   1.00
O832   O     0.46177   0.10559   0.75000   0.00000  Uiso   1.00
O833   O     0.43994   0.16667   0.81612   0.00000  Uiso   1.00
O834   O     0.56006   0.16666   0.68387   0.00000  Uiso   1.00
O835   O     0.51639   0.16666   0.81612   0.00000  Uiso   1.00
O836   O     0.48361   0.16667   0.68388   0.00000  Uiso   1.00
Zn837  Zn    0.44896   0.16667   0.75000   0.00000  Uiso   1.00
Zn838  Zn    0.55104   0.16666   0.75000   0.00000  Uiso   1.00
O839   O     0.62571   0.20250   0.60670   0.00000  Uiso   1.00
C840   C     0.33734   0.18063   0.59041   0.00000  Uiso   1.00
H841   H     0.66484   0.14635   0.59313   0.00000  Uiso   1.00
H842   H     0.35761   0.18897   0.61266   0.00000  Uiso   1.00
H843   H     0.36079   0.18955   0.55388   0.00000  Uiso   1.00
O844   O     0.38496   0.11441   0.88635   0.00000  Uiso   1.00
C845   C     0.33805   0.13267   0.90047   0.00000  Uiso   1.00
H846   H     0.65246   0.11941   0.87898   0.00000  Uiso   1.00
H847   H     0.34082   0.16683   0.89437   0.00000  Uiso   1.00
H848   H     0.64849   0.12560   0.93775   0.00000  Uiso   1.00
O849   O     0.64302   0.11954   0.68676   0.00000  Uiso   1.00
C850   C     0.66539   0.07993   0.67814   0.00000  Uiso   1.00
H851   H     0.66460   0.06476   0.71069   0.00000  Uiso   1.00
H852   H     0.37023   0.08202   0.65142   0.00000  Uiso   1.00
H853   H     0.64451   0.05963   0.66353   0.00000  Uiso   1.00
O854   O     0.35680   0.21372   0.81336   0.00000  Uiso   1.00
C855   C     0.33556   0.25378   0.82075   0.00000  Uiso   1.00
H856   H     0.63044   0.25261   0.84704   0.00000  Uiso   1.00
H857   H     0.33732   0.26856   0.78767   0.00000  Uiso   1.00
H858   H     0.35660   0.27391   0.83533   0.00000  Uiso   1.00
C859   C     0.83331   0.24671   0.75006   0.00000  Uiso   1.00
C860   C     0.83334   0.08663   0.74997   0.00000  Uiso   1.00
C861   C     0.79280   0.12349   0.54169   0.00000  Uiso   1.00
C862   C     0.88506   0.18928   0.95053   0.00000  Uiso   1.00
C863   C     0.76032   0.11379   0.52089   0.00000  Uiso   1.00
C864   C     0.91829   0.19782   0.97084   0.00000  Uiso   1.00
C865   C     0.87209   0.31203   0.75540   0.00000  Uiso   1.00
C866   C     0.79452   0.02131   0.74472   0.00000  Uiso   1.00
C867   C     0.87213   0.02128   0.75532   0.00000  Uiso   1.00
C868   C     0.79450   0.31206   0.74478   0.00000  Uiso   1.00
C869   C     0.83334   0.04248   0.74999   0.00000  Uiso   1.00
C870   C     0.83328   0.29086   0.75011   0.00000  Uiso   1.00
C871   C     0.98829   0.14216   0.71901   0.00000  Uiso   1.00
C872   C     0.67834   0.19113   0.78102   0.00000  Uiso   1.00
C873   C     0.70349   0.14285   0.71884   0.00000  Uiso   1.00
C874   C     0.96317   0.19045   0.78119   0.00000  Uiso   1.00
C875   C     0.80243   0.16596   0.83804   0.00000  Uiso   1.00
C876   C     0.86428   0.16685   0.66185   0.00000  Uiso   1.00
C877   C     0.78276   0.15972   0.88844   0.00000  Uiso   1.00
C878   C     0.88441   0.16854   0.61080   0.00000  Uiso   1.00
C879   C     0.73442   0.11935   0.95643   0.00000  Uiso   1.00
C880   C     0.94150   0.19591   0.53718   0.00000  Uiso   1.00
C881   C     0.74307   0.13281   0.91104   0.00000  Uiso   1.00
C882   C     0.92989   0.18728   0.58456   0.00000  Uiso   1.00
C883   C     0.81087   0.17484   0.91191   0.00000  Uiso   1.00
C884   C     0.85432   0.15433   0.58882   0.00000  Uiso   1.00
C885   C     0.80626   0.15824   0.95501   0.00000  Uiso   1.00
C886   C     0.86561   0.16212   0.54150   0.00000  Uiso   1.00
C887   C     0.76641   0.13093   0.97791   0.00000  Uiso   1.00
C888   C     0.90889   0.18490   0.51620   0.00000  Uiso   1.00
C889   C     0.84123   0.16671   0.97488   0.00000  Uiso   1.00
C890   C     0.83300   0.15071   0.51991   0.00000  Uiso   1.00
H891   H     0.73053   0.09228   0.53839   0.00000  Uiso   1.00
H892   H     0.95114   0.21548   0.95117   0.00000  Uiso   1.00
H893   H     0.82001   0.14007   0.61053   0.00000  Uiso   1.00
H894   H     0.83827   0.19781   0.89397   0.00000  Uiso   1.00
H895   H     0.70494   0.09744   0.97341   0.00000  Uiso   1.00
H896   H     0.97462   0.21323   0.51750   0.00000  Uiso   1.00
H897   H     0.78648   0.10759   0.57407   0.00000  Uiso   1.00
H898   H     0.89579   0.19998   0.91507   0.00000  Uiso   1.00
H899   H     0.90221   0.29585   0.75976   0.00000  Uiso   1.00
H900   H     0.76440   0.03748   0.74037   0.00000  Uiso   1.00
H901   H     0.90227   0.03744   0.75962   0.00000  Uiso   1.00
H902   H     0.76438   0.29590   0.74044   0.00000  Uiso   1.00
H903   H     0.73275   0.12471   0.69372   0.00000  Uiso   1.00
H904   H     0.93392   0.20857   0.80636   0.00000  Uiso   1.00
N905   N     0.71426   0.16668   0.75001   0.00000  Uiso   1.00
N906   N     0.95241   0.16666   0.74999   0.00000  Uiso   1.00
O907   O     0.79512   0.22775   0.75000   0.00000  Uiso   1.00
O908   O     0.87154   0.10558   0.74999   0.00000  Uiso   1.00
O909   O     0.87157   0.22774   0.75000   0.00000  Uiso   1.00
O910   O     0.79510   0.10559   0.75000   0.00000  Uiso   1.00
O911   O     0.77328   0.16667   0.81612   0.00000  Uiso   1.00
O912   O     0.89339   0.16666   0.68387   0.00000  Uiso   1.00
O913   O     0.84972   0.16666   0.81612   0.00000  Uiso   1.00
O914   O     0.81695   0.16667   0.68388   0.00000  Uiso   1.00
Zn915  Zn    0.78229   0.16667   0.75000   0.00000  Uiso   1.00
Zn916  Zn    0.88438   0.16666   0.75000   0.00000  Uiso   1.00
O917   O     0.95905   0.20250   0.60670   0.00000  Uiso   1.00
C918   C     0.67068   0.18063   0.59041   0.00000  Uiso   1.00
H919   H     0.99817   0.14635   0.59313   0.00000  Uiso   1.00
H920   H     0.69094   0.18897   0.61266   0.00000  Uiso   1.00
H921   H     0.69413   0.18955   0.55388   0.00000  Uiso   1.00
O922   O     0.71829   0.11441   0.88635   0.00000  Uiso   1.00
C923   C     0.67138   0.13267   0.90047   0.00000  Uiso   1.00
H924   H     0.98579   0.11941   0.87898   0.00000  Uiso   1.00
H925   H     0.67415   0.16683   0.89437   0.00000  Uiso   1.00
H926   H     0.98182   0.12560   0.93775   0.00000  Uiso   1.00
O927   O     0.97635   0.11954   0.68676   0.00000  Uiso   1.00
C928   C     0.99872   0.07993   0.67814   0.00000  Uiso   1.00
H929   H     0.99793   0.06476   0.71069   0.00000  Uiso   1.00
H930   H     0.70357   0.08202   0.65142   0.00000  Uiso   1.00
H931   H     0.97784   0.05963   0.66353   0.00000  Uiso   1.00
O932   O     0.69013   0.21372   0.81336   0.00000  Uiso   1.00
C933   C     0.66889   0.25378   0.82075   0.00000  Uiso   1.00
H934   H     0.96377   0.25261   0.84704   0.00000  Uiso   1.00
H935   H     0.67066   0.26856   0.78767   0.00000  Uiso   1.00
H936   H     0.68994   0.27391   0.83533   0.00000  Uiso   1.00
C937   C     0.16665   0.58004   0.75006   0.00000  Uiso   1.00
C938   C     0.16667   0.41996   0.74997   0.00000  Uiso   1.00
C939   C     0.12614   0.45682   0.54169   0.00000  Uiso   1.00
C940   C     0.21840   0.52261   0.95053   0.00000  Uiso   1.00
C941   C     0.09366   0.44712   0.52089   0.00000  Uiso   1.00
C942   C     0.25163   0.53116   0.97084   0.00000  Uiso   1.00
C943   C     0.20542   0.64537   0.75540   0.00000  Uiso   1.00
C944   C     0.12785   0.35464   0.74472   0.00000  Uiso   1.00
C945   C     0.20546   0.35461   0.75532   0.00000  Uiso   1.00
C946   C     0.12783   0.64539   0.74478   0.00000  Uiso   1.00
C947   C     0.16667   0.37581   0.74999   0.00000  Uiso   1.00
C948   C     0.16662   0.62420   0.75011   0.00000  Uiso   1.00
C949   C     0.32162   0.47550   0.71901   0.00000  Uiso   1.00
C950   C     0.01168   0.52446   0.78102   0.00000  Uiso   1.00
C951   C     0.03682   0.47618   0.71884   0.00000  Uiso   1.00
C952   C     0.29650   0.52379   0.78119   0.00000  Uiso   1.00
C953   C     0.13576   0.49930   0.83804   0.00000  Uiso   1.00
C954   C     0.19761   0.50019   0.66185   0.00000  Uiso   1.00
C955   C     0.11610   0.49306   0.88844   0.00000  Uiso   1.00
C956   C     0.21774   0.50187   0.61080   0.00000  Uiso   1.00
C957   C     0.06775   0.45268   0.95643   0.00000  Uiso   1.00
C958   C     0.27483   0.52925   0.53718   0.00000  Uiso   1.00
C959   C     0.07641   0.46614   0.91104   0.00000  Uiso   1.00
C960   C     0.26322   0.52062   0.58456   0.00000  Uiso   1.00
C961   C     0.14421   0.50817   0.91191   0.00000  Uiso   1.00
C962   C     0.18765   0.48767   0.58882   0.00000  Uiso   1.00
C963   C     0.13959   0.49158   0.95501   0.00000  Uiso   1.00
C964   C     0.19894   0.49545   0.54150   0.00000  Uiso   1.00
C965   C     0.09975   0.46427   0.97791   0.00000  Uiso   1.00
C966   C     0.24222   0.51823   0.51620   0.00000  Uiso   1.00
C967   C     0.17456   0.50004   0.97488   0.00000  Uiso   1.00
C968   C     0.16633   0.48404   0.51991   0.00000  Uiso   1.00
H969   H     0.06387   0.42562   0.53839   0.00000  Uiso   1.00
H970   H     0.28448   0.54881   0.95117   0.00000  Uiso   1.00
H971   H     0.15335   0.47341   0.61053   0.00000  Uiso   1.00
H972   H     0.17161   0.53114   0.89397   0.00000  Uiso   1.00
H973   H     0.03827   0.43077   0.97341   0.00000  Uiso   1.00
H974   H     0.30796   0.54656   0.51750   0.00000  Uiso   1.00
H975   H     0.11981   0.44092   0.57407   0.00000  Uiso   1.00
H976   H     0.22913   0.53331   0.91507   0.00000  Uiso   1.00
H977   H     0.23555   0.62919   0.75976   0.00000  Uiso   1.00
H978   H     0.09773   0.37082   0.74037   0.00000  Uiso   1.00
H979   H     0.23560   0.37077   0.75962   0.00000  Uiso   1.00
H980   H     0.09771   0.62924   0.74044   0.00000  Uiso   1.00
H981   H     0.06608   0.45805   0.69372   0.00000  Uiso   1.00
H982   H     0.26726   0.54190   0.80636   0.00000  Uiso   1.00
N983   N     0.04759   0.50001   0.75001   0.00000  Uiso   1.00
N984   N     0.28574   0.49999   0.74999   0.00000  Uiso   1.00
O985   O     0.12846   0.56108   0.75000   0.00000  Uiso   1.00
O986   O     0.20488   0.43892   0.74999   0.00000  Uiso   1.00
O987   O     0.20490   0.56107   0.75000   0.00000  Uiso   1.00
O988   O     0.12843   0.43893   0.75000   0.00000  Uiso   1.00
O989   O     0.10661   0.50001   0.81612   0.00000  Uiso   1.00
O990   O     0.22672   0.49999   0.68387   0.00000  Uiso   1.00
O991   O     0.18305   0.50000   0.81612   0.00000  Uiso   1.00
O992   O     0.15028   0.50000   0.68388   0.00000  Uiso   1.00
Zn993  Zn    0.11562   0.50001   0.75000   0.00000  Uiso   1.00
Zn994  Zn    0.21771   0.49999   0.75000   0.00000  Uiso   1.00
O995   O     0.29238   0.53584   0.60670   0.00000  Uiso   1.00
C996   C     0.00401   0.51396   0.59041   0.00000  Uiso   1.00
H997   H     0.33151   0.47968   0.59313   0.00000  Uiso   1.00
H998   H     0.02428   0.52230   0.61266   0.00000  Uiso   1.00
H999   H     0.02746   0.52288   0.55388   0.00000  Uiso   1.00
O1000  O     0.05162   0.44775   0.88635   0.00000  Uiso   1.00
C1001  C     0.00472   0.46600   0.90047   0.00000  Uiso   1.00
H1002  H     0.31912   0.45274   0.87898   0.00000  Uiso   1.00
H1003  H     0.00749   0.50017   0.89437   0.00000  Uiso   1.00
H1004  H     0.31515   0.45893   0.93775   0.00000  Uiso   1.00
O1005  O     0.30968   0.45287   0.68676   0.00000  Uiso   1.00
C1006  C     0.33206   0.41326   0.67814   0.00000  Uiso   1.00
H1007  H     0.33127   0.39809   0.71069   0.00000  Uiso   1.00
H1008  H     0.03690   0.41536   0.65142   0.00000  Uiso   1.00
H1009  H     0.31118   0.39297   0.66353   0.00000  Uiso   1.00
O1010  O     0.02346   0.54706   0.81336   0.00000  Uiso   1.00
C1011  C     0.00222   0.58711   0.82075   0.00000  Uiso   1.00
H1012  H     0.29710   0.58594   0.84704   0.00000  Uiso   1.00
H1013  H     0.00399   0.60189   0.78767   0.00000  Uiso   1.00
H1014  H     0.02327   0.60725   0.83533   0.00000  Uiso   1.00
C1015  C     0.49998   0.58004   0.75006   0.00000  Uiso   1.00
C1016  C     0.50001   0.41996   0.74997   0.00000  Uiso   1.00
C1017  C     0.45947   0.45682   0.54169   0.00000  Uiso   1.00
C1018  C     0.55173   0.52261   0.95053   0.00000  Uiso   1.00
C1019  C     0.42699   0.44712   0.52089   0.00000  Uiso   1.00
C1020  C     0.58496   0.53116   0.97084   0.00000  Uiso   1.00
C1021  C     0.53876   0.64537   0.75540   0.00000  Uiso   1.00
C1022  C     0.46119   0.35464   0.74472   0.00000  Uiso   1.00
C1023  C     0.53879   0.35461   0.75532   0.00000  Uiso   1.00
C1024  C     0.46116   0.64539   0.74478   0.00000  Uiso   1.00
C1025  C     0.50001   0.37581   0.74999   0.00000  Uiso   1.00
C1026  C     0.49995   0.62420   0.75011   0.00000  Uiso   1.00
C1027  C     0.65496   0.47550   0.71901   0.00000  Uiso   1.00
C1028  C     0.34501   0.52446   0.78102   0.00000  Uiso   1.00
C1029  C     0.37016   0.47618   0.71884   0.00000  Uiso   1.00
C1030  C     0.62983   0.52379   0.78119   0.00000  Uiso   1.00
C1031  C     0.46910   0.49930   0.83804   0.00000  Uiso   1.00
C1032  C     0.53095   0.50019   0.66185   0.00000  Uiso   1.00
C1033  C     0.44943   0.49306   0.88844   0.00000  Uiso   1.00
C1034  C     0.55108   0.50187   0.61080   0.00000  Uiso   1.00
C1035  C     0.40108   0.45268   0.95643   0.00000  Uiso   1.00
C1036  C     0.60816   0.52925   0.53718   0.00000  Uiso   1.00
C1037  C     0.40974   0.46614   0.91104   0.00000  Uiso   1.00
C1038  C     0.59656   0.52062   0.58456   0.00000  Uiso   1.00
C1039  C     0.47754   0.50817   0.91191   0.00000  Uiso   1.00
C1040  C     0.52099   0.48767   0.58882   0.00000  Uiso   1.00
C1041  C     0.47292   0.49158   0.95501   0.00000  Uiso   1.00
C1042  C     0.53228   0.49545   0.54150   0.00000  Uiso   1.00
C1043  C     0.43308   0.46427   0.97791   0.00000  Uiso   1.00
C1044  C     0.57556   0.51823   0.51620   0.00000  Uiso   1.00
C1045  C     0.50790   0.50004   0.97488   0.00000  Uiso   1.00
C1046  C     0.49967   0.48404   0.51991   0.00000  Uiso   1.00
H1047  H     0.39720   0.42562   0.53839   0.00000  Uiso   1.00
H1048  H     0.61781   0.54881   0.95117   0.00000  Uiso   1.00
H1049  H     0.48668   0.47341   0.61053   0.00000  Uiso   1.00
H1050  H     0.50494   0.53114   0.89397   0.00000  Uiso   1.00
H1051  H     0.37160   0.43077   0.97341   0.00000  Uiso   1.00
H1052  H     0.64129   0.54656   0.51750   0.00000  Uiso   1.00
H1053  H     0.45315   0.44092   0.57407   0.00000  Uiso   1.00
H1054  H     0.56246   0.53331   0.91507   0.00000  Uiso   1.00
H1055  H     0.56888   0.62919   0.75976   0.00000  Uiso   1.00
H1056  H     0.43106   0.37082   0.74037   0.00000  Uiso   1.00
H1057  H     0.56893   0.37077   0.75962   0.00000  Uiso   1.00
H1058  H     0.43104   0.62924   0.74044   0.00000  Uiso   1.00
H1059  H     0.39942   0.45805   0.69372   0.00000  Uiso   1.00
H1060  H     0.60059   0.54190   0.80636   0.00000  Uiso   1.00
N1061  N     0.38093   0.50001   0.75001   0.00000  Uiso   1.00
N1062  N     0.61907   0.49999   0.74999   0.00000  Uiso   1.00
O1063  O     0.46179   0.56108   0.75000   0.00000  Uiso   1.00
O1064  O     0.53821   0.43892   0.74999   0.00000  Uiso   1.00
O1065  O     0.53823   0.56107   0.75000   0.00000  Uiso   1.00
O1066  O     0.46177   0.43893   0.75000   0.00000  Uiso   1.00
O1067  O     0.43994   0.50001   0.81612   0.00000  Uiso   1.00
O1068  O     0.56006   0.49999   0.68387   0.00000  Uiso   1.00
O1069  O     0.51639   0.50000   0.81612   0.00000  Uiso   1.00
O1070  O     0.48361   0.50000   0.68388   0.00000  Uiso   1.00
Zn1071 Zn    0.44896   0.50001   0.75000   0.00000  Uiso   1.00
Zn1072 Zn    0.55104   0.49999   0.75000   0.00000  Uiso   1.00
O1073  O     0.62571   0.53584   0.60670   0.00000  Uiso   1.00
C1074  C     0.33734   0.51396   0.59041   0.00000  Uiso   1.00
H1075  H     0.66484   0.47968   0.59313   0.00000  Uiso   1.00
H1076  H     0.35761   0.52230   0.61266   0.00000  Uiso   1.00
H1077  H     0.36079   0.52288   0.55388   0.00000  Uiso   1.00
O1078  O     0.38496   0.44775   0.88635   0.00000  Uiso   1.00
C1079  C     0.33805   0.46600   0.90047   0.00000  Uiso   1.00
H1080  H     0.65246   0.45274   0.87898   0.00000  Uiso   1.00
H1081  H     0.34082   0.50017   0.89437   0.00000  Uiso   1.00
H1082  H     0.64849   0.45893   0.93775   0.00000  Uiso   1.00
O1083  O     0.64302   0.45287   0.68676   0.00000  Uiso   1.00
C1084  C     0.66539   0.41326   0.67814   0.00000  Uiso   1.00
H1085  H     0.66460   0.39809   0.71069   0.00000  Uiso   1.00
H1086  H     0.37023   0.41536   0.65142   0.00000  Uiso   1.00
H1087  H     0.64451   0.39297   0.66353   0.00000  Uiso   1.00
O1088  O     0.35680   0.54706   0.81336   0.00000  Uiso   1.00
C1089  C     0.33556   0.58711   0.82075   0.00000  Uiso   1.00
H1090  H     0.63044   0.58594   0.84704   0.00000  Uiso   1.00
H1091  H     0.33732   0.60189   0.78767   0.00000  Uiso   1.00
H1092  H     0.35660   0.60725   0.83533   0.00000  Uiso   1.00
C1093  C     0.83331   0.58004   0.75006   0.00000  Uiso   1.00
C1094  C     0.83334   0.41996   0.74997   0.00000  Uiso   1.00
C1095  C     0.79280   0.45682   0.54169   0.00000  Uiso   1.00
C1096  C     0.88506   0.52261   0.95053   0.00000  Uiso   1.00
C1097  C     0.76032   0.44712   0.52089   0.00000  Uiso   1.00
C1098  C     0.91829   0.53116   0.97084   0.00000  Uiso   1.00
C1099  C     0.87209   0.64537   0.75540   0.00000  Uiso   1.00
C1100  C     0.79452   0.35464   0.74472   0.00000  Uiso   1.00
C1101  C     0.87213   0.35461   0.75532   0.00000  Uiso   1.00
C1102  C     0.79450   0.64539   0.74478   0.00000  Uiso   1.00
C1103  C     0.83334   0.37581   0.74999   0.00000  Uiso   1.00
C1104  C     0.83328   0.62420   0.75011   0.00000  Uiso   1.00
C1105  C     0.98829   0.47550   0.71901   0.00000  Uiso   1.00
C1106  C     0.67834   0.52446   0.78102   0.00000  Uiso   1.00
C1107  C     0.70349   0.47618   0.71884   0.00000  Uiso   1.00
C1108  C     0.96317   0.52379   0.78119   0.00000  Uiso   1.00
C1109  C     0.80243   0.49930   0.83804   0.00000  Uiso   1.00
C1110  C     0.86428   0.50019   0.66185   0.00000  Uiso   1.00
C1111  C     0.78276   0.49306   0.88844   0.00000  Uiso   1.00
C1112  C     0.88441   0.50187   0.61080   0.00000  Uiso   1.00
C1113  C     0.73442   0.45268   0.95643   0.00000  Uiso   1.00
C1114  C     0.94150   0.52925   0.53718   0.00000  Uiso   1.00
C1115  C     0.74307   0.46614   0.91104   0.00000  Uiso   1.00
C1116  C     0.92989   0.52062   0.58456   0.00000  Uiso   1.00
C1117  C     0.81087   0.50817   0.91191   0.00000  Uiso   1.00
C1118  C     0.85432   0.48767   0.58882   0.00000  Uiso   1.00
C1119  C     0.80626   0.49158   0.95501   0.00000  Uiso   1.00
C1120  C     0.86561   0.49545   0.54150   0.00000  Uiso   1.00
C1121  C     0.76641   0.46427   0.97791   0.00000  Uiso   1.00
C1122  C     0.90889   0.51823   0.51620   0.00000  Uiso   1.00
C1123  C     0.84123   0.50004   0.97488   0.00000  Uiso   1.00
C1124  C     0.83300   0.48404   0.51991   0.00000  Uiso   1.00
H1125  H     0.73053   0.42562   0.53839   0.00000  Uiso   1.00
H1126  H     0.95114   0.54881   0.95117   0.00000  Uiso   1.00
H1127  H     0.82001   0.47341   0.61053   0.00000  Uiso   1.00
H1128  H     0.83827   0.53114   0.89397   0.00000  Uiso   1.00
H1129  H     0.70494   0.43077   0.97341   0.00000  Uiso   1.00
H1130  H     0.97462   0.54656   0.51750   0.00000  Uiso   1.00
H1131  H     0.78648   0.44092   0.57407   0.00000  Uiso   1.00
H1132  H     0.89579   0.53331   0.91507   0.00000  Uiso   1.00
H1133  H     0.90221   0.62919   0.75976   0.00000  Uiso   1.00
H1134  H     0.76440   0.37082   0.74037   0.00000  Uiso   1.00
H1135  H     0.90227   0.37077   0.75962   0.00000  Uiso   1.00
H1136  H     0.76438   0.62924   0.74044   0.00000  Uiso   1.00
H1137  H     0.73275   0.45805   0.69372   0.00000  Uiso   1.00
H1138  H     0.93392   0.54190   0.80636   0.00000  Uiso   1.00
N1139  N     0.71426   0.50001   0.75001   0.00000  Uiso   1.00
N1140  N     0.95241   0.49999   0.74999   0.00000  Uiso   1.00
O1141  O     0.79512   0.56108   0.75000   0.00000  Uiso   1.00
O1142  O     0.87154   0.43892   0.74999   0.00000  Uiso   1.00
O1143  O     0.87157   0.56107   0.75000   0.00000  Uiso   1.00
O1144  O     0.79510   0.43893   0.75000   0.00000  Uiso   1.00
O1145  O     0.77328   0.50001   0.81612   0.00000  Uiso   1.00
O1146  O     0.89339   0.49999   0.68387   0.00000  Uiso   1.00
O1147  O     0.84972   0.50000   0.81612   0.00000  Uiso   1.00
O1148  O     0.81695   0.50000   0.68388   0.00000  Uiso   1.00
Zn1149 Zn    0.78229   0.50001   0.75000   0.00000  Uiso   1.00
Zn1150 Zn    0.88438   0.49999   0.75000   0.00000  Uiso   1.00
O1151  O     0.95905   0.53584   0.60670   0.00000  Uiso   1.00
C1152  C     0.67068   0.51396   0.59041   0.00000  Uiso   1.00
H1153  H     0.99817   0.47968   0.59313   0.00000  Uiso   1.00
H1154  H     0.69094   0.52230   0.61266   0.00000  Uiso   1.00
H1155  H     0.69413   0.52288   0.55388   0.00000  Uiso   1.00
O1156  O     0.71829   0.44775   0.88635   0.00000  Uiso   1.00
C1157  C     0.67138   0.46600   0.90047   0.00000  Uiso   1.00
H1158  H     0.98579   0.45274   0.87898   0.00000  Uiso   1.00
H1159  H     0.67415   0.50017   0.89437   0.00000  Uiso   1.00
H1160  H     0.98182   0.45893   0.93775   0.00000  Uiso   1.00
O1161  O     0.97635   0.45287   0.68676   0.00000  Uiso   1.00
C1162  C     0.99872   0.41326   0.67814   0.00000  Uiso   1.00
H1163  H     0.99793   0.39809   0.71069   0.00000  Uiso   1.00
H1164  H     0.70357   0.41536   0.65142   0.00000  Uiso   1.00
H1165  H     0.97784   0.39297   0.66353   0.00000  Uiso   1.00
O1166  O     0.69013   0.54706   0.81336   0.00000  Uiso   1.00
C1167  C     0.66889   0.58711   0.82075   0.00000  Uiso   1.00
H1168  H     0.96377   0.58594   0.84704   0.00000  Uiso   1.00
H1169  H     0.67066   0.60189   0.78767   0.00000  Uiso   1.00
H1170  H     0.68994   0.60725   0.83533   0.00000  Uiso   1.00
C1171  C     0.16665   0.91338   0.75006   0.00000  Uiso   1.00
C1172  C     0.16667   0.75329   0.74997   0.00000  Uiso   1.00
C1173  C     0.12614   0.79015   0.54169   0.00000  Uiso   1.00
C1174  C     0.21840   0.85594   0.95053   0.00000  Uiso   1.00
C1175  C     0.09366   0.78045   0.52089   0.00000  Uiso   1.00
C1176  C     0.25163   0.86449   0.97084   0.00000  Uiso   1.00
C1177  C     0.20542   0.97870   0.75540   0.00000  Uiso   1.00
C1178  C     0.12785   0.68797   0.74472   0.00000  Uiso   1.00
C1179  C     0.20546   0.68795   0.75532   0.00000  Uiso   1.00
C1180  C     0.12783   0.97873   0.74478   0.00000  Uiso   1.00
C1181  C     0.16667   0.70914   0.74999   0.00000  Uiso   1.00
C1182  C     0.16662   0.95753   0.75011   0.00000  Uiso   1.00
C1183  C     0.32162   0.80883   0.71901   0.00000  Uiso   1.00
C1184  C     0.01168   0.85780   0.78102   0.00000  Uiso   1.00
C1185  C     0.03682   0.80951   0.71884   0.00000  Uiso   1.00
C1186  C     0.29650   0.85712   0.78119   0.00000  Uiso   1.00
C1187  C     0.13576   0.83263   0.83804   0.00000  Uiso   1.00
C1188  C     0.19761   0.83352   0.66185   0.00000  Uiso   1.00
C1189  C     0.11610   0.82639   0.88844   0.00000  Uiso   1.00
C1190  C     0.21774   0.83520   0.61080   0.00000  Uiso   1.00
C1191  C     0.06775   0.78601   0.95643   0.00000  Uiso   1.00
C1192  C     0.27483   0.86258   0.53718   0.00000  Uiso   1.00
C1193  C     0.07641   0.79947   0.91104   0.00000  Uiso   1.00
C1194  C     0.26322   0.85395   0.58456   0.00000  Uiso   1.00
C1195  C     0.14421   0.84151   0.91191   0.00000  Uiso   1.00
C1196  C     0.18765   0.82100   0.58882   0.00000  Uiso   1.00
C1197  C     0.13959   0.82491   0.95501   0.00000  Uiso   1.00
C1198  C     0.19894   0.82879   0.54150   0.00000  Uiso   1.00
C1199  C     0.09975   0.79760   0.97791   0.00000  Uiso   1.00
C1200  C     0.24222   0.85156   0.51620   0.00000  Uiso   1.00
C1201  C     0.17456   0.83338   0.97488   0.00000  Uiso   1.00
C1202  C     0.16633   0.81737   0.51991   0.00000  Uiso   1.00
H1203  H     0.06387   0.75895   0.53839   0.00000  Uiso   1.00
H1204  H     0.28448   0.88215   0.95117   0.00000  Uiso   1.00
H1205  H     0.15335   0.80674   0.61053   0.00000  Uiso   1.00
H1206  H     0.17161   0.86448   0.89397   0.00000  Uiso   1.00
H1207  H     0.03827   0.76410   0.97341   0.00000  Uiso   1.00
H1208  H     0.30796   0.87989   0.51750   0.00000  Uiso   1.00
H1209  H     0.11981   0.77426   0.57407   0.00000  Uiso   1.00
H1210  H     0.22913   0.86665   0.91507   0.00000  Uiso   1.00
H1211  H     0.23555   0.96252   0.75976   0.00000  Uiso   1.00
H1212  H     0.09773   0.70415   0.74037   0.00000  Uiso   1.00
H1213  H     0.23560   0.70411   0.75962   0.00000  Uiso   1.00
H1214  H     0.09771   0.96257   0.74044   0.00000  Uiso   1.00
H1215  H     0.06608   0.79138   0.69372   0.00000  Uiso   1.00
H1216  H     0.26726   0.87523   0.80636   0.00000  Uiso   1.00
N1217  N     0.04759   0.83334   0.75001   0.00000  Uiso   1.00
N1218  N     0.28574   0.83332   0.74999   0.00000  Uiso   1.00
O1219  O     0.12846   0.89442   0.75000   0.00000  Uiso   1.00
O1220  O     0.20488   0.77225   0.74999   0.00000  Uiso   1.00
O1221  O     0.20490   0.89441   0.75000   0.00000  Uiso   1.00
O1222  O     0.12843   0.77226   0.75000   0.00000  Uiso   1.00
O1223  O     0.10661   0.83334   0.81612   0.00000  Uiso   1.00
O1224  O     0.22672   0.83333   0.68387   0.00000  Uiso   1.00
O1225  O     0.18305   0.83333   0.81612   0.00000  Uiso   1.00
O1226  O     0.15028   0.83334   0.68388   0.00000  Uiso   1.00
Zn1227 Zn    0.11562   0.83334   0.75000   0.00000  Uiso   1.00
Zn1228 Zn    0.21771   0.83333   0.75000   0.00000  Uiso   1.00
O1229  O     0.29238   0.86917   0.60670   0.00000  Uiso   1.00
C1230  C     0.00401   0.84729   0.59041   0.00000  Uiso   1.00
H1231  H     0.33151   0.81302   0.59313   0.00000  Uiso   1.00
H1232  H     0.02428   0.85563   0.61266   0.00000  Uiso   1.00
H1233  H     0.02746   0.85622   0.55388   0.00000  Uiso   1.00
O1234  O     0.05162   0.78108   0.88635   0.00000  Uiso   1.00
C1235  C     0.00472   0.79934   0.90047   0.00000  Uiso   1.00
H1236  H     0.31912   0.78608   0.87898   0.00000  Uiso   1.00
H1237  H     0.00749   0.83350   0.89437   0.00000  Uiso   1.00
H1238  H     0.31515   0.79227   0.93775   0.00000  Uiso   1.00
O1239  O     0.30968   0.78620   0.68676   0.00000  Uiso   1.00
C1240  C     0.33206   0.74659   0.67814   0.00000  Uiso   1.00
H1241  H     0.33127   0.73142   0.71069   0.00000  Uiso   1.00
H1242  H     0.03690   0.74869   0.65142   0.00000  Uiso   1.00
H1243  H     0.31118   0.72630   0.66353   0.00000  Uiso   1.00
O1244  O     0.02346   0.88039   0.81336   0.00000  Uiso   1.00
C1245  C     0.00222   0.92044   0.82075   0.00000  Uiso   1.00
H1246  H     0.29710   0.91928   0.84704   0.00000  Uiso   1.00
H1247  H     0.00399   0.93522   0.78767   0.00000  Uiso   1.00
H1248  H     0.02327   0.94058   0.83533   0.00000  Uiso   1.00
C1249  C     0.49998   0.91338   0.75006   0.00000  Uiso   1.00
C1250  C     0.50001   0.75329   0.74997   0.00000  Uiso   1.00
C1251  C     0.45947   0.79015   0.54169   0.00000  Uiso   1.00
C1252  C     0.55173   0.85594   0.95053   0.00000  Uiso   1.00
C1253  C     0.42699   0.78045   0.52089   0.00000  Uiso   1.00
C1254  C     0.58496   0.86449   0.97084   0.00000  Uiso   1.00
C1255  C     0.53876   0.97870   0.75540   0.00000  Uiso   1.00
C1256  C     0.46119   0.68797   0.74472   0.00000  Uiso   1.00
C1257  C     0.53879   0.68795   0.75532   0.00000  Uiso   1.00
C1258  C     0.46116   0.97873   0.74478   0.00000  Uiso   1.00
C1259  C     0.50001   0.70914   0.74999   0.00000  Uiso   1.00
C1260  C     0.49995   0.95753   0.75011   0.00000  Uiso   1.00
C1261  C     0.65496   0.80883   0.71901   0.00000  Uiso   1.00
C1262  C     0.34501   0.85780   0.78102   0.00000  Uiso   1.00
C1263  C     0.37016   0.80951   0.71884   0.00000  Uiso   1.00
C1264  C     0.62983   0.85712   0.78119   0.00000  Uiso   1.00
C1265  C     0.46910   0.83263   0.83804   0.00000  Uiso   1.00
C1266  C     0.53095   0.83352   0.66185   0.00000  Uiso   1.00
C1267  C     0.44943   0.82639   0.88844   0.00000  Uiso   1.00
C1268  C     0.55108   0.83520   0.61080   0.00000  Uiso   1.00
C1269  C     0.40108   0.78601   0.95643   0.00000  Uiso   1.00
C1270  C     0.60816   0.86258   0.53718   0.00000  Uiso   1.00
C1271  C     0.40974   0.79947   0.91104   0.00000  Uiso   1.00
C1272  C     0.59656   0.85395   0.58456   0.00000  Uiso   1.00
C1273  C     0.47754   0.84151   0.91191   0.00000  Uiso   1.00
C1274  C     0.52099   0.82100   0.58882   0.00000  Uiso   1.00
C1275  C     0.47292   0.82491   0.95501   0.00000  Uiso   1.00
C1276  C     0.53228   0.82879   0.54150   0.00000  Uiso   1.00
C1277  C     0.43308   0.79760   0.97791   0.00000  Uiso   1.00
C1278  C     0.57556   0.85156   0.51620   0.00000  Uiso   1.00
C1279  C     0.50790   0.83338   0.97488   0.00000  Uiso   1.00
C1280  C     0.49967   0.81737   0.51991   0.00000  Uiso   1.00
H1281  H     0.39720   0.75895   0.53839   0.00000  Uiso   1.00
H1282  H     0.61781   0.88215   0.95117   0.00000  Uiso   1.00
H1283  H     0.48668   0.80674   0.61053   0.00000  Uiso   1.00
H1284  H     0.50494   0.86448   0.89397   0.00000  Uiso   1.00
H1285  H     0.37160   0.76410   0.97341   0.00000  Uiso   1.00
H1286  H     0.64129   0.87989   0.51750   0.00000  Uiso   1.00
H1287  H     0.45315   0.77426   0.57407   0.00000  Uiso   1.00
H1288  H     0.56246   0.86665   0.91507   0.00000  Uiso   1.00
H1289  H     0.56888   0.96252   0.75976   0.00000  Uiso   1.00
H1290  H     0.43106   0.70415   0.74037   0.00000  Uiso   1.00
H1291  H     0.56893   0.70411   0.75962   0.00000  Uiso   1.00
H1292  H     0.43104   0.96257   0.74044   0.00000  Uiso   1.00
H1293  H     0.39942   0.79138   0.69372   0.00000  Uiso   1.00
H1294  H     0.60059   0.87523   0.80636   0.00000  Uiso   1.00
N1295  N     0.38093   0.83334   0.75001   0.00000  Uiso   1.00
N1296  N     0.61907   0.83332   0.74999   0.00000  Uiso   1.00
O1297  O     0.46179   0.89442   0.75000   0.00000  Uiso   1.00
O1298  O     0.53821   0.77225   0.74999   0.00000  Uiso   1.00
O1299  O     0.53823   0.89441   0.75000   0.00000  Uiso   1.00
O1300  O     0.46177   0.77226   0.75000   0.00000  Uiso   1.00
O1301  O     0.43994   0.83334   0.81612   0.00000  Uiso   1.00
O1302  O     0.56006   0.83333   0.68387   0.00000  Uiso   1.00
O1303  O     0.51639   0.83333   0.81612   0.00000  Uiso   1.00
O1304  O     0.48361   0.83334   0.68388   0.00000  Uiso   1.00
Zn1305 Zn    0.44896   0.83334   0.75000   0.00000  Uiso   1.00
Zn1306 Zn    0.55104   0.83333   0.75000   0.00000  Uiso   1.00
O1307  O     0.62571   0.86917   0.60670   0.00000  Uiso   1.00
C1308  C     0.33734   0.84729   0.59041   0.00000  Uiso   1.00
H1309  H     0.66484   0.81302   0.59313   0.00000  Uiso   1.00
H1310  H     0.35761   0.85563   0.61266   0.00000  Uiso   1.00
H1311  H     0.36079   0.85622   0.55388   0.00000  Uiso   1.00
O1312  O     0.38496   0.78108   0.88635   0.00000  Uiso   1.00
C1313  C     0.33805   0.79934   0.90047   0.00000  Uiso   1.00
H1314  H     0.65246   0.78608   0.87898   0.00000  Uiso   1.00
H1315  H     0.34082   0.83350   0.89437   0.00000  Uiso   1.00
H1316  H     0.64849   0.79227   0.93775   0.00000  Uiso   1.00
O1317  O     0.64302   0.78620   0.68676   0.00000  Uiso   1.00
C1318  C     0.66539   0.74659   0.67814   0.00000  Uiso   1.00
H1319  H     0.66460   0.73142   0.71069   0.00000  Uiso   1.00
H1320  H     0.37023   0.74869   0.65142   0.00000  Uiso   1.00
H1321  H     0.64451   0.72630   0.66353   0.00000  Uiso   1.00
O1322  O     0.35680   0.88039   0.81336   0.00000  Uiso   1.00
C1323  C     0.33556   0.92044   0.82075   0.00000  Uiso   1.00
H1324  H     0.63044   0.91928   0.84704   0.00000  Uiso   1.00
H1325  H     0.33732   0.93522   0.78767   0.00000  Uiso   1.00
H1326  H     0.35660   0.94058   0.83533   0.00000  Uiso   1.00
C1327  C     0.83331   0.91338   0.75006   0.00000  Uiso   1.00
C1328  C     0.83334   0.75329   0.74997   0.00000  Uiso   1.00
C1329  C     0.79280   0.79015   0.54169   0.00000  Uiso   1.00
C1330  C     0.88506   0.85594   0.95053   0.00000  Uiso   1.00
C1331  C     0.76032   0.78045   0.52089   0.00000  Uiso   1.00
C1332  C     0.91829   0.86449   0.97084   0.00000  Uiso   1.00
C1333  C     0.87209   0.97870   0.75540   0.00000  Uiso   1.00
C1334  C     0.79452   0.68797   0.74472   0.00000  Uiso   1.00
C1335  C     0.87213   0.68795   0.75532   0.00000  Uiso   1.00
C1336  C     0.79450   0.97873   0.74478   0.00000  Uiso   1.00
C1337  C     0.83334   0.70914   0.74999   0.00000  Uiso   1.00
C1338  C     0.83328   0.95753   0.75011   0.00000  Uiso   1.00
C1339  C     0.98829   0.80883   0.71901   0.00000  Uiso   1.00
C1340  C     0.67834   0.85780   0.78102   0.00000  Uiso   1.00
C1341  C     0.70349   0.80951   0.71884   0.00000  Uiso   1.00
C1342  C     0.96317   0.85712   0.78119   0.00000  Uiso   1.00
C1343  C     0.80243   0.83263   0.83804   0.00000  Uiso   1.00
C1344  C     0.86428   0.83352   0.66185   0.00000  Uiso   1.00
C1345  C     0.78276   0.82639   0.88844   0.00000  Uiso   1.00
C1346  C     0.88441   0.83520   0.61080   0.00000  Uiso   1.00
C1347  C     0.73442   0.78601   0.95643   0.00000  Uiso   1.00
C1348  C     0.94150   0.86258   0.53718   0.00000  Uiso   1.00
C1349  C     0.74307   0.79947   0.91104   0.00000  Uiso   1.00
C1350  C     0.92989   0.85395   0.58456   0.00000  Uiso   1.00
C1351  C     0.81087   0.84151   0.91191   0.00000  Uiso   1.00
C1352  C     0.85432   0.82100   0.58882   0.00000  Uiso   1.00
C1353  C     0.80626   0.82491   0.95501   0.00000  Uiso   1.00
C1354  C     0.86561   0.82879   0.54150   0.00000  Uiso   1.00
C1355  C     0.76641   0.79760   0.97791   0.00000  Uiso   1.00
C1356  C     0.90889   0.85156   0.51620   0.00000  Uiso   1.00
C1357  C     0.84123   0.83338   0.97488   0.00000  Uiso   1.00
C1358  C     0.83300   0.81737   0.51991   0.00000  Uiso   1.00
H1359  H     0.73053   0.75895   0.53839   0.00000  Uiso   1.00
H1360  H     0.95114   0.88215   0.95117   0.00000  Uiso   1.00
H1361  H     0.82001   0.80674   0.61053   0.00000  Uiso   1.00
H1362  H     0.83827   0.86448   0.89397   0.00000  Uiso   1.00
H1363  H     0.70494   0.76410   0.97341   0.00000  Uiso   1.00
H1364  H     0.97462   0.87989   0.51750   0.00000  Uiso   1.00
H1365  H     0.78648   0.77426   0.57407   0.00000  Uiso   1.00
H1366  H     0.89579   0.86665   0.91507   0.00000  Uiso   1.00
H1367  H     0.90221   0.96252   0.75976   0.00000  Uiso   1.00
H1368  H     0.76440   0.70415   0.74037   0.00000  Uiso   1.00
H1369  H     0.90227   0.70411   0.75962   0.00000  Uiso   1.00
H1370  H     0.76438   0.96257   0.74044   0.00000  Uiso   1.00
H1371  H     0.73275   0.79138   0.69372   0.00000  Uiso   1.00
H1372  H     0.93392   0.87523   0.80636   0.00000  Uiso   1.00
N1373  N     0.71426   0.83334   0.75001   0.00000  Uiso   1.00
N1374  N     0.95241   0.83332   0.74999   0.00000  Uiso   1.00
O1375  O     0.79512   0.89442   0.75000   0.00000  Uiso   1.00
O1376  O     0.87154   0.77225   0.74999   0.00000  Uiso   1.00
O1377  O     0.87157   0.89441   0.75000   0.00000  Uiso   1.00
O1378  O     0.79510   0.77226   0.75000   0.00000  Uiso   1.00
O1379  O     0.77328   0.83334   0.81612   0.00000  Uiso   1.00
O1380  O     0.89339   0.83333   0.68387   0.00000  Uiso   1.00
O1381  O     0.84972   0.83333   0.81612   0.00000  Uiso   1.00
O1382  O     0.81695   0.83334   0.68388   0.00000  Uiso   1.00
Zn1383 Zn    0.78229   0.83334   0.75000   0.00000  Uiso   1.00
Zn1384 Zn    0.88438   0.83333   0.75000   0.00000  Uiso   1.00
O1385  O     0.95905   0.86917   0.60670   0.00000  Uiso   1.00
C1386  C     0.67068   0.84729   0.59041   0.00000  Uiso   1.00
H1387  H     0.99817   0.81302   0.59313   0.00000  Uiso   1.00
H1388  H     0.69094   0.85563   0.61266   0.00000  Uiso   1.00
H1389  H     0.69413   0.85622   0.55388   0.00000  Uiso   1.00
O1390  O     0.71829   0.78108   0.88635   0.00000  Uiso   1.00
C1391  C     0.67138   0.79934   0.90047   0.00000  Uiso   1.00
H1392  H     0.98579   0.78608   0.87898   0.00000  Uiso   1.00
H1393  H     0.67415   0.83350   0.89437   0.00000  Uiso   1.00
H1394  H     0.98182   0.79227   0.93775   0.00000  Uiso   1.00
O1395  O     0.97635   0.78620   0.68676   0.00000  Uiso   1.00
C1396  C     0.99872   0.74659   0.67814   0.00000  Uiso   1.00
H1397  H     0.99793   0.73142   0.71069   0.00000  Uiso   1.00
H1398  H     0.70357   0.74869   0.65142   0.00000  Uiso   1.00
H1399  H     0.97784   0.72630   0.66353   0.00000  Uiso   1.00
O1400  O     0.69013   0.88039   0.81336   0.00000  Uiso   1.00
C1401  C     0.66889   0.92044   0.82075   0.00000  Uiso   1.00
H1402  H     0.96377   0.91928   0.84704   0.00000  Uiso   1.00
H1403  H     0.67066   0.93522   0.78767   0.00000  Uiso   1.00
H1404  H     0.68994   0.94058   0.83533   0.00000  Uiso   1.00
loop_
_geom_bond_atom_site_label_1
_geom_bond_atom_site_label_2
_geom_bond_distance
_geom_bond_site_symmetry_2
_ccdc_geom_bond_type
C1     C12     1.420   .     S
C1     O51     1.283   .     A
C1     O49     1.283   .     A
C2     O50     1.283   .     A
C2     C11     1.420   .     S
C2     O52     1.283   .     A
C3     H39     1.077   .     S
C3     C32     1.417   .     A
C3     C5      1.385   .     A
C4     H40     1.076   .     S
C4     C6      1.386   .     A
C4     C31     1.418   .     A
C5     H33     1.084   .     S
C5     C731    1.389   1_554 S
C6     H34     1.084   .     S
C6     C732    1.389   .     S
C7     C12     1.398   .     A
C7     H41     1.084   .     S
C7     C243    1.369   .     S
C8     H42     1.084   .     S
C8     C11     1.397   .     A
C8     C478    1.369   1_545 S
C9     H43     1.084   .     S
C9     C11     1.397   .     A
C9     C475    1.369   1_545 S
C10    C12     1.397   .     A
C10    H44     1.083   .     S
C10    C242    1.369   .     S
C13    O69     1.390   .     S
C13    N48     1.368   .     A
C13    C93     1.432   .     S
C14    O74     1.389   .     S
C14    N47     1.368   .     A
C14    C172    1.431   1_455 S
C15    N47     1.365   .     A
C15    H45     1.080   .     S
C15    C169    1.432   1_455 S
C16    N48     1.365   .     A
C16    H46     1.080   .     S
C16    C92     1.431   .     S
C17    O55     1.293   .     A
C17    O53     1.290   .     A
C17    C19     1.455   .     S
C18    O56     1.294   .     A
C18    C20     1.460   .     S
C18    O54     1.291   .     A
C19    C23     1.406   .     A
C19    C25     1.389   .     A
C20    C24     1.407   .     A
C20    C26     1.392   .     A
C21    C23     1.399   .     A
C21    C29     1.403   .     A
C21    H37     1.084   .     S
C22    H38     1.084   .     S
C22    C24     1.402   .     A
C22    C30     1.403   .     A
C23    O64     1.383   .     S
C24    O59     1.384   .     S
C25    C27     1.397   .     A
C25    H36     1.077   .     S
C26    C28     1.396   .     A
C26    H35     1.077   .     S
C27    C29     1.418   .     A
C27    C31     1.421   .     A
C28    C32     1.420   .     A
C28    C30     1.416   .     A
C29    C707    1.389   .     S
C30    C708    1.389   1_554 S
C31    C734    1.419   .     S
C32    C733    1.419   1_554 S
N47    Zn57    2.010   .     S
N48    Zn58    2.010   .     S
O49    Zn57    2.001   .     S
O50    Zn58    2.001   .     S
O51    Zn58    2.000   .     S
O52    Zn57    2.000   .     S
O53    Zn57    1.964   .     S
O54    Zn58    1.964   .     S
O55    Zn58    1.902   .     S
O56    Zn57    1.902   .     S
O59    C138    1.410   .     S
C60    H63     1.111   .     S
C60    H62     1.109   .     S
C60    O215    1.410   1_455 S
C60    H217    1.114   1_455 S
H61    C138    1.114   .     S
O64    C65     1.408   .     S
C65    H67     1.113   .     S
C65    H222    1.109   1_455 S
C65    H224    1.112   1_455 S
H66    C143    1.109   .     S
H68    C143    1.112   .     S
O69    C70     1.411   .     S
C70    H71     1.114   .     S
C70    H73     1.109   .     S
C70    H150    1.111   .     S
H72    C226    1.111   1_455 S
O74    C75     1.411   .     S
C75    H77     1.115   .     S
C75    H78     1.109   .     S
C75    H232    1.111   1_455 S
H76    C153    1.111   .     S
C79    C90     1.420   .     S
C79    O129    1.283   .     A
C79    O127    1.283   .     A
C80    O128    1.283   .     A
C80    C89     1.420   .     S
C80    O130    1.283   .     A
C81    H117    1.077   .     S
C81    C110    1.417   .     A
C81    C83     1.385   .     A
C82    H118    1.076   .     S
C82    C84     1.386   .     A
C82    C109    1.418   .     A
C83    H111    1.084   .     S
C83    C809    1.389   1_554 S
C84    H112    1.084   .     S
C84    C810    1.389   .     S
C85    C90     1.398   .     A
C85    H119    1.084   .     S
C85    C321    1.369   .     S
C86    H120    1.084   .     S
C86    C89     1.397   .     A
C86    C556    1.369   1_545 S
C87    H121    1.084   .     S
C87    C89     1.397   .     A
C87    C553    1.369   1_545 S
C88    C90     1.397   .     A
C88    H122    1.083   .     S
C88    C320    1.369   .     S
C91    O147    1.390   .     S
C91    N126    1.368   .     A
C91    C171    1.432   .     S
C92    O152    1.389   .     S
C92    N125    1.368   .     A
C93    N125    1.365   .     A
C93    H123    1.080   .     S
C94    N126    1.365   .     A
C94    H124    1.080   .     S
C94    C170    1.431   .     S
C95    O133    1.293   .     A
C95    O131    1.290   .     A
C95    C97     1.455   .     S
C96    O134    1.294   .     A
C96    C98     1.460   .     S
C96    O132    1.291   .     A
C97    C101    1.406   .     A
C97    C103    1.389   .     A
C98    C102    1.407   .     A
C98    C104    1.392   .     A
C99    C101    1.399   .     A
C99    C107    1.403   .     A
C99    H115    1.084   .     S
C100   H116    1.084   .     S
C100   C102    1.402   .     A
C100   C108    1.403   .     A
C101   O142    1.383   .     S
C102   O137    1.384   .     S
C103   C105    1.397   .     A
C103   H114    1.077   .     S
C104   C106    1.396   .     A
C104   H113    1.077   .     S
C105   C107    1.418   .     A
C105   C109    1.421   .     A
C106   C110    1.420   .     A
C106   C108    1.416   .     A
C107   C785    1.389   .     S
C108   C786    1.389   1_554 S
C109   C812    1.419   .     S
C110   C811    1.419   1_554 S
N125   Zn135   2.010   .     S
N126   Zn136   2.010   .     S
O127   Zn135   2.001   .     S
O128   Zn136   2.001   .     S
O129   Zn136   2.000   .     S
O130   Zn135   2.000   .     S
O131   Zn135   1.964   .     S
O132   Zn136   1.964   .     S
O133   Zn136   1.902   .     S
O134   Zn135   1.902   .     S
O137   C216    1.410   .     S
C138   H141    1.111   .     S
C138   H140    1.109   .     S
H139   C216    1.114   .     S
O142   C143    1.408   .     S
C143   H145    1.113   .     S
H144   C221    1.109   .     S
H146   C221    1.112   .     S
O147   C148    1.411   .     S
C148   H149    1.114   .     S
C148   H151    1.109   .     S
C148   H228    1.111   .     S
O152   C153    1.411   .     S
C153   H155    1.115   .     S
C153   H156    1.109   .     S
H154   C231    1.111   .     S
C157   C168    1.420   .     S
C157   O207    1.283   .     A
C157   O205    1.283   .     A
C158   O206    1.283   .     A
C158   C167    1.420   .     S
C158   O208    1.283   .     A
C159   H195    1.077   .     S
C159   C188    1.417   .     A
C159   C161    1.385   .     A
C160   H196    1.076   .     S
C160   C162    1.386   .     A
C160   C187    1.418   .     A
C161   H189    1.084   .     S
C161   C887    1.389   1_554 S
C162   H190    1.084   .     S
C162   C888    1.389   .     S
C163   C168    1.398   .     A
C163   H197    1.084   .     S
C163   C399    1.369   .     S
C164   H198    1.084   .     S
C164   C167    1.397   .     A
C164   C634    1.369   1_545 S
C165   H199    1.084   .     S
C165   C167    1.397   .     A
C165   C631    1.369   1_545 S
C166   C168    1.397   .     A
C166   H200    1.083   .     S
C166   C398    1.369   .     S
C169   O225    1.390   .     S
C169   N204    1.368   .     A
C169   C15     1.432   1_655 S
C170   O230    1.389   .     S
C170   N203    1.368   .     A
C171   N203    1.365   .     A
C171   H201    1.080   .     S
C172   N204    1.365   .     A
C172   H202    1.080   .     S
C172   C14     1.431   1_655 S
C173   O211    1.293   .     A
C173   O209    1.290   .     A
C173   C175    1.455   .     S
C174   O212    1.294   .     A
C174   C176    1.460   .     S
C174   O210    1.291   .     A
C175   C179    1.406   .     A
C175   C181    1.389   .     A
C176   C180    1.407   .     A
C176   C182    1.392   .     A
C177   C179    1.399   .     A
C177   C185    1.403   .     A
C177   H193    1.084   .     S
C178   H194    1.084   .     S
C178   C180    1.402   .     A
C178   C186    1.403   .     A
C179   O220    1.383   .     S
C180   O215    1.384   .     S
C181   C183    1.397   .     A
C181   H192    1.077   .     S
C182   C184    1.396   .     A
C182   H191    1.077   .     S
C183   C185    1.418   .     A
C183   C187    1.421   .     A
C184   C188    1.420   .     A
C184   C186    1.416   .     A
C185   C863    1.389   .     S
C186   C864    1.389   1_554 S
C187   C890    1.419   .     S
C188   C889    1.419   1_554 S
N203   Zn213   2.010   .     S
N204   Zn214   2.010   .     S
O205   Zn213   2.001   .     S
O206   Zn214   2.001   .     S
O207   Zn214   2.000   .     S
O208   Zn213   2.000   .     S
O209   Zn213   1.964   .     S
O210   Zn214   1.964   .     S
O211   Zn214   1.902   .     S
O212   Zn213   1.902   .     S
O215   C60     1.410   1_655 S
C216   H219    1.111   .     S
C216   H218    1.109   .     S
H217   C60     1.114   1_655 S
O220   C221    1.408   .     S
C221   H223    1.113   .     S
H222   C65     1.109   1_655 S
H224   C65     1.112   1_655 S
O225   C226    1.411   .     S
C226   H227    1.114   .     S
C226   H229    1.109   .     S
C226   H72     1.111   1_655 S
O230   C231    1.411   .     S
C231   H233    1.115   .     S
C231   H234    1.109   .     S
H232   C75     1.111   1_655 S
C235   C246    1.420   .     S
C235   O285    1.283   .     A
C235   O283    1.283   .     A
C236   O284    1.283   .     A
C236   C245    1.420   .     S
C236   O286    1.283   .     A
C237   H273    1.077   .     S
C237   C266    1.417   .     A
C237   C239    1.385   .     A
C238   H274    1.076   .     S
C238   C240    1.386   .     A
C238   C265    1.418   .     A
C239   H267    1.084   .     S
C239   C965    1.389   1_554 S
C240   H268    1.084   .     S
C240   C966    1.389   .     S
C241   C246    1.398   .     A
C241   H275    1.084   .     S
C241   C477    1.369   .     S
C242   H276    1.084   .     S
C242   C245    1.397   .     A
C243   H277    1.084   .     S
C243   C245    1.397   .     A
C244   C246    1.397   .     A
C244   H278    1.083   .     S
C244   C476    1.369   .     S
C247   O303    1.390   .     S
C247   N282    1.368   .     A
C247   C327    1.432   .     S
C248   O308    1.389   .     S
C248   N281    1.368   .     A
C248   C406    1.431   1_455 S
C249   N281    1.365   .     A
C249   H279    1.080   .     S
C249   C403    1.432   1_455 S
C250   N282    1.365   .     A
C250   H280    1.080   .     S
C250   C326    1.431   .     S
C251   O289    1.293   .     A
C251   O287    1.290   .     A
C251   C253    1.455   .     S
C252   O290    1.294   .     A
C252   C254    1.460   .     S
C252   O288    1.291   .     A
C253   C257    1.406   .     A
C253   C259    1.389   .     A
C254   C258    1.407   .     A
C254   C260    1.392   .     A
C255   C257    1.399   .     A
C255   C263    1.403   .     A
C255   H271    1.084   .     S
C256   H272    1.084   .     S
C256   C258    1.402   .     A
C256   C264    1.403   .     A
C257   O298    1.383   .     S
C258   O293    1.384   .     S
C259   C261    1.397   .     A
C259   H270    1.077   .     S
C260   C262    1.396   .     A
C260   H269    1.077   .     S
C261   C263    1.418   .     A
C261   C265    1.421   .     A
C262   C266    1.420   .     A
C262   C264    1.416   .     A
C263   C941    1.389   .     S
C264   C942    1.389   1_554 S
C265   C968    1.419   .     S
C266   C967    1.419   1_554 S
N281   Zn291   2.010   .     S
N282   Zn292   2.010   .     S
O283   Zn291   2.001   .     S
O284   Zn292   2.001   .     S
O285   Zn292   2.000   .     S
O286   Zn291   2.000   .     S
O287   Zn291   1.964   .     S
O288   Zn292   1.964   .     S
O289   Zn292   1.902   .     S
O290   Zn291   1.902   .     S
O293   C372    1.410   .     S
C294   H297    1.111   .     S
C294   H296    1.109   .     S
C294   O449    1.410   1_455 S
C294   H451    1.114   1_455 S
H295   C372    1.114   .     S
O298   C299    1.408   .     S
C299   H301    1.113   .     S
C299   H456    1.109   1_455 S
C299   H458    1.112   1_455 S
H300   C377    1.109   .     S
H302   C377    1.112   .     S
O303   C304    1.411   .     S
C304   H305    1.114   .     S
C304   H307    1.109   .     S
C304   H384    1.111   .     S
H306   C460    1.111   1_455 S
O308   C309    1.411   .     S
C309   H311    1.115   .     S
C309   H312    1.109   .     S
C309   H466    1.111   1_455 S
H310   C387    1.111   .     S
C313   C324    1.420   .     S
C313   O363    1.283   .     A
C313   O361    1.283   .     A
C314   O362    1.283   .     A
C314   C323    1.420   .     S
C314   O364    1.283   .     A
C315   H351    1.077   .     S
C315   C344    1.417   .     A
C315   C317    1.385   .     A
C316   H352    1.076   .     S
C316   C318    1.386   .     A
C316   C343    1.418   .     A
C317   H345    1.084   .     S
C317   C1043   1.389   1_554 S
C318   H346    1.084   .     S
C318   C1044   1.389   .     S
C319   C324    1.398   .     A
C319   H353    1.084   .     S
C319   C555    1.369   .     S
C320   H354    1.084   .     S
C320   C323    1.397   .     A
C321   H355    1.084   .     S
C321   C323    1.397   .     A
C322   C324    1.397   .     A
C322   H356    1.083   .     S
C322   C554    1.369   .     S
C325   O381    1.390   .     S
C325   N360    1.368   .     A
C325   C405    1.432   .     S
C326   O386    1.389   .     S
C326   N359    1.368   .     A
C327   N359    1.365   .     A
C327   H357    1.080   .     S
C328   N360    1.365   .     A
C328   H358    1.080   .     S
C328   C404    1.431   .     S
C329   O367    1.293   .     A
C329   O365    1.290   .     A
C329   C331    1.455   .     S
C330   O368    1.294   .     A
C330   C332    1.460   .     S
C330   O366    1.291   .     A
C331   C335    1.406   .     A
C331   C337    1.389   .     A
C332   C336    1.407   .     A
C332   C338    1.392   .     A
C333   C335    1.399   .     A
C333   C341    1.403   .     A
C333   H349    1.084   .     S
C334   H350    1.084   .     S
C334   C336    1.402   .     A
C334   C342    1.403   .     A
C335   O376    1.383   .     S
C336   O371    1.384   .     S
C337   C339    1.397   .     A
C337   H348    1.077   .     S
C338   C340    1.396   .     A
C338   H347    1.077   .     S
C339   C341    1.418   .     A
C339   C343    1.421   .     A
C340   C344    1.420   .     A
C340   C342    1.416   .     A
C341   C1019   1.389   .     S
C342   C1020   1.389   1_554 S
C343   C1046   1.419   .     S
C344   C1045   1.419   1_554 S
N359   Zn369   2.010   .     S
N360   Zn370   2.010   .     S
O361   Zn369   2.001   .     S
O362   Zn370   2.001   .     S
O363   Zn370   2.000   .     S
O364   Zn369   2.000   .     S
O365   Zn369   1.964   .     S
O366   Zn370   1.964   .     S
O367   Zn370   1.902   .     S
O368   Zn369   1.902   .     S
O371   C450    1.410   .     S
C372   H375    1.111   .     S
C372   H374    1.109   .     S
H373   C450    1.114   .     S
O376   C377    1.408   .     S
C377   H379    1.113   .     S
H378   C455    1.109   .     S
H380   C455    1.112   .     S
O381   C382    1.411   .     S
C382   H383    1.114   .     S
C382   H385    1.109   .     S
C382   H462    1.111   .     S
O386   C387    1.411   .     S
C387   H389    1.115   .     S
C387   H390    1.109   .     S
H388   C465    1.111   .     S
C391   C402    1.420   .     S
C391   O441    1.283   .     A
C391   O439    1.283   .     A
C392   O440    1.283   .     A
C392   C401    1.420   .     S
C392   O442    1.283   .     A
C393   H429    1.077   .     S
C393   C422    1.417   .     A
C393   C395    1.385   .     A
C394   H430    1.076   .     S
C394   C396    1.386   .     A
C394   C421    1.418   .     A
C395   H423    1.084   .     S
C395   C1121   1.389   1_554 S
C396   H424    1.084   .     S
C396   C1122   1.389   .     S
C397   C402    1.398   .     A
C397   H431    1.084   .     S
C397   C633    1.369   .     S
C398   H432    1.084   .     S
C398   C401    1.397   .     A
C399   H433    1.084   .     S
C399   C401    1.397   .     A
C400   C402    1.397   .     A
C400   H434    1.083   .     S
C400   C632    1.369   .     S
C403   O459    1.390   .     S
C403   N438    1.368   .     A
C403   C249    1.432   1_655 S
C404   O464    1.389   .     S
C404   N437    1.368   .     A
C405   N437    1.365   .     A
C405   H435    1.080   .     S
C406   N438    1.365   .     A
C406   H436    1.080   .     S
C406   C248    1.431   1_655 S
C407   O445    1.293   .     A
C407   O443    1.290   .     A
C407   C409    1.455   .     S
C408   O446    1.294   .     A
C408   C410    1.460   .     S
C408   O444    1.291   .     A
C409   C413    1.406   .     A
C409   C415    1.389   .     A
C410   C414    1.407   .     A
C410   C416    1.392   .     A
C411   C413    1.399   .     A
C411   C419    1.403   .     A
C411   H427    1.084   .     S
C412   H428    1.084   .     S
C412   C414    1.402   .     A
C412   C420    1.403   .     A
C413   O454    1.383   .     S
C414   O449    1.384   .     S
C415   C417    1.397   .     A
C415   H426    1.077   .     S
C416   C418    1.396   .     A
C416   H425    1.077   .     S
C417   C419    1.418   .     A
C417   C421    1.421   .     A
C418   C422    1.420   .     A
C418   C420    1.416   .     A
C419   C1097   1.389   .     S
C420   C1098   1.389   1_554 S
C421   C1124   1.419   .     S
C422   C1123   1.419   1_554 S
N437   Zn447   2.010   .     S
N438   Zn448   2.010   .     S
O439   Zn447   2.001   .     S
O440   Zn448   2.001   .     S
O441   Zn448   2.000   .     S
O442   Zn447   2.000   .     S
O443   Zn447   1.964   .     S
O444   Zn448   1.964   .     S
O445   Zn448   1.902   .     S
O446   Zn447   1.902   .     S
O449   C294    1.410   1_655 S
C450   H453    1.111   .     S
C450   H452    1.109   .     S
H451   C294    1.114   1_655 S
O454   C455    1.408   .     S
C455   H457    1.113   .     S
H456   C299    1.109   1_655 S
H458   C299    1.112   1_655 S
O459   C460    1.411   .     S
C460   H461    1.114   .     S
C460   H463    1.109   .     S
C460   H306    1.111   1_655 S
O464   C465    1.411   .     S
C465   H467    1.115   .     S
C465   H468    1.109   .     S
H466   C309    1.111   1_655 S
C469   C480    1.420   .     S
C469   O519    1.283   .     A
C469   O517    1.283   .     A
C470   O518    1.283   .     A
C470   C479    1.420   .     S
C470   O520    1.283   .     A
C471   H507    1.077   .     S
C471   C500    1.417   .     A
C471   C473    1.385   .     A
C472   H508    1.076   .     S
C472   C474    1.386   .     A
C472   C499    1.418   .     A
C473   H501    1.084   .     S
C473   C1199   1.389   1_554 S
C474   H502    1.084   .     S
C474   C1200   1.389   .     S
C475   C480    1.398   .     A
C475   H509    1.084   .     S
C475   C9      1.369   1_565 S
C476   H510    1.084   .     S
C476   C479    1.397   .     A
C477   H511    1.084   .     S
C477   C479    1.397   .     A
C478   C480    1.397   .     A
C478   H512    1.083   .     S
C478   C8      1.369   1_565 S
C481   O537    1.390   .     S
C481   N516    1.368   .     A
C481   C561    1.432   .     S
C482   O542    1.389   .     S
C482   N515    1.368   .     A
C482   C640    1.431   1_455 S
C483   N515    1.365   .     A
C483   H513    1.080   .     S
C483   C637    1.432   1_455 S
C484   N516    1.365   .     A
C484   H514    1.080   .     S
C484   C560    1.431   .     S
C485   O523    1.293   .     A
C485   O521    1.290   .     A
C485   C487    1.455   .     S
C486   O524    1.294   .     A
C486   C488    1.460   .     S
C486   O522    1.291   .     A
C487   C491    1.406   .     A
C487   C493    1.389   .     A
C488   C492    1.407   .     A
C488   C494    1.392   .     A
C489   C491    1.399   .     A
C489   C497    1.403   .     A
C489   H505    1.084   .     S
C490   H506    1.084   .     S
C490   C492    1.402   .     A
C490   C498    1.403   .     A
C491   O532    1.383   .     S
C492   O527    1.384   .     S
C493   C495    1.397   .     A
C493   H504    1.077   .     S
C494   C496    1.396   .     A
C494   H503    1.077   .     S
C495   C497    1.418   .     A
C495   C499    1.421   .     A
C496   C500    1.420   .     A
C496   C498    1.416   .     A
C497   C1175   1.389   .     S
C498   C1176   1.389   1_554 S
C499   C1202   1.419   .     S
C500   C1201   1.419   1_554 S
N515   Zn525   2.010   .     S
N516   Zn526   2.010   .     S
O517   Zn525   2.001   .     S
O518   Zn526   2.001   .     S
O519   Zn526   2.000   .     S
O520   Zn525   2.000   .     S
O521   Zn525   1.964   .     S
O522   Zn526   1.964   .     S
O523   Zn526   1.902   .     S
O524   Zn525   1.902   .     S
O527   C606    1.410   .     S
C528   H531    1.111   .     S
C528   H530    1.109   .     S
C528   O683    1.410   1_455 S
C528   H685    1.114   1_455 S
H529   C606    1.114   .     S
O532   C533    1.408   .     S
C533   H535    1.113   .     S
C533   H690    1.109   1_455 S
C533   H692    1.112   1_455 S
H534   C611    1.109   .     S
H536   C611    1.112   .     S
O537   C538    1.411   .     S
C538   H539    1.114   .     S
C538   H541    1.109   .     S
C538   H618    1.111   .     S
H540   C694    1.111   1_455 S
O542   C543    1.411   .     S
C543   H545    1.115   .     S
C543   H546    1.109   .     S
C543   H700    1.111   1_455 S
H544   C621    1.111   .     S
C547   C558    1.420   .     S
C547   O597    1.283   .     A
C547   O595    1.283   .     A
C548   O596    1.283   .     A
C548   C557    1.420   .     S
C548   O598    1.283   .     A
C549   H585    1.077   .     S
C549   C578    1.417   .     A
C549   C551    1.385   .     A
C550   H586    1.076   .     S
C550   C552    1.386   .     A
C550   C577    1.418   .     A
C551   H579    1.084   .     S
C551   C1277   1.389   1_554 S
C552   H580    1.084   .     S
C552   C1278   1.389   .     S
C553   C558    1.398   .     A
C553   H587    1.084   .     S
C553   C87     1.369   1_565 S
C554   H588    1.084   .     S
C554   C557    1.397   .     A
C555   H589    1.084   .     S
C555   C557    1.397   .     A
C556   C558    1.397   .     A
C556   H590    1.083   .     S
C556   C86     1.369   1_565 S
C559   O615    1.390   .     S
C559   N594    1.368   .     A
C559   C639    1.432   .     S
C560   O620    1.389   .     S
C560   N593    1.368   .     A
C561   N593    1.365   .     A
C561   H591    1.080   .     S
C562   N594    1.365   .     A
C562   H592    1.080   .     S
C562   C638    1.431   .     S
C563   O601    1.293   .     A
C563   O599    1.290   .     A
C563   C565    1.455   .     S
C564   O602    1.294   .     A
C564   C566    1.460   .     S
C564   O600    1.291   .     A
C565   C569    1.406   .     A
C565   C571    1.389   .     A
C566   C570    1.407   .     A
C566   C572    1.392   .     A
C567   C569    1.399   .     A
C567   C575    1.403   .     A
C567   H583    1.084   .     S
C568   H584    1.084   .     S
C568   C570    1.402   .     A
C568   C576    1.403   .     A
C569   O610    1.383   .     S
C570   O605    1.384   .     S
C571   C573    1.397   .     A
C571   H582    1.077   .     S
C572   C574    1.396   .     A
C572   H581    1.077   .     S
C573   C575    1.418   .     A
C573   C577    1.421   .     A
C574   C578    1.420   .     A
C574   C576    1.416   .     A
C575   C1253   1.389   .     S
C576   C1254   1.389   1_554 S
C577   C1280   1.419   .     S
C578   C1279   1.419   1_554 S
N593   Zn603   2.010   .     S
N594   Zn604   2.010   .     S
O595   Zn603   2.001   .     S
O596   Zn604   2.001   .     S
O597   Zn604   2.000   .     S
O598   Zn603   2.000   .     S
O599   Zn603   1.964   .     S
O600   Zn604   1.964   .     S
O601   Zn604   1.902   .     S
O602   Zn603   1.902   .     S
O605   C684    1.410   .     S
C606   H609    1.111   .     S
C606   H608    1.109   .     S
H607   C684    1.114   .     S
O610   C611    1.408   .     S
C611   H613    1.113   .     S
H612   C689    1.109   .     S
H614   C689    1.112   .     S
O615   C616    1.411   .     S
C616   H617    1.114   .     S
C616   H619    1.109   .     S
C616   H696    1.111   .     S
O620   C621    1.411   .     S
C621   H623    1.115   .     S
C621   H624    1.109   .     S
H622   C699    1.111   .     S
C625   C636    1.420   .     S
C625   O675    1.283   .     A
C625   O673    1.283   .     A
C626   O674    1.283   .     A
C626   C635    1.420   .     S
C626   O676    1.283   .     A
C627   H663    1.077   .     S
C627   C656    1.417   .     A
C627   C629    1.385   .     A
C628   H664    1.076   .     S
C628   C630    1.386   .     A
C628   C655    1.418   .     A
C629   H657    1.084   .     S
C629   C1355   1.389   1_554 S
C630   H658    1.084   .     S
C630   C1356   1.389   .     S
C631   C636    1.398   .     A
C631   H665    1.084   .     S
C631   C165    1.369   1_565 S
C632   H666    1.084   .     S
C632   C635    1.397   .     A
C633   H667    1.084   .     S
C633   C635    1.397   .     A
C634   C636    1.397   .     A
C634   H668    1.083   .     S
C634   C164    1.369   1_565 S
C637   O693    1.390   .     S
C637   N672    1.368   .     A
C637   C483    1.432   1_655 S
C638   O698    1.389   .     S
C638   N671    1.368   .     A
C639   N671    1.365   .     A
C639   H669    1.080   .     S
C640   N672    1.365   .     A
C640   H670    1.080   .     S
C640   C482    1.431   1_655 S
C641   O679    1.293   .     A
C641   O677    1.290   .     A
C641   C643    1.455   .     S
C642   O680    1.294   .     A
C642   C644    1.460   .     S
C642   O678    1.291   .     A
C643   C647    1.406   .     A
C643   C649    1.389   .     A
C644   C648    1.407   .     A
C644   C650    1.392   .     A
C645   C647    1.399   .     A
C645   C653    1.403   .     A
C645   H661    1.084   .     S
C646   H662    1.084   .     S
C646   C648    1.402   .     A
C646   C654    1.403   .     A
C647   O688    1.383   .     S
C648   O683    1.384   .     S
C649   C651    1.397   .     A
C649   H660    1.077   .     S
C650   C652    1.396   .     A
C650   H659    1.077   .     S
C651   C653    1.418   .     A
C651   C655    1.421   .     A
C652   C656    1.420   .     A
C652   C654    1.416   .     A
C653   C1331   1.389   .     S
C654   C1332   1.389   1_554 S
C655   C1358   1.419   .     S
C656   C1357   1.419   1_554 S
N671   Zn681   2.010   .     S
N672   Zn682   2.010   .     S
O673   Zn681   2.001   .     S
O674   Zn682   2.001   .     S
O675   Zn682   2.000   .     S
O676   Zn681   2.000   .     S
O677   Zn681   1.964   .     S
O678   Zn682   1.964   .     S
O679   Zn682   1.902   .     S
O680   Zn681   1.902   .     S
O683   C528    1.410   1_655 S
C684   H687    1.111   .     S
C684   H686    1.109   .     S
H685   C528    1.114   1_655 S
O688   C689    1.408   .     S
C689   H691    1.113   .     S
H690   C533    1.109   1_655 S
H692   C533    1.112   1_655 S
O693   C694    1.411   .     S
C694   H695    1.114   .     S
C694   H697    1.109   .     S
C694   H540    1.111   1_655 S
O698   C699    1.411   .     S
C699   H701    1.115   .     S
C699   H702    1.109   .     S
H700   C543    1.111   1_655 S
C703   C714    1.420   .     S
C703   O753    1.283   .     A
C703   O751    1.283   .     A
C704   O752    1.283   .     A
C704   C713    1.420   .     S
C704   O754    1.283   .     A
C705   H741    1.077   .     S
C705   C734    1.417   .     A
C705   C707    1.385   .     A
C706   H742    1.076   .     S
C706   C708    1.386   .     A
C706   C733    1.418   .     A
C707   H735    1.084   .     S
C708   H736    1.084   .     S
C708   C30     1.389   1_556 S
C709   C714    1.398   .     A
C709   H743    1.084   .     S
C709   C945    1.369   .     S
C710   H744    1.084   .     S
C710   C713    1.397   .     A
C710   C1180   1.369   1_545 S
C711   H745    1.084   .     S
C711   C713    1.397   .     A
C711   C1177   1.369   1_545 S
C712   C714    1.397   .     A
C712   H746    1.083   .     S
C712   C944    1.369   .     S
C715   O771    1.390   .     S
C715   N750    1.368   .     A
C715   C795    1.432   .     S
C716   O776    1.389   .     S
C716   N749    1.368   .     A
C716   C874    1.431   1_455 S
C717   N749    1.365   .     A
C717   H747    1.080   .     S
C717   C871    1.432   1_455 S
C718   N750    1.365   .     A
C718   H748    1.080   .     S
C718   C794    1.431   .     S
C719   O757    1.293   .     A
C719   O755    1.290   .     A
C719   C721    1.455   .     S
C720   O758    1.294   .     A
C720   C722    1.460   .     S
C720   O756    1.291   .     A
C721   C725    1.406   .     A
C721   C727    1.389   .     A
C722   C726    1.407   .     A
C722   C728    1.392   .     A
C723   C725    1.399   .     A
C723   C731    1.403   .     A
C723   H739    1.084   .     S
C724   H740    1.084   .     S
C724   C726    1.402   .     A
C724   C732    1.403   .     A
C725   O766    1.383   .     S
C726   O761    1.384   .     S
C727   C729    1.397   .     A
C727   H738    1.077   .     S
C728   C730    1.396   .     A
C728   H737    1.077   .     S
C729   C731    1.418   .     A
C729   C733    1.421   .     A
C730   C734    1.420   .     A
C730   C732    1.416   .     A
C731   C5      1.389   1_556 S
C733   C32     1.419   1_556 S
N749   Zn759   2.010   .     S
N750   Zn760   2.010   .     S
O751   Zn759   2.001   .     S
O752   Zn760   2.001   .     S
O753   Zn760   2.000   .     S
O754   Zn759   2.000   .     S
O755   Zn759   1.964   .     S
O756   Zn760   1.964   .     S
O757   Zn760   1.902   .     S
O758   Zn759   1.902   .     S
O761   C840    1.410   .     S
C762   H765    1.111   .     S
C762   H764    1.109   .     S
C762   O917    1.410   1_455 S
C762   H919    1.114   1_455 S
H763   C840    1.114   .     S
O766   C767    1.408   .     S
C767   H769    1.113   .     S
C767   H924    1.109   1_455 S
C767   H926    1.112   1_455 S
H768   C845    1.109   .     S
H770   C845    1.112   .     S
O771   C772    1.411   .     S
C772   H773    1.114   .     S
C772   H775    1.109   .     S
C772   H852    1.111   .     S
H774   C928    1.111   1_455 S
O776   C777    1.411   .     S
C777   H779    1.115   .     S
C777   H780    1.109   .     S
C777   H934    1.111   1_455 S
H778   C855    1.111   .     S
C781   C792    1.420   .     S
C781   O831    1.283   .     A
C781   O829    1.283   .     A
C782   O830    1.283   .     A
C782   C791    1.420   .     S
C782   O832    1.283   .     A
C783   H819    1.077   .     S
C783   C812    1.417   .     A
C783   C785    1.385   .     A
C784   H820    1.076   .     S
C784   C786    1.386   .     A
C784   C811    1.418   .     A
C785   H813    1.084   .     S
C786   H814    1.084   .     S
C786   C108    1.389   1_556 S
C787   C792    1.398   .     A
C787   H821    1.084   .     S
C787   C1023   1.369   .     S
C788   H822    1.084   .     S
C788   C791    1.397   .     A
C788   C1258   1.369   1_545 S
C789   H823    1.084   .     S
C789   C791    1.397   .     A
C789   C1255   1.369   1_545 S
C790   C792    1.397   .     A
C790   H824    1.083   .     S
C790   C1022   1.369   .     S
C793   O849    1.390   .     S
C793   N828    1.368   .     A
C793   C873    1.432   .     S
C794   O854    1.389   .     S
C794   N827    1.368   .     A
C795   N827    1.365   .     A
C795   H825    1.080   .     S
C796   N828    1.365   .     A
C796   H826    1.080   .     S
C796   C872    1.431   .     S
C797   O835    1.293   .     A
C797   O833    1.290   .     A
C797   C799    1.455   .     S
C798   O836    1.294   .     A
C798   C800    1.460   .     S
C798   O834    1.291   .     A
C799   C803    1.406   .     A
C799   C805    1.389   .     A
C800   C804    1.407   .     A
C800   C806    1.392   .     A
C801   C803    1.399   .     A
C801   C809    1.403   .     A
C801   H817    1.084   .     S
C802   H818    1.084   .     S
C802   C804    1.402   .     A
C802   C810    1.403   .     A
C803   O844    1.383   .     S
C804   O839    1.384   .     S
C805   C807    1.397   .     A
C805   H816    1.077   .     S
C806   C808    1.396   .     A
C806   H815    1.077   .     S
C807   C809    1.418   .     A
C807   C811    1.421   .     A
C808   C812    1.420   .     A
C808   C810    1.416   .     A
C809   C83     1.389   1_556 S
C811   C110    1.419   1_556 S
N827   Zn837   2.010   .     S
N828   Zn838   2.010   .     S
O829   Zn837   2.001   .     S
O830   Zn838   2.001   .     S
O831   Zn838   2.000   .     S
O832   Zn837   2.000   .     S
O833   Zn837   1.964   .     S
O834   Zn838   1.964   .     S
O835   Zn838   1.902   .     S
O836   Zn837   1.902   .     S
O839   C918    1.410   .     S
C840   H843    1.111   .     S
C840   H842    1.109   .     S
H841   C918    1.114   .     S
O844   C845    1.408   .     S
C845   H847    1.113   .     S
H846   C923    1.109   .     S
H848   C923    1.112   .     S
O849   C850    1.411   .     S
C850   H851    1.114   .     S
C850   H853    1.109   .     S
C850   H930    1.111   .     S
O854   C855    1.411   .     S
C855   H857    1.115   .     S
C855   H858    1.109   .     S
H856   C933    1.111   .     S
C859   C870    1.420   .     S
C859   O909    1.283   .     A
C859   O907    1.283   .     A
C860   O908    1.283   .     A
C860   C869    1.420   .     S
C860   O910    1.283   .     A
C861   H897    1.077   .     S
C861   C890    1.417   .     A
C861   C863    1.385   .     A
C862   H898    1.076   .     S
C862   C864    1.386   .     A
C862   C889    1.418   .     A
C863   H891    1.084   .     S
C864   H892    1.084   .     S
C864   C186    1.389   1_556 S
C865   C870    1.398   .     A
C865   H899    1.084   .     S
C865   C1101   1.369   .     S
C866   H900    1.084   .     S
C866   C869    1.397   .     A
C866   C1336   1.369   1_545 S
C867   H901    1.084   .     S
C867   C869    1.397   .     A
C867   C1333   1.369   1_545 S
C868   C870    1.397   .     A
C868   H902    1.083   .     S
C868   C1100   1.369   .     S
C871   O927    1.390   .     S
C871   N906    1.368   .     A
C871   C717    1.432   1_655 S
C872   O932    1.389   .     S
C872   N905    1.368   .     A
C873   N905    1.365   .     A
C873   H903    1.080   .     S
C874   N906    1.365   .     A
C874   H904    1.080   .     S
C874   C716    1.431   1_655 S
C875   O913    1.293   .     A
C875   O911    1.290   .     A
C875   C877    1.455   .     S
C876   O914    1.294   .     A
C876   C878    1.460   .     S
C876   O912    1.291   .     A
C877   C881    1.406   .     A
C877   C883    1.389   .     A
C878   C882    1.407   .     A
C878   C884    1.392   .     A
C879   C881    1.399   .     A
C879   C887    1.403   .     A
C879   H895    1.084   .     S
C880   H896    1.084   .     S
C880   C882    1.402   .     A
C880   C888    1.403   .     A
C881   O922    1.383   .     S
C882   O917    1.384   .     S
C883   C885    1.397   .     A
C883   H894    1.077   .     S
C884   C886    1.396   .     A
C884   H893    1.077   .     S
C885   C887    1.418   .     A
C885   C889    1.421   .     A
C886   C890    1.420   .     A
C886   C888    1.416   .     A
C887   C161    1.389   1_556 S
C889   C188    1.419   1_556 S
N905   Zn915   2.010   .     S
N906   Zn916   2.010   .     S
O907   Zn915   2.001   .     S
O908   Zn916   2.001   .     S
O909   Zn916   2.000   .     S
O910   Zn915   2.000   .     S
O911   Zn915   1.964   .     S
O912   Zn916   1.964   .     S
O913   Zn916   1.902   .     S
O914   Zn915   1.902   .     S
O917   C762    1.410   1_655 S
C918   H921    1.111   .     S
C918   H920    1.109   .     S
H919   C762    1.114   1_655 S
O922   C923    1.408   .     S
C923   H925    1.113   .     S
H924   C767    1.109   1_655 S
H926   C767    1.112   1_655 S
O927   C928    1.411   .     S
C928   H929    1.114   .     S
C928   H931    1.109   .     S
C928   H774    1.111   1_655 S
O932   C933    1.411   .     S
C933   H935    1.115   .     S
C933   H936    1.109   .     S
H934   C777    1.111   1_655 S
C937   C948    1.420   .     S
C937   O987    1.283   .     A
C937   O985    1.283   .     A
C938   O986    1.283   .     A
C938   C947    1.420   .     S
C938   O988    1.283   .     A
C939   H975    1.077   .     S
C939   C968    1.417   .     A
C939   C941    1.385   .     A
C940   H976    1.076   .     S
C940   C942    1.386   .     A
C940   C967    1.418   .     A
C941   H969    1.084   .     S
C942   H970    1.084   .     S
C942   C264    1.389   1_556 S
C943   C948    1.398   .     A
C943   H977    1.084   .     S
C943   C1179   1.369   .     S
C944   H978    1.084   .     S
C944   C947    1.397   .     A
C945   H979    1.084   .     S
C945   C947    1.397   .     A
C946   C948    1.397   .     A
C946   H980    1.083   .     S
C946   C1178   1.369   .     S
C949   O1005   1.390   .     S
C949   N984    1.368   .     A
C949   C1029   1.432   .     S
C950   O1010   1.389   .     S
C950   N983    1.368   .     A
C950   C1108   1.431   1_455 S
C951   N983    1.365   .     A
C951   H981    1.080   .     S
C951   C1105   1.432   1_455 S
C952   N984    1.365   .     A
C952   H982    1.080   .     S
C952   C1028   1.431   .     S
C953   O991    1.293   .     A
C953   O989    1.290   .     A
C953   C955    1.455   .     S
C954   O992    1.294   .     A
C954   C956    1.460   .     S
C954   O990    1.291   .     A
C955   C959    1.406   .     A
C955   C961    1.389   .     A
C956   C960    1.407   .     A
C956   C962    1.392   .     A
C957   C959    1.399   .     A
C957   C965    1.403   .     A
C957   H973    1.084   .     S
C958   H974    1.084   .     S
C958   C960    1.402   .     A
C958   C966    1.403   .     A
C959   O1000   1.383   .     S
C960   O995    1.384   .     S
C961   C963    1.397   .     A
C961   H972    1.077   .     S
C962   C964    1.396   .     A
C962   H971    1.077   .     S
C963   C965    1.418   .     A
C963   C967    1.421   .     A
C964   C968    1.420   .     A
C964   C966    1.416   .     A
C965   C239    1.389   1_556 S
C967   C266    1.419   1_556 S
N983   Zn993   2.010   .     S
N984   Zn994   2.010   .     S
O985   Zn993   2.001   .     S
O986   Zn994   2.001   .     S
O987   Zn994   2.000   .     S
O988   Zn993   2.000   .     S
O989   Zn993   1.964   .     S
O990   Zn994   1.964   .     S
O991   Zn994   1.902   .     S
O992   Zn993   1.902   .     S
O995   C1074   1.410   .     S
C996   H999    1.111   .     S
C996   H998    1.109   .     S
C996   O1151   1.410   1_455 S
C996   H1153   1.114   1_455 S
H997   C1074   1.114   .     S
O1000  C1001   1.408   .     S
C1001  H1003   1.113   .     S
C1001  H1158   1.109   1_455 S
C1001  H1160   1.112   1_455 S
H1002  C1079   1.109   .     S
H1004  C1079   1.112   .     S
O1005  C1006   1.411   .     S
C1006  H1007   1.114   .     S
C1006  H1009   1.109   .     S
C1006  H1086   1.111   .     S
H1008  C1162   1.111   1_455 S
O1010  C1011   1.411   .     S
C1011  H1013   1.115   .     S
C1011  H1014   1.109   .     S
C1011  H1168   1.111   1_455 S
H1012  C1089   1.111   .     S
C1015  C1026   1.420   .     S
C1015  O1065   1.283   .     A
C1015  O1063   1.283   .     A
C1016  O1064   1.283   .     A
C1016  C1025   1.420   .     S
C1016  O1066   1.283   .     A
C1017  H1053   1.077   .     S
C1017  C1046   1.417   .     A
C1017  C1019   1.385   .     A
C1018  H1054   1.076   .     S
C1018  C1020   1.386   .     A
C1018  C1045   1.418   .     A
C1019  H1047   1.084   .     S
C1020  H1048   1.084   .     S
C1020  C342    1.389   1_556 S
C1021  C1026   1.398   .     A
C1021  H1055   1.084   .     S
C1021  C1257   1.369   .     S
C1022  H1056   1.084   .     S
C1022  C1025   1.397   .     A
C1023  H1057   1.084   .     S
C1023  C1025   1.397   .     A
C1024  C1026   1.397   .     A
C1024  H1058   1.083   .     S
C1024  C1256   1.369   .     S
C1027  O1083   1.390   .     S
C1027  N1062   1.368   .     A
C1027  C1107   1.432   .     S
C1028  O1088   1.389   .     S
C1028  N1061   1.368   .     A
C1029  N1061   1.365   .     A
C1029  H1059   1.080   .     S
C1030  N1062   1.365   .     A
C1030  H1060   1.080   .     S
C1030  C1106   1.431   .     S
C1031  O1069   1.293   .     A
C1031  O1067   1.290   .     A
C1031  C1033   1.455   .     S
C1032  O1070   1.294   .     A
C1032  C1034   1.460   .     S
C1032  O1068   1.291   .     A
C1033  C1037   1.406   .     A
C1033  C1039   1.389   .     A
C1034  C1038   1.407   .     A
C1034  C1040   1.392   .     A
C1035  C1037   1.399   .     A
C1035  C1043   1.403   .     A
C1035  H1051   1.084   .     S
C1036  H1052   1.084   .     S
C1036  C1038   1.402   .     A
C1036  C1044   1.403   .     A
C1037  O1078   1.383   .     S
C1038  O1073   1.384   .     S
C1039  C1041   1.397   .     A
C1039  H1050   1.077   .     S
C1040  C1042   1.396   .     A
C1040  H1049   1.077   .     S
C1041  C1043   1.418   .     A
C1041  C1045   1.421   .     A
C1042  C1046   1.420   .     A
C1042  C1044   1.416   .     A
C1043  C317    1.389   1_556 S
C1045  C344    1.419   1_556 S
N1061  Zn1071  2.010   .     S
N1062  Zn1072  2.010   .     S
O1063  Zn1071  2.001   .     S
O1064  Zn1072  2.001   .     S
O1065  Zn1072  2.000   .     S
O1066  Zn1071  2.000   .     S
O1067  Zn1071  1.964   .     S
O1068  Zn1072  1.964   .     S
O1069  Zn1072  1.902   .     S
O1070  Zn1071  1.902   .     S
O1073  C1152   1.410   .     S
C1074  H1077   1.111   .     S
C1074  H1076   1.109   .     S
H1075  C1152   1.114   .     S
O1078  C1079   1.408   .     S
C1079  H1081   1.113   .     S
H1080  C1157   1.109   .     S
H1082  C1157   1.112   .     S
O1083  C1084   1.411   .     S
C1084  H1085   1.114   .     S
C1084  H1087   1.109   .     S
C1084  H1164   1.111   .     S
O1088  C1089   1.411   .     S
C1089  H1091   1.115   .     S
C1089  H1092   1.109   .     S
H1090  C1167   1.111   .     S
C1093  C1104   1.420   .     S
C1093  O1143   1.283   .     A
C1093  O1141   1.283   .     A
C1094  O1142   1.283   .     A
C1094  C1103   1.420   .     S
C1094  O1144   1.283   .     A
C1095  H1131   1.077   .     S
C1095  C1124   1.417   .     A
C1095  C1097   1.385   .     A
C1096  H1132   1.076   .     S
C1096  C1098   1.386   .     A
C1096  C1123   1.418   .     A
C1097  H1125   1.084   .     S
C1098  H1126   1.084   .     S
C1098  C420    1.389   1_556 S
C1099  C1104   1.398   .     A
C1099  H1133   1.084   .     S
C1099  C1335   1.369   .     S
C1100  H1134   1.084   .     S
C1100  C1103   1.397   .     A
C1101  H1135   1.084   .     S
C1101  C1103   1.397   .     A
C1102  C1104   1.397   .     A
C1102  H1136   1.083   .     S
C1102  C1334   1.369   .     S
C1105  O1161   1.390   .     S
C1105  N1140   1.368   .     A
C1105  C951    1.432   1_655 S
C1106  O1166   1.389   .     S
C1106  N1139   1.368   .     A
C1107  N1139   1.365   .     A
C1107  H1137   1.080   .     S
C1108  N1140   1.365   .     A
C1108  H1138   1.080   .     S
C1108  C950    1.431   1_655 S
C1109  O1147   1.293   .     A
C1109  O1145   1.290   .     A
C1109  C1111   1.455   .     S
C1110  O1148   1.294   .     A
C1110  C1112   1.460   .     S
C1110  O1146   1.291   .     A
C1111  C1115   1.406   .     A
C1111  C1117   1.389   .     A
C1112  C1116   1.407   .     A
C1112  C1118   1.392   .     A
C1113  C1115   1.399   .     A
C1113  C1121   1.403   .     A
C1113  H1129   1.084   .     S
C1114  H1130   1.084   .     S
C1114  C1116   1.402   .     A
C1114  C1122   1.403   .     A
C1115  O1156   1.383   .     S
C1116  O1151   1.384   .     S
C1117  C1119   1.397   .     A
C1117  H1128   1.077   .     S
C1118  C1120   1.396   .     A
C1118  H1127   1.077   .     S
C1119  C1121   1.418   .     A
C1119  C1123   1.421   .     A
C1120  C1124   1.420   .     A
C1120  C1122   1.416   .     A
C1121  C395    1.389   1_556 S
C1123  C422    1.419   1_556 S
N1139  Zn1149  2.010   .     S
N1140  Zn1150  2.010   .     S
O1141  Zn1149  2.001   .     S
O1142  Zn1150  2.001   .     S
O1143  Zn1150  2.000   .     S
O1144  Zn1149  2.000   .     S
O1145  Zn1149  1.964   .     S
O1146  Zn1150  1.964   .     S
O1147  Zn1150  1.902   .     S
O1148  Zn1149  1.902   .     S
O1151  C996    1.410   1_655 S
C1152  H1155   1.111   .     S
C1152  H1154   1.109   .     S
H1153  C996    1.114   1_655 S
O1156  C1157   1.408   .     S
C1157  H1159   1.113   .     S
H1158  C1001   1.109   1_655 S
H1160  C1001   1.112   1_655 S
O1161  C1162   1.411   .     S
C1162  H1163   1.114   .     S
C1162  H1165   1.109   .     S
C1162  H1008   1.111   1_655 S
O1166  C1167   1.411   .     S
C1167  H1169   1.115   .     S
C1167  H1170   1.109   .     S
H1168  C1011   1.111   1_655 S
C1171  C1182   1.420   .     S
C1171  O1221   1.283   .     A
C1171  O1219   1.283   .     A
C1172  O1220   1.283   .     A
C1172  C1181   1.420   .     S
C1172  O1222   1.283   .     A
C1173  H1209   1.077   .     S
C1173  C1202   1.417   .     A
C1173  C1175   1.385   .     A
C1174  H1210   1.076   .     S
C1174  C1176   1.386   .     A
C1174  C1201   1.418   .     A
C1175  H1203   1.084   .     S
C1176  H1204   1.084   .     S
C1176  C498    1.389   1_556 S
C1177  C1182   1.398   .     A
C1177  H1211   1.084   .     S
C1177  C711    1.369   1_565 S
C1178  H1212   1.084   .     S
C1178  C1181   1.397   .     A
C1179  H1213   1.084   .     S
C1179  C1181   1.397   .     A
C1180  C1182   1.397   .     A
C1180  H1214   1.083   .     S
C1180  C710    1.369   1_565 S
C1183  O1239   1.390   .     S
C1183  N1218   1.368   .     A
C1183  C1263   1.432   .     S
C1184  O1244   1.389   .     S
C1184  N1217   1.368   .     A
C1184  C1342   1.431   1_455 S
C1185  N1217   1.365   .     A
C1185  H1215   1.080   .     S
C1185  C1339   1.432   1_455 S
C1186  N1218   1.365   .     A
C1186  H1216   1.080   .     S
C1186  C1262   1.431   .     S
C1187  O1225   1.293   .     A
C1187  O1223   1.290   .     A
C1187  C1189   1.455   .     S
C1188  O1226   1.294   .     A
C1188  C1190   1.460   .     S
C1188  O1224   1.291   .     A
C1189  C1193   1.406   .     A
C1189  C1195   1.389   .     A
C1190  C1194   1.407   .     A
C1190  C1196   1.392   .     A
C1191  C1193   1.399   .     A
C1191  C1199   1.403   .     A
C1191  H1207   1.084   .     S
C1192  H1208   1.084   .     S
C1192  C1194   1.402   .     A
C1192  C1200   1.403   .     A
C1193  O1234   1.383   .     S
C1194  O1229   1.384   .     S
C1195  C1197   1.397   .     A
C1195  H1206   1.077   .     S
C1196  C1198   1.396   .     A
C1196  H1205   1.077   .     S
C1197  C1199   1.418   .     A
C1197  C1201   1.421   .     A
C1198  C1202   1.420   .     A
C1198  C1200   1.416   .     A
C1199  C473    1.389   1_556 S
C1201  C500    1.419   1_556 S
N1217  Zn1227  2.010   .     S
N1218  Zn1228  2.010   .     S
O1219  Zn1227  2.001   .     S
O1220  Zn1228  2.001   .     S
O1221  Zn1228  2.000   .     S
O1222  Zn1227  2.000   .     S
O1223  Zn1227  1.964   .     S
O1224  Zn1228  1.964   .     S
O1225  Zn1228  1.902   .     S
O1226  Zn1227  1.902   .     S
O1229  C1308   1.410   .     S
C1230  H1233   1.111   .     S
C1230  H1232   1.109   .     S
C1230  O1385   1.410   1_455 S
C1230  H1387   1.114   1_455 S
H1231  C1308   1.114   .     S
O1234  C1235   1.408   .     S
C1235  H1237   1.113   .     S
C1235  H1392   1.109   1_455 S
C1235  H1394   1.112   1_455 S
H1236  C1313   1.109   .     S
H1238  C1313   1.112   .     S
O1239  C1240   1.411   .     S
C1240  H1241   1.114   .     S
C1240  H1243   1.109   .     S
C1240  H1320   1.111   .     S
H1242  C1396   1.111   1_455 S
O1244  C1245   1.411   .     S
C1245  H1247   1.115   .     S
C1245  H1248   1.109   .     S
C1245  H1402   1.111   1_455 S
H1246  C1323   1.111   .     S
C1249  C1260   1.420   .     S
C1249  O1299   1.283   .     A
C1249  O1297   1.283   .     A
C1250  O1298   1.283   .     A
C1250  C1259   1.420   .     S
C1250  O1300   1.283   .     A
C1251  H1287   1.077   .     S
C1251  C1280   1.417   .     A
C1251  C1253   1.385   .     A
C1252  H1288   1.076   .     S
C1252  C1254   1.386   .     A
C1252  C1279   1.418   .     A
C1253  H1281   1.084   .     S
C1254  H1282   1.084   .     S
C1254  C576    1.389   1_556 S
C1255  C1260   1.398   .     A
C1255  H1289   1.084   .     S
C1255  C789    1.369   1_565 S
C1256  H1290   1.084   .     S
C1256  C1259   1.397   .     A
C1257  H1291   1.084   .     S
C1257  C1259   1.397   .     A
C1258  C1260   1.397   .     A
C1258  H1292   1.083   .     S
C1258  C788    1.369   1_565 S
C1261  O1317   1.390   .     S
C1261  N1296   1.368   .     A
C1261  C1341   1.432   .     S
C1262  O1322   1.389   .     S
C1262  N1295   1.368   .     A
C1263  N1295   1.365   .     A
C1263  H1293   1.080   .     S
C1264  N1296   1.365   .     A
C1264  H1294   1.080   .     S
C1264  C1340   1.431   .     S
C1265  O1303   1.293   .     A
C1265  O1301   1.290   .     A
C1265  C1267   1.455   .     S
C1266  O1304   1.294   .     A
C1266  C1268   1.460   .     S
C1266  O1302   1.291   .     A
C1267  C1271   1.406   .     A
C1267  C1273   1.389   .     A
C1268  C1272   1.407   .     A
C1268  C1274   1.392   .     A
C1269  C1271   1.399   .     A
C1269  C1277   1.403   .     A
C1269  H1285   1.084   .     S
C1270  H1286   1.084   .     S
C1270  C1272   1.402   .     A
C1270  C1278   1.403   .     A
C1271  O1312   1.383   .     S
C1272  O1307   1.384   .     S
C1273  C1275   1.397   .     A
C1273  H1284   1.077   .     S
C1274  C1276   1.396   .     A
C1274  H1283   1.077   .     S
C1275  C1277   1.418   .     A
C1275  C1279   1.421   .     A
C1276  C1280   1.420   .     A
C1276  C1278   1.416   .     A
C1277  C551    1.389   1_556 S
C1279  C578    1.419   1_556 S
N1295  Zn1305  2.010   .     S
N1296  Zn1306  2.010   .     S
O1297  Zn1305  2.001   .     S
O1298  Zn1306  2.001   .     S
O1299  Zn1306  2.000   .     S
O1300  Zn1305  2.000   .     S
O1301  Zn1305  1.964   .     S
O1302  Zn1306  1.964   .     S
O1303  Zn1306  1.902   .     S
O1304  Zn1305  1.902   .     S
O1307  C1386   1.410   .     S
C1308  H1311   1.111   .     S
C1308  H1310   1.109   .     S
H1309  C1386   1.114   .     S
O1312  C1313   1.408   .     S
C1313  H1315   1.113   .     S
H1314  C1391   1.109   .     S
H1316  C1391   1.112   .     S
O1317  C1318   1.411   .     S
C1318  H1319   1.114   .     S
C1318  H1321   1.109   .     S
C1318  H1398   1.111   .     S
O1322  C1323   1.411   .     S
C1323  H1325   1.115   .     S
C1323  H1326   1.109   .     S
H1324  C1401   1.111   .     S
C1327  C1338   1.420   .     S
C1327  O1377   1.283   .     A
C1327  O1375   1.283   .     A
C1328  O1376   1.283   .     A
C1328  C1337   1.420   .     S
C1328  O1378   1.283   .     A
C1329  H1365   1.077   .     S
C1329  C1358   1.417   .     A
C1329  C1331   1.385   .     A
C1330  H1366   1.076   .     S
C1330  C1332   1.386   .     A
C1330  C1357   1.418   .     A
C1331  H1359   1.084   .     S
C1332  H1360   1.084   .     S
C1332  C654    1.389   1_556 S
C1333  C1338   1.398   .     A
C1333  H1367   1.084   .     S
C1333  C867    1.369   1_565 S
C1334  H1368   1.084   .     S
C1334  C1337   1.397   .     A
C1335  H1369   1.084   .     S
C1335  C1337   1.397   .     A
C1336  C1338   1.397   .     A
C1336  H1370   1.083   .     S
C1336  C866    1.369   1_565 S
C1339  O1395   1.390   .     S
C1339  N1374   1.368   .     A
C1339  C1185   1.432   1_655 S
C1340  O1400   1.389   .     S
C1340  N1373   1.368   .     A
C1341  N1373   1.365   .     A
C1341  H1371   1.080   .     S
C1342  N1374   1.365   .     A
C1342  H1372   1.080   .     S
C1342  C1184   1.431   1_655 S
C1343  O1381   1.293   .     A
C1343  O1379   1.290   .     A
C1343  C1345   1.455   .     S
C1344  O1382   1.294   .     A
C1344  C1346   1.460   .     S
C1344  O1380   1.291   .     A
C1345  C1349   1.406   .     A
C1345  C1351   1.389   .     A
C1346  C1350   1.407   .     A
C1346  C1352   1.392   .     A
C1347  C1349   1.399   .     A
C1347  C1355   1.403   .     A
C1347  H1363   1.084   .     S
C1348  H1364   1.084   .     S
C1348  C1350   1.402   .     A
C1348  C1356   1.403   .     A
C1349  O1390   1.383   .     S
C1350  O1385   1.384   .     S
C1351  C1353   1.397   .     A
C1351  H1362   1.077   .     S
C1352  C1354   1.396   .     A
C1352  H1361   1.077   .     S
C1353  C1355   1.418   .     A
C1353  C1357   1.421   .     A
C1354  C1358   1.420   .     A
C1354  C1356   1.416   .     A
C1355  C629    1.389   1_556 S
C1357  C656    1.419   1_556 S
N1373  Zn1383  2.010   .     S
N1374  Zn1384  2.010   .     S
O1375  Zn1383  2.001   .     S
O1376  Zn1384  2.001   .     S
O1377  Zn1384  2.000   .     S
O1378  Zn1383  2.000   .     S
O1379  Zn1383  1.964   .     S
O1380  Zn1384  1.964   .     S
O1381  Zn1384  1.902   .     S
O1382  Zn1383  1.902   .     S
O1385  C1230   1.410   1_655 S
C1386  H1389   1.111   .     S
C1386  H1388   1.109   .     S
H1387  C1230   1.114   1_655 S
O1390  C1391   1.408   .     S
C1391  H1393   1.113   .     S
H1392  C1235   1.109   1_655 S
H1394  C1235   1.112   1_655 S
O1395  C1396   1.411   .     S
C1396  H1397   1.114   .     S
C1396  H1399   1.109   .     S
C1396  H1242   1.111   1_655 S
O1400  C1401   1.411   .     S
C1401  H1403   1.115   .     S
C1401  H1404   1.109   .     S
H1402  C1245   1.111   1_655 S
