data_str_m3_o2_o10_pcu_sym.37
_audit_creation_date              2020-01-03
_audit_creation_method            'Materials Studio'
_symmetry_space_group_name_H-M    'P1'
_symmetry_Int_Tables_number       1
_symmetry_cell_setting            triclinic
loop_
_symmetry_equiv_pos_as_xyz
  x,y,z
_cell_length_a                    25.7015
_cell_length_b                    29.6191
_cell_length_c                    28.5367
_cell_angle_alpha                 89.3728
_cell_angle_beta                  97.0349
_cell_angle_gamma                 91.8156
loop_
_atom_site_label
_atom_site_type_symbol
_atom_site_fract_x
_atom_site_fract_y
_atom_site_fract_z
_atom_site_U_iso_or_equiv
_atom_site_adp_type
_atom_site_occupancy
C1     C     0.16945   0.16370   0.25039   0.00000  Uiso   1.00
C2     C     0.14654   0.21076   0.44544   0.00000  Uiso   1.00
C3     C     0.17131   0.24666   0.02722   0.00000  Uiso   1.00
C4     C     0.17158   0.24596   0.47393   0.00000  Uiso   1.00
C5     C     0.06723   0.24933   0.23796   0.00000  Uiso   1.00
C6     C     0.26606   0.25106   0.26197   0.00000  Uiso   1.00
C7     C     0.01245   0.24616   0.23167   0.00000  Uiso   1.00
C8     C     0.32073   0.25499   0.26801   0.00000  Uiso   1.00
C9     C     0.19267   0.04550   0.29292   0.00000  Uiso   1.00
C10    C     0.16329   0.45686   0.21429   0.00000  Uiso   1.00
C11    C     0.18240   0.09101   0.29298   0.00000  Uiso   1.00
C12    C     0.16790   0.33625   0.24991   0.00000  Uiso   1.00
C13    C     0.15262   0.41089   0.21439   0.00000  Uiso   1.00
C14    C     0.18171   0.11615   0.25125   0.00000  Uiso   1.00
C15    C     0.17754   0.38425   0.25035   0.00000  Uiso   1.00
C16    C     0.19688   0.09652   0.21066   0.00000  Uiso   1.00
C17    C     0.21493   0.40298   0.28509   0.00000  Uiso   1.00
C18    C     0.20978   0.05144   0.21076   0.00000  Uiso   1.00
C19    C     0.22718   0.44923   0.28446   0.00000  Uiso   1.00
C20    C     0.20459   0.02514   0.25162   0.00000  Uiso   1.00
C21    C     0.20026   0.47615   0.24922   0.00000  Uiso   1.00
C22    C     0.24866   0.29968   0.13361   0.00000  Uiso   1.00
C23    C     0.12384   0.23970   0.04699   0.00000  Uiso   1.00
C24    C     0.25071   0.34488   0.10722   0.00000  Uiso   1.00
C25    C     0.08230   0.20390   0.37299   0.00000  Uiso   1.00
C26    C     0.07840   0.16004   0.34496   0.00000  Uiso   1.00
C27    C     0.27197   0.25574   0.04319   0.00000  Uiso   1.00
C28    C     0.28523   0.20962   0.02532   0.00000  Uiso   1.00
C29    C     0.12770   0.16631   0.46660   0.00000  Uiso   1.00
C30    C     0.17229   0.14031   0.49368   0.00000  Uiso   1.00
C31    C     0.19442   0.28230   0.45030   0.00000  Uiso   1.00
C32    C     0.12321   0.23782   0.09630   0.00000  Uiso   1.00
C33    C     0.19508   0.28180   0.40094   0.00000  Uiso   1.00
C34    C     0.21097   0.26551   0.10706   0.00000  Uiso   1.00
C35    C     0.13698   0.21802   0.39564   0.00000  Uiso   1.00
C36    C     0.21714   0.25601   0.05905   0.00000  Uiso   1.00
H37    H     0.32620   0.23538   0.19751   0.00000  Uiso   1.00
H38    H     0.21186   0.31121   0.46980   0.00000  Uiso   1.00
H39    H     0.08700   0.22904   0.11038   0.00000  Uiso   1.00
H40    H     0.21595   0.30848   0.38413   0.00000  Uiso   1.00
H41    H     0.24207   0.00484   0.17759   0.00000  Uiso   1.00
H42    H     0.27947   0.44506   0.33962   0.00000  Uiso   1.00
H43    H     0.21054   0.35788   0.09869   0.00000  Uiso   1.00
H44    H     0.27469   0.36995   0.12991   0.00000  Uiso   1.00
H45    H     0.26880   0.34176   0.07416   0.00000  Uiso   1.00
H46    H     0.23574   0.30847   0.16724   0.00000  Uiso   1.00
H47    H     0.28852   0.28632   0.14158   0.00000  Uiso   1.00
H48    H     0.00676   0.26631   0.30193   0.00000  Uiso   1.00
H49    H     0.04031   0.14233   0.34848   0.00000  Uiso   1.00
H50    H     0.07895   0.16685   0.30686   0.00000  Uiso   1.00
H51    H     0.11006   0.13716   0.35841   0.00000  Uiso   1.00
H52    H     0.05567   0.19979   0.40080   0.00000  Uiso   1.00
H53    H     0.06452   0.23200   0.35227   0.00000  Uiso   1.00
H54    H     0.27823   0.18285   0.05157   0.00000  Uiso   1.00
H55    H     0.26194   0.20193   0.49094   0.00000  Uiso   1.00
H56    H     0.32727   0.20971   0.01988   0.00000  Uiso   1.00
H57    H     0.27691   0.28171   0.01589   0.00000  Uiso   1.00
H58    H     0.30291   0.26385   0.07257   0.00000  Uiso   1.00
H59    H     0.18838   0.02570   0.32444   0.00000  Uiso   1.00
H60    H     0.20443   0.13624   0.47151   0.00000  Uiso   1.00
H61    H     0.18749   0.15760   0.02699   0.00000  Uiso   1.00
H62    H     0.15745   0.10619   0.00308   0.00000  Uiso   1.00
H63    H     0.09669   0.17154   0.48940   0.00000  Uiso   1.00
H64    H     0.10954   0.14322   0.43861   0.00000  Uiso   1.00
H65    H     0.14168   0.47765   0.18764   0.00000  Uiso   1.00
H66    H     0.17382   0.10603   0.32530   0.00000  Uiso   1.00
H67    H     0.12412   0.39625   0.18721   0.00000  Uiso   1.00
H68    H     0.19927   0.11617   0.17870   0.00000  Uiso   1.00
H69    H     0.23513   0.38148   0.31196   0.00000  Uiso   1.00
H70    H     0.08712   0.23534   0.02443   0.00000  Uiso   1.00
N71    N     0.16667   0.24999   0.12623   0.00000  Uiso   1.00
N72    N     0.16667   0.25001   0.37376   0.00000  Uiso   1.00
O73    O     0.16667   0.18453   0.28974   0.00000  Uiso   1.00
O74    O     0.26466   0.46878   0.31756   0.00000  Uiso   1.00
O75    O     0.16666   0.31546   0.21026   0.00000  Uiso   1.00
O76    O     0.16667   0.18453   0.21026   0.00000  Uiso   1.00
O77    O     0.16666   0.31547   0.28974   0.00000  Uiso   1.00
O78    O     0.09058   0.25000   0.28044   0.00000  Uiso   1.00
O79    O     0.24275   0.25000   0.21955   0.00000  Uiso   1.00
O80    O     0.09058   0.24999   0.20096   0.00000  Uiso   1.00
O81    O     0.24275   0.25000   0.29903   0.00000  Uiso   1.00
O82    O     0.22546   0.03420   0.17014   0.00000  Uiso   1.00
Zn83   Zn    0.16667   0.25000   0.30307   0.00000  Uiso   1.00
Zn84   Zn    0.16667   0.24999   0.19693   0.00000  Uiso   1.00
C85    C     0.50278   0.16370   0.25039   0.00000  Uiso   1.00
C86    C     0.47987   0.21076   0.44544   0.00000  Uiso   1.00
C87    C     0.50464   0.24666   0.02722   0.00000  Uiso   1.00
C88    C     0.50491   0.24596   0.47393   0.00000  Uiso   1.00
C89    C     0.40056   0.24933   0.23796   0.00000  Uiso   1.00
C90    C     0.59940   0.25106   0.26197   0.00000  Uiso   1.00
C91    C     0.34579   0.24616   0.23167   0.00000  Uiso   1.00
C92    C     0.65407   0.25499   0.26801   0.00000  Uiso   1.00
C93    C     0.52600   0.04550   0.29292   0.00000  Uiso   1.00
C94    C     0.49663   0.45686   0.21429   0.00000  Uiso   1.00
C95    C     0.51574   0.09101   0.29298   0.00000  Uiso   1.00
C96    C     0.50123   0.33625   0.24991   0.00000  Uiso   1.00
C97    C     0.48595   0.41089   0.21439   0.00000  Uiso   1.00
C98    C     0.51504   0.11615   0.25125   0.00000  Uiso   1.00
C99    C     0.51087   0.38425   0.25035   0.00000  Uiso   1.00
C100   C     0.53022   0.09652   0.21066   0.00000  Uiso   1.00
C101   C     0.54826   0.40298   0.28509   0.00000  Uiso   1.00
C102   C     0.54311   0.05144   0.21076   0.00000  Uiso   1.00
C103   C     0.56051   0.44923   0.28446   0.00000  Uiso   1.00
C104   C     0.53793   0.02514   0.25162   0.00000  Uiso   1.00
C105   C     0.53360   0.47615   0.24922   0.00000  Uiso   1.00
C106   C     0.58199   0.29968   0.13361   0.00000  Uiso   1.00
C107   C     0.45717   0.23970   0.04699   0.00000  Uiso   1.00
C108   C     0.58404   0.34488   0.10722   0.00000  Uiso   1.00
C109   C     0.41564   0.20390   0.37299   0.00000  Uiso   1.00
C110   C     0.41173   0.16004   0.34496   0.00000  Uiso   1.00
C111   C     0.60530   0.25574   0.04319   0.00000  Uiso   1.00
C112   C     0.61857   0.20962   0.02532   0.00000  Uiso   1.00
C113   C     0.46104   0.16631   0.46660   0.00000  Uiso   1.00
C114   C     0.50562   0.14031   0.49368   0.00000  Uiso   1.00
C115   C     0.52776   0.28230   0.45030   0.00000  Uiso   1.00
C116   C     0.45655   0.23782   0.09630   0.00000  Uiso   1.00
C117   C     0.52841   0.28180   0.40094   0.00000  Uiso   1.00
C118   C     0.54431   0.26551   0.10706   0.00000  Uiso   1.00
C119   C     0.47032   0.21802   0.39564   0.00000  Uiso   1.00
C120   C     0.55047   0.25601   0.05905   0.00000  Uiso   1.00
H121   H     0.65953   0.23538   0.19751   0.00000  Uiso   1.00
H122   H     0.54519   0.31121   0.46980   0.00000  Uiso   1.00
H123   H     0.42033   0.22904   0.11038   0.00000  Uiso   1.00
H124   H     0.54928   0.30848   0.38413   0.00000  Uiso   1.00
H125   H     0.57541   0.00484   0.17759   0.00000  Uiso   1.00
H126   H     0.61280   0.44506   0.33962   0.00000  Uiso   1.00
H127   H     0.54387   0.35788   0.09869   0.00000  Uiso   1.00
H128   H     0.60802   0.36995   0.12991   0.00000  Uiso   1.00
H129   H     0.60213   0.34176   0.07416   0.00000  Uiso   1.00
H130   H     0.56907   0.30847   0.16724   0.00000  Uiso   1.00
H131   H     0.62185   0.28632   0.14158   0.00000  Uiso   1.00
H132   H     0.34009   0.26631   0.30193   0.00000  Uiso   1.00
H133   H     0.37364   0.14233   0.34848   0.00000  Uiso   1.00
H134   H     0.41228   0.16685   0.30686   0.00000  Uiso   1.00
H135   H     0.44339   0.13716   0.35841   0.00000  Uiso   1.00
H136   H     0.38901   0.19979   0.40080   0.00000  Uiso   1.00
H137   H     0.39785   0.23200   0.35227   0.00000  Uiso   1.00
H138   H     0.61156   0.18285   0.05157   0.00000  Uiso   1.00
H139   H     0.59527   0.20193   0.49094   0.00000  Uiso   1.00
H140   H     0.66060   0.20971   0.01988   0.00000  Uiso   1.00
H141   H     0.61025   0.28171   0.01589   0.00000  Uiso   1.00
H142   H     0.63625   0.26385   0.07257   0.00000  Uiso   1.00
H143   H     0.52171   0.02570   0.32444   0.00000  Uiso   1.00
H144   H     0.53776   0.13624   0.47151   0.00000  Uiso   1.00
H145   H     0.52083   0.15760   0.02699   0.00000  Uiso   1.00
H146   H     0.49079   0.10619   0.00308   0.00000  Uiso   1.00
H147   H     0.43003   0.17154   0.48940   0.00000  Uiso   1.00
H148   H     0.44288   0.14322   0.43861   0.00000  Uiso   1.00
H149   H     0.47501   0.47765   0.18764   0.00000  Uiso   1.00
H150   H     0.50715   0.10603   0.32530   0.00000  Uiso   1.00
H151   H     0.45745   0.39625   0.18721   0.00000  Uiso   1.00
H152   H     0.53260   0.11617   0.17870   0.00000  Uiso   1.00
H153   H     0.56846   0.38148   0.31196   0.00000  Uiso   1.00
H154   H     0.42045   0.23534   0.02443   0.00000  Uiso   1.00
N155   N     0.50000   0.24999   0.12623   0.00000  Uiso   1.00
N156   N     0.50000   0.25001   0.37376   0.00000  Uiso   1.00
O157   O     0.50000   0.18453   0.28974   0.00000  Uiso   1.00
O158   O     0.59799   0.46878   0.31756   0.00000  Uiso   1.00
O159   O     0.50000   0.31546   0.21026   0.00000  Uiso   1.00
O160   O     0.50000   0.18453   0.21026   0.00000  Uiso   1.00
O161   O     0.50000   0.31547   0.28974   0.00000  Uiso   1.00
O162   O     0.42392   0.25000   0.28044   0.00000  Uiso   1.00
O163   O     0.57608   0.25000   0.21955   0.00000  Uiso   1.00
O164   O     0.42392   0.24999   0.20096   0.00000  Uiso   1.00
O165   O     0.57608   0.25000   0.29903   0.00000  Uiso   1.00
O166   O     0.55879   0.03420   0.17014   0.00000  Uiso   1.00
Zn167  Zn    0.50000   0.25000   0.30307   0.00000  Uiso   1.00
Zn168  Zn    0.50000   0.24999   0.19693   0.00000  Uiso   1.00
C169   C     0.83611   0.16370   0.25039   0.00000  Uiso   1.00
C170   C     0.81321   0.21076   0.44544   0.00000  Uiso   1.00
C171   C     0.83798   0.24666   0.02722   0.00000  Uiso   1.00
C172   C     0.83825   0.24596   0.47393   0.00000  Uiso   1.00
C173   C     0.73390   0.24933   0.23796   0.00000  Uiso   1.00
C174   C     0.93273   0.25106   0.26197   0.00000  Uiso   1.00
C175   C     0.67912   0.24616   0.23167   0.00000  Uiso   1.00
C176   C     0.98740   0.25499   0.26801   0.00000  Uiso   1.00
C177   C     0.85933   0.04550   0.29292   0.00000  Uiso   1.00
C178   C     0.82996   0.45686   0.21429   0.00000  Uiso   1.00
C179   C     0.84907   0.09101   0.29298   0.00000  Uiso   1.00
C180   C     0.83457   0.33625   0.24991   0.00000  Uiso   1.00
C181   C     0.81929   0.41089   0.21439   0.00000  Uiso   1.00
C182   C     0.84838   0.11615   0.25125   0.00000  Uiso   1.00
C183   C     0.84420   0.38425   0.25035   0.00000  Uiso   1.00
C184   C     0.86355   0.09652   0.21066   0.00000  Uiso   1.00
C185   C     0.88159   0.40298   0.28509   0.00000  Uiso   1.00
C186   C     0.87645   0.05144   0.21076   0.00000  Uiso   1.00
C187   C     0.89384   0.44923   0.28446   0.00000  Uiso   1.00
C188   C     0.87126   0.02514   0.25162   0.00000  Uiso   1.00
C189   C     0.86693   0.47615   0.24922   0.00000  Uiso   1.00
C190   C     0.91533   0.29968   0.13361   0.00000  Uiso   1.00
C191   C     0.79050   0.23970   0.04699   0.00000  Uiso   1.00
C192   C     0.91738   0.34488   0.10722   0.00000  Uiso   1.00
C193   C     0.74897   0.20390   0.37299   0.00000  Uiso   1.00
C194   C     0.74507   0.16004   0.34496   0.00000  Uiso   1.00
C195   C     0.93863   0.25574   0.04319   0.00000  Uiso   1.00
C196   C     0.95190   0.20962   0.02532   0.00000  Uiso   1.00
C197   C     0.79437   0.16631   0.46660   0.00000  Uiso   1.00
C198   C     0.83895   0.14031   0.49368   0.00000  Uiso   1.00
C199   C     0.86109   0.28230   0.45030   0.00000  Uiso   1.00
C200   C     0.78988   0.23782   0.09630   0.00000  Uiso   1.00
C201   C     0.86175   0.28180   0.40094   0.00000  Uiso   1.00
C202   C     0.87764   0.26551   0.10706   0.00000  Uiso   1.00
C203   C     0.80365   0.21802   0.39564   0.00000  Uiso   1.00
C204   C     0.88381   0.25601   0.05905   0.00000  Uiso   1.00
H205   H     0.99286   0.23538   0.19751   0.00000  Uiso   1.00
H206   H     0.87853   0.31121   0.46980   0.00000  Uiso   1.00
H207   H     0.75367   0.22904   0.11038   0.00000  Uiso   1.00
H208   H     0.88261   0.30848   0.38413   0.00000  Uiso   1.00
H209   H     0.90874   0.00484   0.17759   0.00000  Uiso   1.00
H210   H     0.94614   0.44506   0.33962   0.00000  Uiso   1.00
H211   H     0.87721   0.35788   0.09869   0.00000  Uiso   1.00
H212   H     0.94136   0.36995   0.12991   0.00000  Uiso   1.00
H213   H     0.93547   0.34176   0.07416   0.00000  Uiso   1.00
H214   H     0.90241   0.30847   0.16724   0.00000  Uiso   1.00
H215   H     0.95519   0.28632   0.14158   0.00000  Uiso   1.00
H216   H     0.67343   0.26631   0.30193   0.00000  Uiso   1.00
H217   H     0.70698   0.14233   0.34848   0.00000  Uiso   1.00
H218   H     0.74561   0.16685   0.30686   0.00000  Uiso   1.00
H219   H     0.77673   0.13716   0.35841   0.00000  Uiso   1.00
H220   H     0.72234   0.19979   0.40080   0.00000  Uiso   1.00
H221   H     0.73119   0.23200   0.35227   0.00000  Uiso   1.00
H222   H     0.94489   0.18285   0.05157   0.00000  Uiso   1.00
H223   H     0.92861   0.20193   0.49094   0.00000  Uiso   1.00
H224   H     0.99393   0.20971   0.01988   0.00000  Uiso   1.00
H225   H     0.94358   0.28171   0.01589   0.00000  Uiso   1.00
H226   H     0.96958   0.26385   0.07257   0.00000  Uiso   1.00
H227   H     0.85504   0.02570   0.32444   0.00000  Uiso   1.00
H228   H     0.87110   0.13624   0.47151   0.00000  Uiso   1.00
H229   H     0.85416   0.15760   0.02699   0.00000  Uiso   1.00
H230   H     0.82412   0.10619   0.00308   0.00000  Uiso   1.00
H231   H     0.76336   0.17154   0.48940   0.00000  Uiso   1.00
H232   H     0.77621   0.14322   0.43861   0.00000  Uiso   1.00
H233   H     0.80835   0.47765   0.18764   0.00000  Uiso   1.00
H234   H     0.84048   0.10603   0.32530   0.00000  Uiso   1.00
H235   H     0.79078   0.39625   0.18721   0.00000  Uiso   1.00
H236   H     0.86593   0.11617   0.17870   0.00000  Uiso   1.00
H237   H     0.90179   0.38148   0.31196   0.00000  Uiso   1.00
H238   H     0.75378   0.23534   0.02443   0.00000  Uiso   1.00
N239   N     0.83333   0.24999   0.12623   0.00000  Uiso   1.00
N240   N     0.83333   0.25001   0.37376   0.00000  Uiso   1.00
O241   O     0.83334   0.18453   0.28974   0.00000  Uiso   1.00
O242   O     0.93133   0.46878   0.31756   0.00000  Uiso   1.00
O243   O     0.83333   0.31546   0.21026   0.00000  Uiso   1.00
O244   O     0.83334   0.18453   0.21026   0.00000  Uiso   1.00
O245   O     0.83333   0.31547   0.28974   0.00000  Uiso   1.00
O246   O     0.75725   0.25000   0.28044   0.00000  Uiso   1.00
O247   O     0.90942   0.25000   0.21955   0.00000  Uiso   1.00
O248   O     0.75725   0.24999   0.20096   0.00000  Uiso   1.00
O249   O     0.90942   0.25000   0.29903   0.00000  Uiso   1.00
O250   O     0.89213   0.03420   0.17014   0.00000  Uiso   1.00
Zn251  Zn    0.83333   0.25000   0.30307   0.00000  Uiso   1.00
Zn252  Zn    0.83333   0.24999   0.19693   0.00000  Uiso   1.00
C253   C     0.16945   0.66370   0.25039   0.00000  Uiso   1.00
C254   C     0.14654   0.71076   0.44544   0.00000  Uiso   1.00
C255   C     0.17131   0.74666   0.02722   0.00000  Uiso   1.00
C256   C     0.17158   0.74596   0.47393   0.00000  Uiso   1.00
C257   C     0.06723   0.74933   0.23796   0.00000  Uiso   1.00
C258   C     0.26606   0.75106   0.26197   0.00000  Uiso   1.00
C259   C     0.01245   0.74616   0.23167   0.00000  Uiso   1.00
C260   C     0.32073   0.75499   0.26801   0.00000  Uiso   1.00
C261   C     0.19267   0.54550   0.29292   0.00000  Uiso   1.00
C262   C     0.16329   0.95686   0.21429   0.00000  Uiso   1.00
C263   C     0.18240   0.59101   0.29298   0.00000  Uiso   1.00
C264   C     0.16790   0.83625   0.24991   0.00000  Uiso   1.00
C265   C     0.15262   0.91089   0.21439   0.00000  Uiso   1.00
C266   C     0.18171   0.61615   0.25125   0.00000  Uiso   1.00
C267   C     0.17754   0.88425   0.25035   0.00000  Uiso   1.00
C268   C     0.19688   0.59652   0.21066   0.00000  Uiso   1.00
C269   C     0.21493   0.90298   0.28509   0.00000  Uiso   1.00
C270   C     0.20978   0.55144   0.21076   0.00000  Uiso   1.00
C271   C     0.22718   0.94923   0.28446   0.00000  Uiso   1.00
C272   C     0.20459   0.52514   0.25162   0.00000  Uiso   1.00
C273   C     0.20026   0.97615   0.24922   0.00000  Uiso   1.00
C274   C     0.24866   0.79968   0.13361   0.00000  Uiso   1.00
C275   C     0.12384   0.73970   0.04699   0.00000  Uiso   1.00
C276   C     0.25071   0.84488   0.10722   0.00000  Uiso   1.00
C277   C     0.08230   0.70390   0.37299   0.00000  Uiso   1.00
C278   C     0.07840   0.66004   0.34496   0.00000  Uiso   1.00
C279   C     0.27197   0.75574   0.04319   0.00000  Uiso   1.00
C280   C     0.28523   0.70962   0.02532   0.00000  Uiso   1.00
C281   C     0.12770   0.66631   0.46660   0.00000  Uiso   1.00
C282   C     0.17229   0.64031   0.49368   0.00000  Uiso   1.00
C283   C     0.19442   0.78230   0.45030   0.00000  Uiso   1.00
C284   C     0.12321   0.73782   0.09630   0.00000  Uiso   1.00
C285   C     0.19508   0.78180   0.40094   0.00000  Uiso   1.00
C286   C     0.21097   0.76551   0.10706   0.00000  Uiso   1.00
C287   C     0.13698   0.71802   0.39564   0.00000  Uiso   1.00
C288   C     0.21714   0.75601   0.05905   0.00000  Uiso   1.00
H289   H     0.32620   0.73538   0.19751   0.00000  Uiso   1.00
H290   H     0.21186   0.81121   0.46980   0.00000  Uiso   1.00
H291   H     0.08700   0.72904   0.11038   0.00000  Uiso   1.00
H292   H     0.21595   0.80848   0.38413   0.00000  Uiso   1.00
H293   H     0.24207   0.50484   0.17759   0.00000  Uiso   1.00
H294   H     0.27947   0.94506   0.33962   0.00000  Uiso   1.00
H295   H     0.21054   0.85788   0.09869   0.00000  Uiso   1.00
H296   H     0.27469   0.86995   0.12991   0.00000  Uiso   1.00
H297   H     0.26880   0.84176   0.07416   0.00000  Uiso   1.00
H298   H     0.23574   0.80847   0.16724   0.00000  Uiso   1.00
H299   H     0.28852   0.78632   0.14158   0.00000  Uiso   1.00
H300   H     0.00676   0.76631   0.30193   0.00000  Uiso   1.00
H301   H     0.04031   0.64233   0.34848   0.00000  Uiso   1.00
H302   H     0.07895   0.66685   0.30686   0.00000  Uiso   1.00
H303   H     0.11006   0.63716   0.35841   0.00000  Uiso   1.00
H304   H     0.05567   0.69979   0.40080   0.00000  Uiso   1.00
H305   H     0.06452   0.73200   0.35227   0.00000  Uiso   1.00
H306   H     0.27823   0.68285   0.05157   0.00000  Uiso   1.00
H307   H     0.26194   0.70193   0.49094   0.00000  Uiso   1.00
H308   H     0.32727   0.70971   0.01988   0.00000  Uiso   1.00
H309   H     0.27691   0.78171   0.01589   0.00000  Uiso   1.00
H310   H     0.30291   0.76385   0.07257   0.00000  Uiso   1.00
H311   H     0.18838   0.52570   0.32444   0.00000  Uiso   1.00
H312   H     0.20443   0.63624   0.47151   0.00000  Uiso   1.00
H313   H     0.18749   0.65760   0.02699   0.00000  Uiso   1.00
H314   H     0.15745   0.60619   0.00308   0.00000  Uiso   1.00
H315   H     0.09669   0.67154   0.48940   0.00000  Uiso   1.00
H316   H     0.10954   0.64322   0.43861   0.00000  Uiso   1.00
H317   H     0.14168   0.97765   0.18764   0.00000  Uiso   1.00
H318   H     0.17382   0.60603   0.32530   0.00000  Uiso   1.00
H319   H     0.12412   0.89625   0.18721   0.00000  Uiso   1.00
H320   H     0.19927   0.61617   0.17870   0.00000  Uiso   1.00
H321   H     0.23513   0.88148   0.31196   0.00000  Uiso   1.00
H322   H     0.08712   0.73534   0.02443   0.00000  Uiso   1.00
N323   N     0.16667   0.74999   0.12623   0.00000  Uiso   1.00
N324   N     0.16667   0.75001   0.37376   0.00000  Uiso   1.00
O325   O     0.16667   0.68453   0.28974   0.00000  Uiso   1.00
O326   O     0.26466   0.96878   0.31756   0.00000  Uiso   1.00
O327   O     0.16666   0.81546   0.21026   0.00000  Uiso   1.00
O328   O     0.16667   0.68453   0.21026   0.00000  Uiso   1.00
O329   O     0.16666   0.81547   0.28974   0.00000  Uiso   1.00
O330   O     0.09058   0.75000   0.28044   0.00000  Uiso   1.00
O331   O     0.24275   0.75000   0.21955   0.00000  Uiso   1.00
O332   O     0.09058   0.74999   0.20096   0.00000  Uiso   1.00
O333   O     0.24275   0.75000   0.29903   0.00000  Uiso   1.00
O334   O     0.22546   0.53420   0.17014   0.00000  Uiso   1.00
Zn335  Zn    0.16667   0.75000   0.30307   0.00000  Uiso   1.00
Zn336  Zn    0.16667   0.74999   0.19693   0.00000  Uiso   1.00
C337   C     0.50278   0.66370   0.25039   0.00000  Uiso   1.00
C338   C     0.47987   0.71076   0.44544   0.00000  Uiso   1.00
C339   C     0.50464   0.74666   0.02722   0.00000  Uiso   1.00
C340   C     0.50491   0.74596   0.47393   0.00000  Uiso   1.00
C341   C     0.40056   0.74933   0.23796   0.00000  Uiso   1.00
C342   C     0.59940   0.75106   0.26197   0.00000  Uiso   1.00
C343   C     0.34579   0.74616   0.23167   0.00000  Uiso   1.00
C344   C     0.65407   0.75499   0.26801   0.00000  Uiso   1.00
C345   C     0.52600   0.54550   0.29292   0.00000  Uiso   1.00
C346   C     0.49663   0.95686   0.21429   0.00000  Uiso   1.00
C347   C     0.51574   0.59101   0.29298   0.00000  Uiso   1.00
C348   C     0.50123   0.83625   0.24991   0.00000  Uiso   1.00
C349   C     0.48595   0.91089   0.21439   0.00000  Uiso   1.00
C350   C     0.51504   0.61615   0.25125   0.00000  Uiso   1.00
C351   C     0.51087   0.88425   0.25035   0.00000  Uiso   1.00
C352   C     0.53022   0.59652   0.21066   0.00000  Uiso   1.00
C353   C     0.54826   0.90298   0.28509   0.00000  Uiso   1.00
C354   C     0.54311   0.55144   0.21076   0.00000  Uiso   1.00
C355   C     0.56051   0.94923   0.28446   0.00000  Uiso   1.00
C356   C     0.53793   0.52514   0.25162   0.00000  Uiso   1.00
C357   C     0.53360   0.97615   0.24922   0.00000  Uiso   1.00
C358   C     0.58199   0.79968   0.13361   0.00000  Uiso   1.00
C359   C     0.45717   0.73970   0.04699   0.00000  Uiso   1.00
C360   C     0.58404   0.84488   0.10722   0.00000  Uiso   1.00
C361   C     0.41564   0.70390   0.37299   0.00000  Uiso   1.00
C362   C     0.41173   0.66004   0.34496   0.00000  Uiso   1.00
C363   C     0.60530   0.75574   0.04319   0.00000  Uiso   1.00
C364   C     0.61857   0.70962   0.02532   0.00000  Uiso   1.00
C365   C     0.46104   0.66631   0.46660   0.00000  Uiso   1.00
C366   C     0.50562   0.64031   0.49368   0.00000  Uiso   1.00
C367   C     0.52776   0.78230   0.45030   0.00000  Uiso   1.00
C368   C     0.45655   0.73782   0.09630   0.00000  Uiso   1.00
C369   C     0.52841   0.78180   0.40094   0.00000  Uiso   1.00
C370   C     0.54431   0.76551   0.10706   0.00000  Uiso   1.00
C371   C     0.47032   0.71802   0.39564   0.00000  Uiso   1.00
C372   C     0.55047   0.75601   0.05905   0.00000  Uiso   1.00
H373   H     0.65953   0.73538   0.19751   0.00000  Uiso   1.00
H374   H     0.54519   0.81121   0.46980   0.00000  Uiso   1.00
H375   H     0.42033   0.72904   0.11038   0.00000  Uiso   1.00
H376   H     0.54928   0.80848   0.38413   0.00000  Uiso   1.00
H377   H     0.57541   0.50484   0.17759   0.00000  Uiso   1.00
H378   H     0.61280   0.94506   0.33962   0.00000  Uiso   1.00
H379   H     0.54387   0.85788   0.09869   0.00000  Uiso   1.00
H380   H     0.60802   0.86995   0.12991   0.00000  Uiso   1.00
H381   H     0.60213   0.84176   0.07416   0.00000  Uiso   1.00
H382   H     0.56907   0.80847   0.16724   0.00000  Uiso   1.00
H383   H     0.62185   0.78632   0.14158   0.00000  Uiso   1.00
H384   H     0.34009   0.76631   0.30193   0.00000  Uiso   1.00
H385   H     0.37364   0.64233   0.34848   0.00000  Uiso   1.00
H386   H     0.41228   0.66685   0.30686   0.00000  Uiso   1.00
H387   H     0.44339   0.63716   0.35841   0.00000  Uiso   1.00
H388   H     0.38901   0.69979   0.40080   0.00000  Uiso   1.00
H389   H     0.39785   0.73200   0.35227   0.00000  Uiso   1.00
H390   H     0.61156   0.68285   0.05157   0.00000  Uiso   1.00
H391   H     0.59527   0.70193   0.49094   0.00000  Uiso   1.00
H392   H     0.66060   0.70971   0.01988   0.00000  Uiso   1.00
H393   H     0.61025   0.78171   0.01589   0.00000  Uiso   1.00
H394   H     0.63625   0.76385   0.07257   0.00000  Uiso   1.00
H395   H     0.52171   0.52570   0.32444   0.00000  Uiso   1.00
H396   H     0.53776   0.63624   0.47151   0.00000  Uiso   1.00
H397   H     0.52083   0.65760   0.02699   0.00000  Uiso   1.00
H398   H     0.49079   0.60619   0.00308   0.00000  Uiso   1.00
H399   H     0.43003   0.67154   0.48940   0.00000  Uiso   1.00
H400   H     0.44288   0.64322   0.43861   0.00000  Uiso   1.00
H401   H     0.47501   0.97765   0.18764   0.00000  Uiso   1.00
H402   H     0.50715   0.60603   0.32530   0.00000  Uiso   1.00
H403   H     0.45745   0.89625   0.18721   0.00000  Uiso   1.00
H404   H     0.53260   0.61617   0.17870   0.00000  Uiso   1.00
H405   H     0.56846   0.88148   0.31196   0.00000  Uiso   1.00
H406   H     0.42045   0.73534   0.02443   0.00000  Uiso   1.00
N407   N     0.50000   0.74999   0.12623   0.00000  Uiso   1.00
N408   N     0.50000   0.75001   0.37376   0.00000  Uiso   1.00
O409   O     0.50000   0.68453   0.28974   0.00000  Uiso   1.00
O410   O     0.59799   0.96878   0.31756   0.00000  Uiso   1.00
O411   O     0.50000   0.81546   0.21026   0.00000  Uiso   1.00
O412   O     0.50000   0.68453   0.21026   0.00000  Uiso   1.00
O413   O     0.50000   0.81547   0.28974   0.00000  Uiso   1.00
O414   O     0.42392   0.75000   0.28044   0.00000  Uiso   1.00
O415   O     0.57608   0.75000   0.21955   0.00000  Uiso   1.00
O416   O     0.42392   0.74999   0.20096   0.00000  Uiso   1.00
O417   O     0.57608   0.75000   0.29903   0.00000  Uiso   1.00
O418   O     0.55879   0.53420   0.17014   0.00000  Uiso   1.00
Zn419  Zn    0.50000   0.75000   0.30307   0.00000  Uiso   1.00
Zn420  Zn    0.50000   0.74999   0.19693   0.00000  Uiso   1.00
C421   C     0.83611   0.66370   0.25039   0.00000  Uiso   1.00
C422   C     0.81321   0.71076   0.44544   0.00000  Uiso   1.00
C423   C     0.83798   0.74666   0.02722   0.00000  Uiso   1.00
C424   C     0.83825   0.74596   0.47393   0.00000  Uiso   1.00
C425   C     0.73390   0.74933   0.23796   0.00000  Uiso   1.00
C426   C     0.93273   0.75106   0.26197   0.00000  Uiso   1.00
C427   C     0.67912   0.74616   0.23167   0.00000  Uiso   1.00
C428   C     0.98740   0.75499   0.26801   0.00000  Uiso   1.00
C429   C     0.85933   0.54550   0.29292   0.00000  Uiso   1.00
C430   C     0.82996   0.95686   0.21429   0.00000  Uiso   1.00
C431   C     0.84907   0.59101   0.29298   0.00000  Uiso   1.00
C432   C     0.83457   0.83625   0.24991   0.00000  Uiso   1.00
C433   C     0.81929   0.91089   0.21439   0.00000  Uiso   1.00
C434   C     0.84838   0.61615   0.25125   0.00000  Uiso   1.00
C435   C     0.84420   0.88425   0.25035   0.00000  Uiso   1.00
C436   C     0.86355   0.59652   0.21066   0.00000  Uiso   1.00
C437   C     0.88159   0.90298   0.28509   0.00000  Uiso   1.00
C438   C     0.87645   0.55144   0.21076   0.00000  Uiso   1.00
C439   C     0.89384   0.94923   0.28446   0.00000  Uiso   1.00
C440   C     0.87126   0.52514   0.25162   0.00000  Uiso   1.00
C441   C     0.86693   0.97615   0.24922   0.00000  Uiso   1.00
C442   C     0.91533   0.79968   0.13361   0.00000  Uiso   1.00
C443   C     0.79050   0.73970   0.04699   0.00000  Uiso   1.00
C444   C     0.91738   0.84488   0.10722   0.00000  Uiso   1.00
C445   C     0.74897   0.70390   0.37299   0.00000  Uiso   1.00
C446   C     0.74507   0.66004   0.34496   0.00000  Uiso   1.00
C447   C     0.93863   0.75574   0.04319   0.00000  Uiso   1.00
C448   C     0.95190   0.70962   0.02532   0.00000  Uiso   1.00
C449   C     0.79437   0.66631   0.46660   0.00000  Uiso   1.00
C450   C     0.83895   0.64031   0.49368   0.00000  Uiso   1.00
C451   C     0.86109   0.78230   0.45030   0.00000  Uiso   1.00
C452   C     0.78988   0.73782   0.09630   0.00000  Uiso   1.00
C453   C     0.86175   0.78180   0.40094   0.00000  Uiso   1.00
C454   C     0.87764   0.76551   0.10706   0.00000  Uiso   1.00
C455   C     0.80365   0.71802   0.39564   0.00000  Uiso   1.00
C456   C     0.88381   0.75601   0.05905   0.00000  Uiso   1.00
H457   H     0.99286   0.73538   0.19751   0.00000  Uiso   1.00
H458   H     0.87853   0.81121   0.46980   0.00000  Uiso   1.00
H459   H     0.75367   0.72904   0.11038   0.00000  Uiso   1.00
H460   H     0.88261   0.80848   0.38413   0.00000  Uiso   1.00
H461   H     0.90874   0.50484   0.17759   0.00000  Uiso   1.00
H462   H     0.94614   0.94506   0.33962   0.00000  Uiso   1.00
H463   H     0.87721   0.85788   0.09869   0.00000  Uiso   1.00
H464   H     0.94136   0.86995   0.12991   0.00000  Uiso   1.00
H465   H     0.93547   0.84176   0.07416   0.00000  Uiso   1.00
H466   H     0.90241   0.80847   0.16724   0.00000  Uiso   1.00
H467   H     0.95519   0.78632   0.14158   0.00000  Uiso   1.00
H468   H     0.67343   0.76631   0.30193   0.00000  Uiso   1.00
H469   H     0.70698   0.64233   0.34848   0.00000  Uiso   1.00
H470   H     0.74561   0.66685   0.30686   0.00000  Uiso   1.00
H471   H     0.77673   0.63716   0.35841   0.00000  Uiso   1.00
H472   H     0.72234   0.69979   0.40080   0.00000  Uiso   1.00
H473   H     0.73119   0.73200   0.35227   0.00000  Uiso   1.00
H474   H     0.94489   0.68285   0.05157   0.00000  Uiso   1.00
H475   H     0.92861   0.70193   0.49094   0.00000  Uiso   1.00
H476   H     0.99393   0.70971   0.01988   0.00000  Uiso   1.00
H477   H     0.94358   0.78171   0.01589   0.00000  Uiso   1.00
H478   H     0.96958   0.76385   0.07257   0.00000  Uiso   1.00
H479   H     0.85504   0.52570   0.32444   0.00000  Uiso   1.00
H480   H     0.87110   0.63624   0.47151   0.00000  Uiso   1.00
H481   H     0.85416   0.65760   0.02699   0.00000  Uiso   1.00
H482   H     0.82412   0.60619   0.00308   0.00000  Uiso   1.00
H483   H     0.76336   0.67154   0.48940   0.00000  Uiso   1.00
H484   H     0.77621   0.64322   0.43861   0.00000  Uiso   1.00
H485   H     0.80835   0.97765   0.18764   0.00000  Uiso   1.00
H486   H     0.84048   0.60603   0.32530   0.00000  Uiso   1.00
H487   H     0.79078   0.89625   0.18721   0.00000  Uiso   1.00
H488   H     0.86593   0.61617   0.17870   0.00000  Uiso   1.00
H489   H     0.90179   0.88148   0.31196   0.00000  Uiso   1.00
H490   H     0.75378   0.73534   0.02443   0.00000  Uiso   1.00
N491   N     0.83333   0.74999   0.12623   0.00000  Uiso   1.00
N492   N     0.83333   0.75001   0.37376   0.00000  Uiso   1.00
O493   O     0.83334   0.68453   0.28974   0.00000  Uiso   1.00
O494   O     0.93133   0.96878   0.31756   0.00000  Uiso   1.00
O495   O     0.83333   0.81546   0.21026   0.00000  Uiso   1.00
O496   O     0.83334   0.68453   0.21026   0.00000  Uiso   1.00
O497   O     0.83333   0.81547   0.28974   0.00000  Uiso   1.00
O498   O     0.75725   0.75000   0.28044   0.00000  Uiso   1.00
O499   O     0.90942   0.75000   0.21955   0.00000  Uiso   1.00
O500   O     0.75725   0.74999   0.20096   0.00000  Uiso   1.00
O501   O     0.90942   0.75000   0.29903   0.00000  Uiso   1.00
O502   O     0.89213   0.53420   0.17014   0.00000  Uiso   1.00
Zn503  Zn    0.83333   0.75000   0.30307   0.00000  Uiso   1.00
Zn504  Zn    0.83333   0.74999   0.19693   0.00000  Uiso   1.00
C505   C     0.16945   0.16370   0.75039   0.00000  Uiso   1.00
C506   C     0.14654   0.21076   0.94544   0.00000  Uiso   1.00
C507   C     0.17131   0.24666   0.52722   0.00000  Uiso   1.00
C508   C     0.17158   0.24596   0.97393   0.00000  Uiso   1.00
C509   C     0.06723   0.24933   0.73796   0.00000  Uiso   1.00
C510   C     0.26606   0.25106   0.76197   0.00000  Uiso   1.00
C511   C     0.01245   0.24616   0.73167   0.00000  Uiso   1.00
C512   C     0.32073   0.25499   0.76801   0.00000  Uiso   1.00
C513   C     0.19267   0.04550   0.79292   0.00000  Uiso   1.00
C514   C     0.16329   0.45686   0.71429   0.00000  Uiso   1.00
C515   C     0.18240   0.09101   0.79298   0.00000  Uiso   1.00
C516   C     0.16790   0.33625   0.74991   0.00000  Uiso   1.00
C517   C     0.15262   0.41089   0.71439   0.00000  Uiso   1.00
C518   C     0.18171   0.11615   0.75125   0.00000  Uiso   1.00
C519   C     0.17754   0.38425   0.75035   0.00000  Uiso   1.00
C520   C     0.19688   0.09652   0.71066   0.00000  Uiso   1.00
C521   C     0.21493   0.40298   0.78509   0.00000  Uiso   1.00
C522   C     0.20978   0.05144   0.71076   0.00000  Uiso   1.00
C523   C     0.22718   0.44923   0.78446   0.00000  Uiso   1.00
C524   C     0.20459   0.02514   0.75162   0.00000  Uiso   1.00
C525   C     0.20026   0.47615   0.74922   0.00000  Uiso   1.00
C526   C     0.24866   0.29968   0.63361   0.00000  Uiso   1.00
C527   C     0.12384   0.23970   0.54699   0.00000  Uiso   1.00
C528   C     0.25071   0.34488   0.60722   0.00000  Uiso   1.00
C529   C     0.08230   0.20390   0.87299   0.00000  Uiso   1.00
C530   C     0.07840   0.16004   0.84496   0.00000  Uiso   1.00
C531   C     0.27197   0.25574   0.54319   0.00000  Uiso   1.00
C532   C     0.28523   0.20962   0.52532   0.00000  Uiso   1.00
C533   C     0.12770   0.16631   0.96660   0.00000  Uiso   1.00
C534   C     0.17229   0.14031   0.99368   0.00000  Uiso   1.00
C535   C     0.19442   0.28230   0.95030   0.00000  Uiso   1.00
C536   C     0.12321   0.23782   0.59630   0.00000  Uiso   1.00
C537   C     0.19508   0.28180   0.90094   0.00000  Uiso   1.00
C538   C     0.21097   0.26551   0.60706   0.00000  Uiso   1.00
C539   C     0.13698   0.21802   0.89564   0.00000  Uiso   1.00
C540   C     0.21714   0.25601   0.55905   0.00000  Uiso   1.00
H541   H     0.32620   0.23538   0.69751   0.00000  Uiso   1.00
H542   H     0.21186   0.31121   0.96980   0.00000  Uiso   1.00
H543   H     0.08700   0.22904   0.61038   0.00000  Uiso   1.00
H544   H     0.21595   0.30848   0.88413   0.00000  Uiso   1.00
H545   H     0.24207   0.00484   0.67759   0.00000  Uiso   1.00
H546   H     0.27947   0.44506   0.83962   0.00000  Uiso   1.00
H547   H     0.21054   0.35788   0.59869   0.00000  Uiso   1.00
H548   H     0.27469   0.36995   0.62991   0.00000  Uiso   1.00
H549   H     0.26880   0.34176   0.57416   0.00000  Uiso   1.00
H550   H     0.23574   0.30847   0.66724   0.00000  Uiso   1.00
H551   H     0.28852   0.28632   0.64158   0.00000  Uiso   1.00
H552   H     0.00676   0.26631   0.80193   0.00000  Uiso   1.00
H553   H     0.04031   0.14233   0.84848   0.00000  Uiso   1.00
H554   H     0.07895   0.16685   0.80686   0.00000  Uiso   1.00
H555   H     0.11006   0.13716   0.85841   0.00000  Uiso   1.00
H556   H     0.05567   0.19979   0.90080   0.00000  Uiso   1.00
H557   H     0.06452   0.23200   0.85227   0.00000  Uiso   1.00
H558   H     0.27823   0.18285   0.55157   0.00000  Uiso   1.00
H559   H     0.26194   0.20193   0.99094   0.00000  Uiso   1.00
H560   H     0.32727   0.20971   0.51988   0.00000  Uiso   1.00
H561   H     0.27691   0.28171   0.51589   0.00000  Uiso   1.00
H562   H     0.30291   0.26385   0.57257   0.00000  Uiso   1.00
H563   H     0.18838   0.02570   0.82444   0.00000  Uiso   1.00
H564   H     0.20443   0.13624   0.97151   0.00000  Uiso   1.00
H565   H     0.18749   0.15760   0.52699   0.00000  Uiso   1.00
H566   H     0.15745   0.10619   0.50308   0.00000  Uiso   1.00
H567   H     0.09669   0.17154   0.98940   0.00000  Uiso   1.00
H568   H     0.10954   0.14322   0.93861   0.00000  Uiso   1.00
H569   H     0.14168   0.47765   0.68764   0.00000  Uiso   1.00
H570   H     0.17382   0.10603   0.82530   0.00000  Uiso   1.00
H571   H     0.12412   0.39625   0.68721   0.00000  Uiso   1.00
H572   H     0.19927   0.11617   0.67870   0.00000  Uiso   1.00
H573   H     0.23513   0.38148   0.81196   0.00000  Uiso   1.00
H574   H     0.08712   0.23534   0.52443   0.00000  Uiso   1.00
N575   N     0.16667   0.24999   0.62623   0.00000  Uiso   1.00
N576   N     0.16667   0.25001   0.87376   0.00000  Uiso   1.00
O577   O     0.16667   0.18453   0.78974   0.00000  Uiso   1.00
O578   O     0.26466   0.46878   0.81756   0.00000  Uiso   1.00
O579   O     0.16666   0.31546   0.71026   0.00000  Uiso   1.00
O580   O     0.16667   0.18453   0.71026   0.00000  Uiso   1.00
O581   O     0.16666   0.31547   0.78974   0.00000  Uiso   1.00
O582   O     0.09058   0.25000   0.78044   0.00000  Uiso   1.00
O583   O     0.24275   0.25000   0.71955   0.00000  Uiso   1.00
O584   O     0.09058   0.24999   0.70096   0.00000  Uiso   1.00
O585   O     0.24275   0.25000   0.79903   0.00000  Uiso   1.00
O586   O     0.22546   0.03420   0.67014   0.00000  Uiso   1.00
Zn587  Zn    0.16667   0.25000   0.80307   0.00000  Uiso   1.00
Zn588  Zn    0.16667   0.24999   0.69693   0.00000  Uiso   1.00
C589   C     0.50278   0.16370   0.75039   0.00000  Uiso   1.00
C590   C     0.47987   0.21076   0.94544   0.00000  Uiso   1.00
C591   C     0.50464   0.24666   0.52722   0.00000  Uiso   1.00
C592   C     0.50491   0.24596   0.97393   0.00000  Uiso   1.00
C593   C     0.40056   0.24933   0.73796   0.00000  Uiso   1.00
C594   C     0.59940   0.25106   0.76197   0.00000  Uiso   1.00
C595   C     0.34579   0.24616   0.73167   0.00000  Uiso   1.00
C596   C     0.65407   0.25499   0.76801   0.00000  Uiso   1.00
C597   C     0.52600   0.04550   0.79292   0.00000  Uiso   1.00
C598   C     0.49663   0.45686   0.71429   0.00000  Uiso   1.00
C599   C     0.51574   0.09101   0.79298   0.00000  Uiso   1.00
C600   C     0.50123   0.33625   0.74991   0.00000  Uiso   1.00
C601   C     0.48595   0.41089   0.71439   0.00000  Uiso   1.00
C602   C     0.51504   0.11615   0.75125   0.00000  Uiso   1.00
C603   C     0.51087   0.38425   0.75035   0.00000  Uiso   1.00
C604   C     0.53022   0.09652   0.71066   0.00000  Uiso   1.00
C605   C     0.54826   0.40298   0.78509   0.00000  Uiso   1.00
C606   C     0.54311   0.05144   0.71076   0.00000  Uiso   1.00
C607   C     0.56051   0.44923   0.78446   0.00000  Uiso   1.00
C608   C     0.53793   0.02514   0.75162   0.00000  Uiso   1.00
C609   C     0.53360   0.47615   0.74922   0.00000  Uiso   1.00
C610   C     0.58199   0.29968   0.63361   0.00000  Uiso   1.00
C611   C     0.45717   0.23970   0.54699   0.00000  Uiso   1.00
C612   C     0.58404   0.34488   0.60722   0.00000  Uiso   1.00
C613   C     0.41564   0.20390   0.87299   0.00000  Uiso   1.00
C614   C     0.41173   0.16004   0.84496   0.00000  Uiso   1.00
C615   C     0.60530   0.25574   0.54319   0.00000  Uiso   1.00
C616   C     0.61857   0.20962   0.52532   0.00000  Uiso   1.00
C617   C     0.46104   0.16631   0.96660   0.00000  Uiso   1.00
C618   C     0.50562   0.14031   0.99368   0.00000  Uiso   1.00
C619   C     0.52776   0.28230   0.95030   0.00000  Uiso   1.00
C620   C     0.45655   0.23782   0.59630   0.00000  Uiso   1.00
C621   C     0.52841   0.28180   0.90094   0.00000  Uiso   1.00
C622   C     0.54431   0.26551   0.60706   0.00000  Uiso   1.00
C623   C     0.47032   0.21802   0.89564   0.00000  Uiso   1.00
C624   C     0.55047   0.25601   0.55905   0.00000  Uiso   1.00
H625   H     0.65953   0.23538   0.69751   0.00000  Uiso   1.00
H626   H     0.54519   0.31121   0.96980   0.00000  Uiso   1.00
H627   H     0.42033   0.22904   0.61038   0.00000  Uiso   1.00
H628   H     0.54928   0.30848   0.88413   0.00000  Uiso   1.00
H629   H     0.57541   0.00484   0.67759   0.00000  Uiso   1.00
H630   H     0.61280   0.44506   0.83962   0.00000  Uiso   1.00
H631   H     0.54387   0.35788   0.59869   0.00000  Uiso   1.00
H632   H     0.60802   0.36995   0.62991   0.00000  Uiso   1.00
H633   H     0.60213   0.34176   0.57416   0.00000  Uiso   1.00
H634   H     0.56907   0.30847   0.66724   0.00000  Uiso   1.00
H635   H     0.62185   0.28632   0.64158   0.00000  Uiso   1.00
H636   H     0.34009   0.26631   0.80193   0.00000  Uiso   1.00
H637   H     0.37364   0.14233   0.84848   0.00000  Uiso   1.00
H638   H     0.41228   0.16685   0.80686   0.00000  Uiso   1.00
H639   H     0.44339   0.13716   0.85841   0.00000  Uiso   1.00
H640   H     0.38901   0.19979   0.90080   0.00000  Uiso   1.00
H641   H     0.39785   0.23200   0.85227   0.00000  Uiso   1.00
H642   H     0.61156   0.18285   0.55157   0.00000  Uiso   1.00
H643   H     0.59527   0.20193   0.99094   0.00000  Uiso   1.00
H644   H     0.66060   0.20971   0.51988   0.00000  Uiso   1.00
H645   H     0.61025   0.28171   0.51589   0.00000  Uiso   1.00
H646   H     0.63625   0.26385   0.57257   0.00000  Uiso   1.00
H647   H     0.52171   0.02570   0.82444   0.00000  Uiso   1.00
H648   H     0.53776   0.13624   0.97151   0.00000  Uiso   1.00
H649   H     0.52083   0.15760   0.52699   0.00000  Uiso   1.00
H650   H     0.49079   0.10619   0.50308   0.00000  Uiso   1.00
H651   H     0.43003   0.17154   0.98940   0.00000  Uiso   1.00
H652   H     0.44288   0.14322   0.93861   0.00000  Uiso   1.00
H653   H     0.47501   0.47765   0.68764   0.00000  Uiso   1.00
H654   H     0.50715   0.10603   0.82530   0.00000  Uiso   1.00
H655   H     0.45745   0.39625   0.68721   0.00000  Uiso   1.00
H656   H     0.53260   0.11617   0.67870   0.00000  Uiso   1.00
H657   H     0.56846   0.38148   0.81196   0.00000  Uiso   1.00
H658   H     0.42045   0.23534   0.52443   0.00000  Uiso   1.00
N659   N     0.50000   0.24999   0.62623   0.00000  Uiso   1.00
N660   N     0.50000   0.25001   0.87376   0.00000  Uiso   1.00
O661   O     0.50000   0.18453   0.78974   0.00000  Uiso   1.00
O662   O     0.59799   0.46878   0.81756   0.00000  Uiso   1.00
O663   O     0.50000   0.31546   0.71026   0.00000  Uiso   1.00
O664   O     0.50000   0.18453   0.71026   0.00000  Uiso   1.00
O665   O     0.50000   0.31547   0.78974   0.00000  Uiso   1.00
O666   O     0.42392   0.25000   0.78044   0.00000  Uiso   1.00
O667   O     0.57608   0.25000   0.71955   0.00000  Uiso   1.00
O668   O     0.42392   0.24999   0.70096   0.00000  Uiso   1.00
O669   O     0.57608   0.25000   0.79903   0.00000  Uiso   1.00
O670   O     0.55879   0.03420   0.67014   0.00000  Uiso   1.00
Zn671  Zn    0.50000   0.25000   0.80307   0.00000  Uiso   1.00
Zn672  Zn    0.50000   0.24999   0.69693   0.00000  Uiso   1.00
C673   C     0.83611   0.16370   0.75039   0.00000  Uiso   1.00
C674   C     0.81321   0.21076   0.94544   0.00000  Uiso   1.00
C675   C     0.83798   0.24666   0.52722   0.00000  Uiso   1.00
C676   C     0.83825   0.24596   0.97393   0.00000  Uiso   1.00
C677   C     0.73390   0.24933   0.73796   0.00000  Uiso   1.00
C678   C     0.93273   0.25106   0.76197   0.00000  Uiso   1.00
C679   C     0.67912   0.24616   0.73167   0.00000  Uiso   1.00
C680   C     0.98740   0.25499   0.76801   0.00000  Uiso   1.00
C681   C     0.85933   0.04550   0.79292   0.00000  Uiso   1.00
C682   C     0.82996   0.45686   0.71429   0.00000  Uiso   1.00
C683   C     0.84907   0.09101   0.79298   0.00000  Uiso   1.00
C684   C     0.83457   0.33625   0.74991   0.00000  Uiso   1.00
C685   C     0.81929   0.41089   0.71439   0.00000  Uiso   1.00
C686   C     0.84838   0.11615   0.75125   0.00000  Uiso   1.00
C687   C     0.84420   0.38425   0.75035   0.00000  Uiso   1.00
C688   C     0.86355   0.09652   0.71066   0.00000  Uiso   1.00
C689   C     0.88159   0.40298   0.78509   0.00000  Uiso   1.00
C690   C     0.87645   0.05144   0.71076   0.00000  Uiso   1.00
C691   C     0.89384   0.44923   0.78446   0.00000  Uiso   1.00
C692   C     0.87126   0.02514   0.75162   0.00000  Uiso   1.00
C693   C     0.86693   0.47615   0.74922   0.00000  Uiso   1.00
C694   C     0.91533   0.29968   0.63361   0.00000  Uiso   1.00
C695   C     0.79050   0.23970   0.54699   0.00000  Uiso   1.00
C696   C     0.91738   0.34488   0.60722   0.00000  Uiso   1.00
C697   C     0.74897   0.20390   0.87299   0.00000  Uiso   1.00
C698   C     0.74507   0.16004   0.84496   0.00000  Uiso   1.00
C699   C     0.93863   0.25574   0.54319   0.00000  Uiso   1.00
C700   C     0.95190   0.20962   0.52532   0.00000  Uiso   1.00
C701   C     0.79437   0.16631   0.96660   0.00000  Uiso   1.00
C702   C     0.83895   0.14031   0.99368   0.00000  Uiso   1.00
C703   C     0.86109   0.28230   0.95030   0.00000  Uiso   1.00
C704   C     0.78988   0.23782   0.59630   0.00000  Uiso   1.00
C705   C     0.86175   0.28180   0.90094   0.00000  Uiso   1.00
C706   C     0.87764   0.26551   0.60706   0.00000  Uiso   1.00
C707   C     0.80365   0.21802   0.89564   0.00000  Uiso   1.00
C708   C     0.88381   0.25601   0.55905   0.00000  Uiso   1.00
H709   H     0.99286   0.23538   0.69751   0.00000  Uiso   1.00
H710   H     0.87853   0.31121   0.96980   0.00000  Uiso   1.00
H711   H     0.75367   0.22904   0.61038   0.00000  Uiso   1.00
H712   H     0.88261   0.30848   0.88413   0.00000  Uiso   1.00
H713   H     0.90874   0.00484   0.67759   0.00000  Uiso   1.00
H714   H     0.94614   0.44506   0.83962   0.00000  Uiso   1.00
H715   H     0.87721   0.35788   0.59869   0.00000  Uiso   1.00
H716   H     0.94136   0.36995   0.62991   0.00000  Uiso   1.00
H717   H     0.93547   0.34176   0.57416   0.00000  Uiso   1.00
H718   H     0.90241   0.30847   0.66724   0.00000  Uiso   1.00
H719   H     0.95519   0.28632   0.64158   0.00000  Uiso   1.00
H720   H     0.67343   0.26631   0.80193   0.00000  Uiso   1.00
H721   H     0.70698   0.14233   0.84848   0.00000  Uiso   1.00
H722   H     0.74561   0.16685   0.80686   0.00000  Uiso   1.00
H723   H     0.77673   0.13716   0.85841   0.00000  Uiso   1.00
H724   H     0.72234   0.19979   0.90080   0.00000  Uiso   1.00
H725   H     0.73119   0.23200   0.85227   0.00000  Uiso   1.00
H726   H     0.94489   0.18285   0.55157   0.00000  Uiso   1.00
H727   H     0.92861   0.20193   0.99094   0.00000  Uiso   1.00
H728   H     0.99393   0.20971   0.51988   0.00000  Uiso   1.00
H729   H     0.94358   0.28171   0.51589   0.00000  Uiso   1.00
H730   H     0.96958   0.26385   0.57257   0.00000  Uiso   1.00
H731   H     0.85504   0.02570   0.82444   0.00000  Uiso   1.00
H732   H     0.87110   0.13624   0.97151   0.00000  Uiso   1.00
H733   H     0.85416   0.15760   0.52699   0.00000  Uiso   1.00
H734   H     0.82412   0.10619   0.50308   0.00000  Uiso   1.00
H735   H     0.76336   0.17154   0.98940   0.00000  Uiso   1.00
H736   H     0.77621   0.14322   0.93861   0.00000  Uiso   1.00
H737   H     0.80835   0.47765   0.68764   0.00000  Uiso   1.00
H738   H     0.84048   0.10603   0.82530   0.00000  Uiso   1.00
H739   H     0.79078   0.39625   0.68721   0.00000  Uiso   1.00
H740   H     0.86593   0.11617   0.67870   0.00000  Uiso   1.00
H741   H     0.90179   0.38148   0.81196   0.00000  Uiso   1.00
H742   H     0.75378   0.23534   0.52443   0.00000  Uiso   1.00
N743   N     0.83333   0.24999   0.62623   0.00000  Uiso   1.00
N744   N     0.83333   0.25001   0.87376   0.00000  Uiso   1.00
O745   O     0.83334   0.18453   0.78974   0.00000  Uiso   1.00
O746   O     0.93133   0.46878   0.81756   0.00000  Uiso   1.00
O747   O     0.83333   0.31546   0.71026   0.00000  Uiso   1.00
O748   O     0.83334   0.18453   0.71026   0.00000  Uiso   1.00
O749   O     0.83333   0.31547   0.78974   0.00000  Uiso   1.00
O750   O     0.75725   0.25000   0.78044   0.00000  Uiso   1.00
O751   O     0.90942   0.25000   0.71955   0.00000  Uiso   1.00
O752   O     0.75725   0.24999   0.70096   0.00000  Uiso   1.00
O753   O     0.90942   0.25000   0.79903   0.00000  Uiso   1.00
O754   O     0.89213   0.03420   0.67014   0.00000  Uiso   1.00
Zn755  Zn    0.83333   0.25000   0.80307   0.00000  Uiso   1.00
Zn756  Zn    0.83333   0.24999   0.69693   0.00000  Uiso   1.00
C757   C     0.16945   0.66370   0.75039   0.00000  Uiso   1.00
C758   C     0.14654   0.71076   0.94544   0.00000  Uiso   1.00
C759   C     0.17131   0.74666   0.52722   0.00000  Uiso   1.00
C760   C     0.17158   0.74596   0.97393   0.00000  Uiso   1.00
C761   C     0.06723   0.74933   0.73796   0.00000  Uiso   1.00
C762   C     0.26606   0.75106   0.76197   0.00000  Uiso   1.00
C763   C     0.01245   0.74616   0.73167   0.00000  Uiso   1.00
C764   C     0.32073   0.75499   0.76801   0.00000  Uiso   1.00
C765   C     0.19267   0.54550   0.79292   0.00000  Uiso   1.00
C766   C     0.16329   0.95686   0.71429   0.00000  Uiso   1.00
C767   C     0.18240   0.59101   0.79298   0.00000  Uiso   1.00
C768   C     0.16790   0.83625   0.74991   0.00000  Uiso   1.00
C769   C     0.15262   0.91089   0.71439   0.00000  Uiso   1.00
C770   C     0.18171   0.61615   0.75125   0.00000  Uiso   1.00
C771   C     0.17754   0.88425   0.75035   0.00000  Uiso   1.00
C772   C     0.19688   0.59652   0.71066   0.00000  Uiso   1.00
C773   C     0.21493   0.90298   0.78509   0.00000  Uiso   1.00
C774   C     0.20978   0.55144   0.71076   0.00000  Uiso   1.00
C775   C     0.22718   0.94923   0.78446   0.00000  Uiso   1.00
C776   C     0.20459   0.52514   0.75162   0.00000  Uiso   1.00
C777   C     0.20026   0.97615   0.74922   0.00000  Uiso   1.00
C778   C     0.24866   0.79968   0.63361   0.00000  Uiso   1.00
C779   C     0.12384   0.73970   0.54699   0.00000  Uiso   1.00
C780   C     0.25071   0.84488   0.60722   0.00000  Uiso   1.00
C781   C     0.08230   0.70390   0.87299   0.00000  Uiso   1.00
C782   C     0.07840   0.66004   0.84496   0.00000  Uiso   1.00
C783   C     0.27197   0.75574   0.54319   0.00000  Uiso   1.00
C784   C     0.28523   0.70962   0.52532   0.00000  Uiso   1.00
C785   C     0.12770   0.66631   0.96660   0.00000  Uiso   1.00
C786   C     0.17229   0.64031   0.99368   0.00000  Uiso   1.00
C787   C     0.19442   0.78230   0.95030   0.00000  Uiso   1.00
C788   C     0.12321   0.73782   0.59630   0.00000  Uiso   1.00
C789   C     0.19508   0.78180   0.90094   0.00000  Uiso   1.00
C790   C     0.21097   0.76551   0.60706   0.00000  Uiso   1.00
C791   C     0.13698   0.71802   0.89564   0.00000  Uiso   1.00
C792   C     0.21714   0.75601   0.55905   0.00000  Uiso   1.00
H793   H     0.32620   0.73538   0.69751   0.00000  Uiso   1.00
H794   H     0.21186   0.81121   0.96980   0.00000  Uiso   1.00
H795   H     0.08700   0.72904   0.61038   0.00000  Uiso   1.00
H796   H     0.21595   0.80848   0.88413   0.00000  Uiso   1.00
H797   H     0.24207   0.50484   0.67759   0.00000  Uiso   1.00
H798   H     0.27947   0.94506   0.83962   0.00000  Uiso   1.00
H799   H     0.21054   0.85788   0.59869   0.00000  Uiso   1.00
H800   H     0.27469   0.86995   0.62991   0.00000  Uiso   1.00
H801   H     0.26880   0.84176   0.57416   0.00000  Uiso   1.00
H802   H     0.23574   0.80847   0.66724   0.00000  Uiso   1.00
H803   H     0.28852   0.78632   0.64158   0.00000  Uiso   1.00
H804   H     0.00676   0.76631   0.80193   0.00000  Uiso   1.00
H805   H     0.04031   0.64233   0.84848   0.00000  Uiso   1.00
H806   H     0.07895   0.66685   0.80686   0.00000  Uiso   1.00
H807   H     0.11006   0.63716   0.85841   0.00000  Uiso   1.00
H808   H     0.05567   0.69979   0.90080   0.00000  Uiso   1.00
H809   H     0.06452   0.73200   0.85227   0.00000  Uiso   1.00
H810   H     0.27823   0.68285   0.55157   0.00000  Uiso   1.00
H811   H     0.26194   0.70193   0.99094   0.00000  Uiso   1.00
H812   H     0.32727   0.70971   0.51988   0.00000  Uiso   1.00
H813   H     0.27691   0.78171   0.51589   0.00000  Uiso   1.00
H814   H     0.30291   0.76385   0.57257   0.00000  Uiso   1.00
H815   H     0.18838   0.52570   0.82444   0.00000  Uiso   1.00
H816   H     0.20443   0.63624   0.97151   0.00000  Uiso   1.00
H817   H     0.18749   0.65760   0.52699   0.00000  Uiso   1.00
H818   H     0.15745   0.60619   0.50308   0.00000  Uiso   1.00
H819   H     0.09669   0.67154   0.98940   0.00000  Uiso   1.00
H820   H     0.10954   0.64322   0.93861   0.00000  Uiso   1.00
H821   H     0.14168   0.97765   0.68764   0.00000  Uiso   1.00
H822   H     0.17382   0.60603   0.82530   0.00000  Uiso   1.00
H823   H     0.12412   0.89625   0.68721   0.00000  Uiso   1.00
H824   H     0.19927   0.61617   0.67870   0.00000  Uiso   1.00
H825   H     0.23513   0.88148   0.81196   0.00000  Uiso   1.00
H826   H     0.08712   0.73534   0.52443   0.00000  Uiso   1.00
N827   N     0.16667   0.74999   0.62623   0.00000  Uiso   1.00
N828   N     0.16667   0.75001   0.87376   0.00000  Uiso   1.00
O829   O     0.16667   0.68453   0.78974   0.00000  Uiso   1.00
O830   O     0.26466   0.96878   0.81756   0.00000  Uiso   1.00
O831   O     0.16666   0.81546   0.71026   0.00000  Uiso   1.00
O832   O     0.16667   0.68453   0.71026   0.00000  Uiso   1.00
O833   O     0.16666   0.81547   0.78974   0.00000  Uiso   1.00
O834   O     0.09058   0.75000   0.78044   0.00000  Uiso   1.00
O835   O     0.24275   0.75000   0.71955   0.00000  Uiso   1.00
O836   O     0.09058   0.74999   0.70096   0.00000  Uiso   1.00
O837   O     0.24275   0.75000   0.79903   0.00000  Uiso   1.00
O838   O     0.22546   0.53420   0.67014   0.00000  Uiso   1.00
Zn839  Zn    0.16667   0.75000   0.80307   0.00000  Uiso   1.00
Zn840  Zn    0.16667   0.74999   0.69693   0.00000  Uiso   1.00
C841   C     0.50278   0.66370   0.75039   0.00000  Uiso   1.00
C842   C     0.47987   0.71076   0.94544   0.00000  Uiso   1.00
C843   C     0.50464   0.74666   0.52722   0.00000  Uiso   1.00
C844   C     0.50491   0.74596   0.97393   0.00000  Uiso   1.00
C845   C     0.40056   0.74933   0.73796   0.00000  Uiso   1.00
C846   C     0.59940   0.75106   0.76197   0.00000  Uiso   1.00
C847   C     0.34579   0.74616   0.73167   0.00000  Uiso   1.00
C848   C     0.65407   0.75499   0.76801   0.00000  Uiso   1.00
C849   C     0.52600   0.54550   0.79292   0.00000  Uiso   1.00
C850   C     0.49663   0.95686   0.71429   0.00000  Uiso   1.00
C851   C     0.51574   0.59101   0.79298   0.00000  Uiso   1.00
C852   C     0.50123   0.83625   0.74991   0.00000  Uiso   1.00
C853   C     0.48595   0.91089   0.71439   0.00000  Uiso   1.00
C854   C     0.51504   0.61615   0.75125   0.00000  Uiso   1.00
C855   C     0.51087   0.88425   0.75035   0.00000  Uiso   1.00
C856   C     0.53022   0.59652   0.71066   0.00000  Uiso   1.00
C857   C     0.54826   0.90298   0.78509   0.00000  Uiso   1.00
C858   C     0.54311   0.55144   0.71076   0.00000  Uiso   1.00
C859   C     0.56051   0.94923   0.78446   0.00000  Uiso   1.00
C860   C     0.53793   0.52514   0.75162   0.00000  Uiso   1.00
C861   C     0.53360   0.97615   0.74922   0.00000  Uiso   1.00
C862   C     0.58199   0.79968   0.63361   0.00000  Uiso   1.00
C863   C     0.45717   0.73970   0.54699   0.00000  Uiso   1.00
C864   C     0.58404   0.84488   0.60722   0.00000  Uiso   1.00
C865   C     0.41564   0.70390   0.87299   0.00000  Uiso   1.00
C866   C     0.41173   0.66004   0.84496   0.00000  Uiso   1.00
C867   C     0.60530   0.75574   0.54319   0.00000  Uiso   1.00
C868   C     0.61857   0.70962   0.52532   0.00000  Uiso   1.00
C869   C     0.46104   0.66631   0.96660   0.00000  Uiso   1.00
C870   C     0.50562   0.64031   0.99368   0.00000  Uiso   1.00
C871   C     0.52776   0.78230   0.95030   0.00000  Uiso   1.00
C872   C     0.45655   0.73782   0.59630   0.00000  Uiso   1.00
C873   C     0.52841   0.78180   0.90094   0.00000  Uiso   1.00
C874   C     0.54431   0.76551   0.60706   0.00000  Uiso   1.00
C875   C     0.47032   0.71802   0.89564   0.00000  Uiso   1.00
C876   C     0.55047   0.75601   0.55905   0.00000  Uiso   1.00
H877   H     0.65953   0.73538   0.69751   0.00000  Uiso   1.00
H878   H     0.54519   0.81121   0.96980   0.00000  Uiso   1.00
H879   H     0.42033   0.72904   0.61038   0.00000  Uiso   1.00
H880   H     0.54928   0.80848   0.88413   0.00000  Uiso   1.00
H881   H     0.57541   0.50484   0.67759   0.00000  Uiso   1.00
H882   H     0.61280   0.94506   0.83962   0.00000  Uiso   1.00
H883   H     0.54387   0.85788   0.59869   0.00000  Uiso   1.00
H884   H     0.60802   0.86995   0.62991   0.00000  Uiso   1.00
H885   H     0.60213   0.84176   0.57416   0.00000  Uiso   1.00
H886   H     0.56907   0.80847   0.66724   0.00000  Uiso   1.00
H887   H     0.62185   0.78632   0.64158   0.00000  Uiso   1.00
H888   H     0.34009   0.76631   0.80193   0.00000  Uiso   1.00
H889   H     0.37364   0.64233   0.84848   0.00000  Uiso   1.00
H890   H     0.41228   0.66685   0.80686   0.00000  Uiso   1.00
H891   H     0.44339   0.63716   0.85841   0.00000  Uiso   1.00
H892   H     0.38901   0.69979   0.90080   0.00000  Uiso   1.00
H893   H     0.39785   0.73200   0.85227   0.00000  Uiso   1.00
H894   H     0.61156   0.68285   0.55157   0.00000  Uiso   1.00
H895   H     0.59527   0.70193   0.99094   0.00000  Uiso   1.00
H896   H     0.66060   0.70971   0.51988   0.00000  Uiso   1.00
H897   H     0.61025   0.78171   0.51589   0.00000  Uiso   1.00
H898   H     0.63625   0.76385   0.57257   0.00000  Uiso   1.00
H899   H     0.52171   0.52570   0.82444   0.00000  Uiso   1.00
H900   H     0.53776   0.63624   0.97151   0.00000  Uiso   1.00
H901   H     0.52083   0.65760   0.52699   0.00000  Uiso   1.00
H902   H     0.49079   0.60619   0.50308   0.00000  Uiso   1.00
H903   H     0.43003   0.67154   0.98940   0.00000  Uiso   1.00
H904   H     0.44288   0.64322   0.93861   0.00000  Uiso   1.00
H905   H     0.47501   0.97765   0.68764   0.00000  Uiso   1.00
H906   H     0.50715   0.60603   0.82530   0.00000  Uiso   1.00
H907   H     0.45745   0.89625   0.68721   0.00000  Uiso   1.00
H908   H     0.53260   0.61617   0.67870   0.00000  Uiso   1.00
H909   H     0.56846   0.88148   0.81196   0.00000  Uiso   1.00
H910   H     0.42045   0.73534   0.52443   0.00000  Uiso   1.00
N911   N     0.50000   0.74999   0.62623   0.00000  Uiso   1.00
N912   N     0.50000   0.75001   0.87376   0.00000  Uiso   1.00
O913   O     0.50000   0.68453   0.78974   0.00000  Uiso   1.00
O914   O     0.59799   0.96878   0.81756   0.00000  Uiso   1.00
O915   O     0.50000   0.81546   0.71026   0.00000  Uiso   1.00
O916   O     0.50000   0.68453   0.71026   0.00000  Uiso   1.00
O917   O     0.50000   0.81547   0.78974   0.00000  Uiso   1.00
O918   O     0.42392   0.75000   0.78044   0.00000  Uiso   1.00
O919   O     0.57608   0.75000   0.71955   0.00000  Uiso   1.00
O920   O     0.42392   0.74999   0.70096   0.00000  Uiso   1.00
O921   O     0.57608   0.75000   0.79903   0.00000  Uiso   1.00
O922   O     0.55879   0.53420   0.67014   0.00000  Uiso   1.00
Zn923  Zn    0.50000   0.75000   0.80307   0.00000  Uiso   1.00
Zn924  Zn    0.50000   0.74999   0.69693   0.00000  Uiso   1.00
C925   C     0.83611   0.66370   0.75039   0.00000  Uiso   1.00
C926   C     0.81321   0.71076   0.94544   0.00000  Uiso   1.00
C927   C     0.83798   0.74666   0.52722   0.00000  Uiso   1.00
C928   C     0.83825   0.74596   0.97393   0.00000  Uiso   1.00
C929   C     0.73390   0.74933   0.73796   0.00000  Uiso   1.00
C930   C     0.93273   0.75106   0.76197   0.00000  Uiso   1.00
C931   C     0.67912   0.74616   0.73167   0.00000  Uiso   1.00
C932   C     0.98740   0.75499   0.76801   0.00000  Uiso   1.00
C933   C     0.85933   0.54550   0.79292   0.00000  Uiso   1.00
C934   C     0.82996   0.95686   0.71429   0.00000  Uiso   1.00
C935   C     0.84907   0.59101   0.79298   0.00000  Uiso   1.00
C936   C     0.83457   0.83625   0.74991   0.00000  Uiso   1.00
C937   C     0.81929   0.91089   0.71439   0.00000  Uiso   1.00
C938   C     0.84838   0.61615   0.75125   0.00000  Uiso   1.00
C939   C     0.84420   0.88425   0.75035   0.00000  Uiso   1.00
C940   C     0.86355   0.59652   0.71066   0.00000  Uiso   1.00
C941   C     0.88159   0.90298   0.78509   0.00000  Uiso   1.00
C942   C     0.87645   0.55144   0.71076   0.00000  Uiso   1.00
C943   C     0.89384   0.94923   0.78446   0.00000  Uiso   1.00
C944   C     0.87126   0.52514   0.75162   0.00000  Uiso   1.00
C945   C     0.86693   0.97615   0.74922   0.00000  Uiso   1.00
C946   C     0.91533   0.79968   0.63361   0.00000  Uiso   1.00
C947   C     0.79050   0.73970   0.54699   0.00000  Uiso   1.00
C948   C     0.91738   0.84488   0.60722   0.00000  Uiso   1.00
C949   C     0.74897   0.70390   0.87299   0.00000  Uiso   1.00
C950   C     0.74507   0.66004   0.84496   0.00000  Uiso   1.00
C951   C     0.93863   0.75574   0.54319   0.00000  Uiso   1.00
C952   C     0.95190   0.70962   0.52532   0.00000  Uiso   1.00
C953   C     0.79437   0.66631   0.96660   0.00000  Uiso   1.00
C954   C     0.83895   0.64031   0.99368   0.00000  Uiso   1.00
C955   C     0.86109   0.78230   0.95030   0.00000  Uiso   1.00
C956   C     0.78988   0.73782   0.59630   0.00000  Uiso   1.00
C957   C     0.86175   0.78180   0.90094   0.00000  Uiso   1.00
C958   C     0.87764   0.76551   0.60706   0.00000  Uiso   1.00
C959   C     0.80365   0.71802   0.89564   0.00000  Uiso   1.00
C960   C     0.88381   0.75601   0.55905   0.00000  Uiso   1.00
H961   H     0.99286   0.73538   0.69751   0.00000  Uiso   1.00
H962   H     0.87853   0.81121   0.96980   0.00000  Uiso   1.00
H963   H     0.75367   0.72904   0.61038   0.00000  Uiso   1.00
H964   H     0.88261   0.80848   0.88413   0.00000  Uiso   1.00
H965   H     0.90874   0.50484   0.67759   0.00000  Uiso   1.00
H966   H     0.94614   0.94506   0.83962   0.00000  Uiso   1.00
H967   H     0.87721   0.85788   0.59869   0.00000  Uiso   1.00
H968   H     0.94136   0.86995   0.62991   0.00000  Uiso   1.00
H969   H     0.93547   0.84176   0.57416   0.00000  Uiso   1.00
H970   H     0.90241   0.80847   0.66724   0.00000  Uiso   1.00
H971   H     0.95519   0.78632   0.64158   0.00000  Uiso   1.00
H972   H     0.67343   0.76631   0.80193   0.00000  Uiso   1.00
H973   H     0.70698   0.64233   0.84848   0.00000  Uiso   1.00
H974   H     0.74561   0.66685   0.80686   0.00000  Uiso   1.00
H975   H     0.77673   0.63716   0.85841   0.00000  Uiso   1.00
H976   H     0.72234   0.69979   0.90080   0.00000  Uiso   1.00
H977   H     0.73119   0.73200   0.85227   0.00000  Uiso   1.00
H978   H     0.94489   0.68285   0.55157   0.00000  Uiso   1.00
H979   H     0.92861   0.70193   0.99094   0.00000  Uiso   1.00
H980   H     0.99393   0.70971   0.51988   0.00000  Uiso   1.00
H981   H     0.94358   0.78171   0.51589   0.00000  Uiso   1.00
H982   H     0.96958   0.76385   0.57257   0.00000  Uiso   1.00
H983   H     0.85504   0.52570   0.82444   0.00000  Uiso   1.00
H984   H     0.87110   0.63624   0.97151   0.00000  Uiso   1.00
H985   H     0.85416   0.65760   0.52699   0.00000  Uiso   1.00
H986   H     0.82412   0.60619   0.50308   0.00000  Uiso   1.00
H987   H     0.76336   0.67154   0.98940   0.00000  Uiso   1.00
H988   H     0.77621   0.64322   0.93861   0.00000  Uiso   1.00
H989   H     0.80835   0.97765   0.68764   0.00000  Uiso   1.00
H990   H     0.84048   0.60603   0.82530   0.00000  Uiso   1.00
H991   H     0.79078   0.89625   0.68721   0.00000  Uiso   1.00
H992   H     0.86593   0.61617   0.67870   0.00000  Uiso   1.00
H993   H     0.90179   0.88148   0.81196   0.00000  Uiso   1.00
H994   H     0.75378   0.73534   0.52443   0.00000  Uiso   1.00
N995   N     0.83333   0.74999   0.62623   0.00000  Uiso   1.00
N996   N     0.83333   0.75001   0.87376   0.00000  Uiso   1.00
O997   O     0.83334   0.68453   0.78974   0.00000  Uiso   1.00
O998   O     0.93133   0.96878   0.81756   0.00000  Uiso   1.00
O999   O     0.83333   0.81546   0.71026   0.00000  Uiso   1.00
O1000  O     0.83334   0.68453   0.71026   0.00000  Uiso   1.00
O1001  O     0.83333   0.81547   0.78974   0.00000  Uiso   1.00
O1002  O     0.75725   0.75000   0.78044   0.00000  Uiso   1.00
O1003  O     0.90942   0.75000   0.71955   0.00000  Uiso   1.00
O1004  O     0.75725   0.74999   0.70096   0.00000  Uiso   1.00
O1005  O     0.90942   0.75000   0.79903   0.00000  Uiso   1.00
O1006  O     0.89213   0.53420   0.67014   0.00000  Uiso   1.00
Zn1007 Zn    0.83333   0.75000   0.80307   0.00000  Uiso   1.00
Zn1008 Zn    0.83333   0.74999   0.69693   0.00000  Uiso   1.00
loop_
_geom_bond_atom_site_label_1
_geom_bond_atom_site_label_2
_geom_bond_distance
_geom_bond_site_symmetry_2
_ccdc_geom_bond_type
C1     O76     1.290   .     A
C1     O73     1.298   .     A
C1     C14     1.452   .     S
C2     C35     1.427   .     A
C2     C29     1.532   .     S
C2     C4      1.418   .     A
C3     C23     1.414   .     A
C3     C36     1.419   .     A
C3     C508    1.522   1_554 S
C4     C31     1.414   .     A
C4     C507    1.522   .     S
C5     C7      1.398   .     S
C5     O80     1.277   .     A
C5     O78     1.285   .     A
C6     O81     1.277   .     A
C6     C8      1.396   .     S
C6     O79     1.283   .     A
C7     C176    1.318   1_455 S
C7     H205    1.087   1_455 S
C8     C91     1.318   .     S
C8     H132    1.084   .     S
C9     H59     1.084   .     S
C9     C20     1.401   .     A
C9     C11     1.382   .     A
C10    C21     1.403   .     A
C10    C13     1.381   .     A
C10    H65     1.084   .     S
C11    C14     1.396   .     A
C11    H66     1.078   .     S
C12    C15     1.435   .     S
C12    O77     1.290   .     A
C12    O75     1.291   .     A
C13    H67     1.084   .     S
C13    C15     1.392   .     A
C14    C16     1.404   .     A
C15    C17     1.400   .     A
C16    H68     1.084   .     S
C16    C18     1.386   .     A
C17    H69     1.084   .     S
C17    C19     1.396   .     A
C18    C20     1.413   .     A
C18    O82     1.381   .     S
C19    C21     1.405   .     A
C19    O74     1.382   .     S
C20    C273    1.453   1_545 S
C21    C272    1.453   .     S
C22    C24     1.532   .     S
C22    H47     1.107   .     S
C22    C34     1.520   .     S
C22    H46     1.090   .     S
C23    H70     1.080   .     S
C23    C32     1.410   .     A
C24    H45     1.108   .     S
C24    H44     1.111   .     S
C24    H43     1.111   .     S
C25    H53     1.095   .     S
C25    C26     1.527   .     S
C25    C35     1.521   .     S
C25    H52     1.113   .     S
C26    H50     1.105   .     S
C26    H49     1.111   .     S
C26    H51     1.105   .     S
C27    H57     1.104   .     S
C27    H58     1.105   .     S
C27    C36     1.532   .     S
C27    C28     1.526   .     S
C28    H56     1.110   .     S
C28    H54     1.111   .     S
C28    H559    1.107   1_554 S
C29    H63     1.104   .     S
C29    H64     1.106   .     S
C29    C30     1.526   .     S
C30    H60     1.111   .     S
C30    H565    1.107   .     S
C30    H566    1.111   .     S
C31    C33     1.411   .     A
C31    H38     1.081   .     S
C32    H39     1.081   .     S
C32    N71     1.362   .     A
C33    N72     1.362   .     A
C33    H40     1.082   .     S
C34    C36     1.430   .     A
C34    N71     1.386   .     A
C35    N72     1.388   .     A
H37    C91     1.087   .     S
H41    O82     0.990   .     S
H42    O74     0.992   .     S
H48    C176    1.084   1_455 S
H55    C532    1.107   .     S
H61    C534    1.107   1_554 S
H62    C534    1.111   1_554 S
N71    Zn84    2.017   .     S
N72    Zn83    2.017   .     S
O73    Zn83    1.980   .     S
O75    Zn84    1.980   .     S
O76    Zn84    1.972   .     S
O77    Zn83    1.972   .     S
O78    Zn83    1.983   .     S
O79    Zn84    1.983   .     S
O80    Zn84    1.973   .     S
O81    Zn83    1.973   .     S
C85    O160    1.290   .     A
C85    O157    1.298   .     A
C85    C98     1.452   .     S
C86    C119    1.427   .     A
C86    C113    1.532   .     S
C86    C88     1.418   .     A
C87    C107    1.414   .     A
C87    C120    1.419   .     A
C87    C592    1.522   1_554 S
C88    C115    1.414   .     A
C88    C591    1.522   .     S
C89    C91     1.398   .     S
C89    O164    1.277   .     A
C89    O162    1.285   .     A
C90    O165    1.277   .     A
C90    C92     1.396   .     S
C90    O163    1.283   .     A
C92    C175    1.318   .     S
C92    H216    1.084   .     S
C93    H143    1.084   .     S
C93    C104    1.401   .     A
C93    C95     1.382   .     A
C94    C105    1.403   .     A
C94    C97     1.381   .     A
C94    H149    1.084   .     S
C95    C98     1.396   .     A
C95    H150    1.078   .     S
C96    C99     1.435   .     S
C96    O161    1.290   .     A
C96    O159    1.291   .     A
C97    H151    1.084   .     S
C97    C99     1.392   .     A
C98    C100    1.404   .     A
C99    C101    1.400   .     A
C100   H152    1.084   .     S
C100   C102    1.386   .     A
C101   H153    1.084   .     S
C101   C103    1.396   .     A
C102   C104    1.413   .     A
C102   O166    1.381   .     S
C103   C105    1.405   .     A
C103   O158    1.382   .     S
C104   C357    1.453   1_545 S
C105   C356    1.453   .     S
C106   C108    1.532   .     S
C106   H131    1.107   .     S
C106   C118    1.520   .     S
C106   H130    1.090   .     S
C107   H154    1.080   .     S
C107   C116    1.410   .     A
C108   H129    1.108   .     S
C108   H128    1.111   .     S
C108   H127    1.111   .     S
C109   H137    1.095   .     S
C109   C110    1.527   .     S
C109   C119    1.521   .     S
C109   H136    1.113   .     S
C110   H134    1.105   .     S
C110   H133    1.111   .     S
C110   H135    1.105   .     S
C111   H141    1.104   .     S
C111   H142    1.105   .     S
C111   C120    1.532   .     S
C111   C112    1.526   .     S
C112   H140    1.110   .     S
C112   H138    1.111   .     S
C112   H643    1.107   1_554 S
C113   H147    1.104   .     S
C113   H148    1.106   .     S
C113   C114    1.526   .     S
C114   H144    1.111   .     S
C114   H649    1.107   .     S
C114   H650    1.111   .     S
C115   C117    1.411   .     A
C115   H122    1.081   .     S
C116   H123    1.081   .     S
C116   N155    1.362   .     A
C117   N156    1.362   .     A
C117   H124    1.082   .     S
C118   C120    1.430   .     A
C118   N155    1.386   .     A
C119   N156    1.388   .     A
H121   C175    1.087   .     S
H125   O166    0.990   .     S
H126   O158    0.992   .     S
H139   C616    1.107   .     S
H145   C618    1.107   1_554 S
H146   C618    1.111   1_554 S
N155   Zn168   2.017   .     S
N156   Zn167   2.017   .     S
O157   Zn167   1.980   .     S
O159   Zn168   1.980   .     S
O160   Zn168   1.972   .     S
O161   Zn167   1.972   .     S
O162   Zn167   1.983   .     S
O163   Zn168   1.983   .     S
O164   Zn168   1.973   .     S
O165   Zn167   1.973   .     S
C169   O244    1.290   .     A
C169   O241    1.298   .     A
C169   C182    1.452   .     S
C170   C203    1.427   .     A
C170   C197    1.532   .     S
C170   C172    1.418   .     A
C171   C191    1.414   .     A
C171   C204    1.419   .     A
C171   C676    1.522   1_554 S
C172   C199    1.414   .     A
C172   C675    1.522   .     S
C173   C175    1.398   .     S
C173   O248    1.277   .     A
C173   O246    1.285   .     A
C174   O249    1.277   .     A
C174   C176    1.396   .     S
C174   O247    1.283   .     A
C176   C7      1.318   1_655 S
C176   H48     1.084   1_655 S
C177   H227    1.084   .     S
C177   C188    1.401   .     A
C177   C179    1.382   .     A
C178   C189    1.403   .     A
C178   C181    1.381   .     A
C178   H233    1.084   .     S
C179   C182    1.396   .     A
C179   H234    1.078   .     S
C180   C183    1.435   .     S
C180   O245    1.290   .     A
C180   O243    1.291   .     A
C181   H235    1.084   .     S
C181   C183    1.392   .     A
C182   C184    1.404   .     A
C183   C185    1.400   .     A
C184   H236    1.084   .     S
C184   C186    1.386   .     A
C185   H237    1.084   .     S
C185   C187    1.396   .     A
C186   C188    1.413   .     A
C186   O250    1.381   .     S
C187   C189    1.405   .     A
C187   O242    1.382   .     S
C188   C441    1.453   1_545 S
C189   C440    1.453   .     S
C190   C192    1.532   .     S
C190   H215    1.107   .     S
C190   C202    1.520   .     S
C190   H214    1.090   .     S
C191   H238    1.080   .     S
C191   C200    1.410   .     A
C192   H213    1.108   .     S
C192   H212    1.111   .     S
C192   H211    1.111   .     S
C193   H221    1.095   .     S
C193   C194    1.527   .     S
C193   C203    1.521   .     S
C193   H220    1.113   .     S
C194   H218    1.105   .     S
C194   H217    1.111   .     S
C194   H219    1.105   .     S
C195   H225    1.104   .     S
C195   H226    1.105   .     S
C195   C204    1.532   .     S
C195   C196    1.526   .     S
C196   H224    1.110   .     S
C196   H222    1.111   .     S
C196   H727    1.107   1_554 S
C197   H231    1.104   .     S
C197   H232    1.106   .     S
C197   C198    1.526   .     S
C198   H228    1.111   .     S
C198   H733    1.107   .     S
C198   H734    1.111   .     S
C199   C201    1.411   .     A
C199   H206    1.081   .     S
C200   H207    1.081   .     S
C200   N239    1.362   .     A
C201   N240    1.362   .     A
C201   H208    1.082   .     S
C202   C204    1.430   .     A
C202   N239    1.386   .     A
C203   N240    1.388   .     A
H205   C7      1.087   1_655 S
H209   O250    0.990   .     S
H210   O242    0.992   .     S
H223   C700    1.107   .     S
H229   C702    1.107   1_554 S
H230   C702    1.111   1_554 S
N239   Zn252   2.017   .     S
N240   Zn251   2.017   .     S
O241   Zn251   1.980   .     S
O243   Zn252   1.980   .     S
O244   Zn252   1.972   .     S
O245   Zn251   1.972   .     S
O246   Zn251   1.983   .     S
O247   Zn252   1.983   .     S
O248   Zn252   1.973   .     S
O249   Zn251   1.973   .     S
C253   O328    1.290   .     A
C253   O325    1.298   .     A
C253   C266    1.452   .     S
C254   C287    1.427   .     A
C254   C281    1.532   .     S
C254   C256    1.418   .     A
C255   C275    1.414   .     A
C255   C288    1.419   .     A
C255   C760    1.522   1_554 S
C256   C283    1.414   .     A
C256   C759    1.522   .     S
C257   C259    1.398   .     S
C257   O332    1.277   .     A
C257   O330    1.285   .     A
C258   O333    1.277   .     A
C258   C260    1.396   .     S
C258   O331    1.283   .     A
C259   C428    1.318   1_455 S
C259   H457    1.087   1_455 S
C260   C343    1.318   .     S
C260   H384    1.084   .     S
C261   H311    1.084   .     S
C261   C272    1.401   .     A
C261   C263    1.382   .     A
C262   C273    1.403   .     A
C262   C265    1.381   .     A
C262   H317    1.084   .     S
C263   C266    1.396   .     A
C263   H318    1.078   .     S
C264   C267    1.435   .     S
C264   O329    1.290   .     A
C264   O327    1.291   .     A
C265   H319    1.084   .     S
C265   C267    1.392   .     A
C266   C268    1.404   .     A
C267   C269    1.400   .     A
C268   H320    1.084   .     S
C268   C270    1.386   .     A
C269   H321    1.084   .     S
C269   C271    1.396   .     A
C270   C272    1.413   .     A
C270   O334    1.381   .     S
C271   C273    1.405   .     A
C271   O326    1.382   .     S
C273   C20     1.453   1_565 S
C274   C276    1.532   .     S
C274   H299    1.107   .     S
C274   C286    1.520   .     S
C274   H298    1.090   .     S
C275   H322    1.080   .     S
C275   C284    1.410   .     A
C276   H297    1.108   .     S
C276   H296    1.111   .     S
C276   H295    1.111   .     S
C277   H305    1.095   .     S
C277   C278    1.527   .     S
C277   C287    1.521   .     S
C277   H304    1.113   .     S
C278   H302    1.105   .     S
C278   H301    1.111   .     S
C278   H303    1.105   .     S
C279   H309    1.104   .     S
C279   H310    1.105   .     S
C279   C288    1.532   .     S
C279   C280    1.526   .     S
C280   H308    1.110   .     S
C280   H306    1.111   .     S
C280   H811    1.107   1_554 S
C281   H315    1.104   .     S
C281   H316    1.106   .     S
C281   C282    1.526   .     S
C282   H312    1.111   .     S
C282   H817    1.107   .     S
C282   H818    1.111   .     S
C283   C285    1.411   .     A
C283   H290    1.081   .     S
C284   H291    1.081   .     S
C284   N323    1.362   .     A
C285   N324    1.362   .     A
C285   H292    1.082   .     S
C286   C288    1.430   .     A
C286   N323    1.386   .     A
C287   N324    1.388   .     A
H289   C343    1.087   .     S
H293   O334    0.990   .     S
H294   O326    0.992   .     S
H300   C428    1.084   1_455 S
H307   C784    1.107   .     S
H313   C786    1.107   1_554 S
H314   C786    1.111   1_554 S
N323   Zn336   2.017   .     S
N324   Zn335   2.017   .     S
O325   Zn335   1.980   .     S
O327   Zn336   1.980   .     S
O328   Zn336   1.972   .     S
O329   Zn335   1.972   .     S
O330   Zn335   1.983   .     S
O331   Zn336   1.983   .     S
O332   Zn336   1.973   .     S
O333   Zn335   1.973   .     S
C337   O412    1.290   .     A
C337   O409    1.298   .     A
C337   C350    1.452   .     S
C338   C371    1.427   .     A
C338   C365    1.532   .     S
C338   C340    1.418   .     A
C339   C359    1.414   .     A
C339   C372    1.419   .     A
C339   C844    1.522   1_554 S
C340   C367    1.414   .     A
C340   C843    1.522   .     S
C341   C343    1.398   .     S
C341   O416    1.277   .     A
C341   O414    1.285   .     A
C342   O417    1.277   .     A
C342   C344    1.396   .     S
C342   O415    1.283   .     A
C344   C427    1.318   .     S
C344   H468    1.084   .     S
C345   H395    1.084   .     S
C345   C356    1.401   .     A
C345   C347    1.382   .     A
C346   C357    1.403   .     A
C346   C349    1.381   .     A
C346   H401    1.084   .     S
C347   C350    1.396   .     A
C347   H402    1.078   .     S
C348   C351    1.435   .     S
C348   O413    1.290   .     A
C348   O411    1.291   .     A
C349   H403    1.084   .     S
C349   C351    1.392   .     A
C350   C352    1.404   .     A
C351   C353    1.400   .     A
C352   H404    1.084   .     S
C352   C354    1.386   .     A
C353   H405    1.084   .     S
C353   C355    1.396   .     A
C354   C356    1.413   .     A
C354   O418    1.381   .     S
C355   C357    1.405   .     A
C355   O410    1.382   .     S
C357   C104    1.453   1_565 S
C358   C360    1.532   .     S
C358   H383    1.107   .     S
C358   C370    1.520   .     S
C358   H382    1.090   .     S
C359   H406    1.080   .     S
C359   C368    1.410   .     A
C360   H381    1.108   .     S
C360   H380    1.111   .     S
C360   H379    1.111   .     S
C361   H389    1.095   .     S
C361   C362    1.527   .     S
C361   C371    1.521   .     S
C361   H388    1.113   .     S
C362   H386    1.105   .     S
C362   H385    1.111   .     S
C362   H387    1.105   .     S
C363   H393    1.104   .     S
C363   H394    1.105   .     S
C363   C372    1.532   .     S
C363   C364    1.526   .     S
C364   H392    1.110   .     S
C364   H390    1.111   .     S
C364   H895    1.107   1_554 S
C365   H399    1.104   .     S
C365   H400    1.106   .     S
C365   C366    1.526   .     S
C366   H396    1.111   .     S
C366   H901    1.107   .     S
C366   H902    1.111   .     S
C367   C369    1.411   .     A
C367   H374    1.081   .     S
C368   H375    1.081   .     S
C368   N407    1.362   .     A
C369   N408    1.362   .     A
C369   H376    1.082   .     S
C370   C372    1.430   .     A
C370   N407    1.386   .     A
C371   N408    1.388   .     A
H373   C427    1.087   .     S
H377   O418    0.990   .     S
H378   O410    0.992   .     S
H391   C868    1.107   .     S
H397   C870    1.107   1_554 S
H398   C870    1.111   1_554 S
N407   Zn420   2.017   .     S
N408   Zn419   2.017   .     S
O409   Zn419   1.980   .     S
O411   Zn420   1.980   .     S
O412   Zn420   1.972   .     S
O413   Zn419   1.972   .     S
O414   Zn419   1.983   .     S
O415   Zn420   1.983   .     S
O416   Zn420   1.973   .     S
O417   Zn419   1.973   .     S
C421   O496    1.290   .     A
C421   O493    1.298   .     A
C421   C434    1.452   .     S
C422   C455    1.427   .     A
C422   C449    1.532   .     S
C422   C424    1.418   .     A
C423   C443    1.414   .     A
C423   C456    1.419   .     A
C423   C928    1.522   1_554 S
C424   C451    1.414   .     A
C424   C927    1.522   .     S
C425   C427    1.398   .     S
C425   O500    1.277   .     A
C425   O498    1.285   .     A
C426   O501    1.277   .     A
C426   C428    1.396   .     S
C426   O499    1.283   .     A
C428   C259    1.318   1_655 S
C428   H300    1.084   1_655 S
C429   H479    1.084   .     S
C429   C440    1.401   .     A
C429   C431    1.382   .     A
C430   C441    1.403   .     A
C430   C433    1.381   .     A
C430   H485    1.084   .     S
C431   C434    1.396   .     A
C431   H486    1.078   .     S
C432   C435    1.435   .     S
C432   O497    1.290   .     A
C432   O495    1.291   .     A
C433   H487    1.084   .     S
C433   C435    1.392   .     A
C434   C436    1.404   .     A
C435   C437    1.400   .     A
C436   H488    1.084   .     S
C436   C438    1.386   .     A
C437   H489    1.084   .     S
C437   C439    1.396   .     A
C438   C440    1.413   .     A
C438   O502    1.381   .     S
C439   C441    1.405   .     A
C439   O494    1.382   .     S
C441   C188    1.453   1_565 S
C442   C444    1.532   .     S
C442   H467    1.107   .     S
C442   C454    1.520   .     S
C442   H466    1.090   .     S
C443   H490    1.080   .     S
C443   C452    1.410   .     A
C444   H465    1.108   .     S
C444   H464    1.111   .     S
C444   H463    1.111   .     S
C445   H473    1.095   .     S
C445   C446    1.527   .     S
C445   C455    1.521   .     S
C445   H472    1.113   .     S
C446   H470    1.105   .     S
C446   H469    1.111   .     S
C446   H471    1.105   .     S
C447   H477    1.104   .     S
C447   H478    1.105   .     S
C447   C456    1.532   .     S
C447   C448    1.526   .     S
C448   H476    1.110   .     S
C448   H474    1.111   .     S
C448   H979    1.107   1_554 S
C449   H483    1.104   .     S
C449   H484    1.106   .     S
C449   C450    1.526   .     S
C450   H480    1.111   .     S
C450   H985    1.107   .     S
C450   H986    1.111   .     S
C451   C453    1.411   .     A
C451   H458    1.081   .     S
C452   H459    1.081   .     S
C452   N491    1.362   .     A
C453   N492    1.362   .     A
C453   H460    1.082   .     S
C454   C456    1.430   .     A
C454   N491    1.386   .     A
C455   N492    1.388   .     A
H457   C259    1.087   1_655 S
H461   O502    0.990   .     S
H462   O494    0.992   .     S
H475   C952    1.107   .     S
H481   C954    1.107   1_554 S
H482   C954    1.111   1_554 S
N491   Zn504   2.017   .     S
N492   Zn503   2.017   .     S
O493   Zn503   1.980   .     S
O495   Zn504   1.980   .     S
O496   Zn504   1.972   .     S
O497   Zn503   1.972   .     S
O498   Zn503   1.983   .     S
O499   Zn504   1.983   .     S
O500   Zn504   1.973   .     S
O501   Zn503   1.973   .     S
C505   O580    1.290   .     A
C505   O577    1.298   .     A
C505   C518    1.452   .     S
C506   C539    1.427   .     A
C506   C533    1.532   .     S
C506   C508    1.418   .     A
C507   C527    1.414   .     A
C507   C540    1.419   .     A
C508   C535    1.414   .     A
C508   C3      1.522   1_556 S
C509   C511    1.398   .     S
C509   O584    1.277   .     A
C509   O582    1.285   .     A
C510   O585    1.277   .     A
C510   C512    1.396   .     S
C510   O583    1.283   .     A
C511   C680    1.318   1_455 S
C511   H709    1.087   1_455 S
C512   C595    1.318   .     S
C512   H636    1.084   .     S
C513   H563    1.084   .     S
C513   C524    1.401   .     A
C513   C515    1.382   .     A
C514   C525    1.403   .     A
C514   C517    1.381   .     A
C514   H569    1.084   .     S
C515   C518    1.396   .     A
C515   H570    1.078   .     S
C516   C519    1.435   .     S
C516   O581    1.290   .     A
C516   O579    1.291   .     A
C517   H571    1.084   .     S
C517   C519    1.392   .     A
C518   C520    1.404   .     A
C519   C521    1.400   .     A
C520   H572    1.084   .     S
C520   C522    1.386   .     A
C521   H573    1.084   .     S
C521   C523    1.396   .     A
C522   C524    1.413   .     A
C522   O586    1.381   .     S
C523   C525    1.405   .     A
C523   O578    1.382   .     S
C524   C777    1.453   1_545 S
C525   C776    1.453   .     S
C526   C528    1.532   .     S
C526   H551    1.107   .     S
C526   C538    1.520   .     S
C526   H550    1.090   .     S
C527   H574    1.080   .     S
C527   C536    1.410   .     A
C528   H549    1.108   .     S
C528   H548    1.111   .     S
C528   H547    1.111   .     S
C529   H557    1.095   .     S
C529   C530    1.527   .     S
C529   C539    1.521   .     S
C529   H556    1.113   .     S
C530   H554    1.105   .     S
C530   H553    1.111   .     S
C530   H555    1.105   .     S
C531   H561    1.104   .     S
C531   H562    1.105   .     S
C531   C540    1.532   .     S
C531   C532    1.526   .     S
C532   H560    1.110   .     S
C532   H558    1.111   .     S
C533   H567    1.104   .     S
C533   H568    1.106   .     S
C533   C534    1.526   .     S
C534   H564    1.111   .     S
C534   H61     1.107   1_556 S
C534   H62     1.111   1_556 S
C535   C537    1.411   .     A
C535   H542    1.081   .     S
C536   H543    1.081   .     S
C536   N575    1.362   .     A
C537   N576    1.362   .     A
C537   H544    1.082   .     S
C538   C540    1.430   .     A
C538   N575    1.386   .     A
C539   N576    1.388   .     A
H541   C595    1.087   .     S
H545   O586    0.990   .     S
H546   O578    0.992   .     S
H552   C680    1.084   1_455 S
H559   C28     1.107   1_556 S
N575   Zn588   2.017   .     S
N576   Zn587   2.017   .     S
O577   Zn587   1.980   .     S
O579   Zn588   1.980   .     S
O580   Zn588   1.972   .     S
O581   Zn587   1.972   .     S
O582   Zn587   1.983   .     S
O583   Zn588   1.983   .     S
O584   Zn588   1.973   .     S
O585   Zn587   1.973   .     S
C589   O664    1.290   .     A
C589   O661    1.298   .     A
C589   C602    1.452   .     S
C590   C623    1.427   .     A
C590   C617    1.532   .     S
C590   C592    1.418   .     A
C591   C611    1.414   .     A
C591   C624    1.419   .     A
C592   C619    1.414   .     A
C592   C87     1.522   1_556 S
C593   C595    1.398   .     S
C593   O668    1.277   .     A
C593   O666    1.285   .     A
C594   O669    1.277   .     A
C594   C596    1.396   .     S
C594   O667    1.283   .     A
C596   C679    1.318   .     S
C596   H720    1.084   .     S
C597   H647    1.084   .     S
C597   C608    1.401   .     A
C597   C599    1.382   .     A
C598   C609    1.403   .     A
C598   C601    1.381   .     A
C598   H653    1.084   .     S
C599   C602    1.396   .     A
C599   H654    1.078   .     S
C600   C603    1.435   .     S
C600   O665    1.290   .     A
C600   O663    1.291   .     A
C601   H655    1.084   .     S
C601   C603    1.392   .     A
C602   C604    1.404   .     A
C603   C605    1.400   .     A
C604   H656    1.084   .     S
C604   C606    1.386   .     A
C605   H657    1.084   .     S
C605   C607    1.396   .     A
C606   C608    1.413   .     A
C606   O670    1.381   .     S
C607   C609    1.405   .     A
C607   O662    1.382   .     S
C608   C861    1.453   1_545 S
C609   C860    1.453   .     S
C610   C612    1.532   .     S
C610   H635    1.107   .     S
C610   C622    1.520   .     S
C610   H634    1.090   .     S
C611   H658    1.080   .     S
C611   C620    1.410   .     A
C612   H633    1.108   .     S
C612   H632    1.111   .     S
C612   H631    1.111   .     S
C613   H641    1.095   .     S
C613   C614    1.527   .     S
C613   C623    1.521   .     S
C613   H640    1.113   .     S
C614   H638    1.105   .     S
C614   H637    1.111   .     S
C614   H639    1.105   .     S
C615   H645    1.104   .     S
C615   H646    1.105   .     S
C615   C624    1.532   .     S
C615   C616    1.526   .     S
C616   H644    1.110   .     S
C616   H642    1.111   .     S
C617   H651    1.104   .     S
C617   H652    1.106   .     S
C617   C618    1.526   .     S
C618   H648    1.111   .     S
C618   H145    1.107   1_556 S
C618   H146    1.111   1_556 S
C619   C621    1.411   .     A
C619   H626    1.081   .     S
C620   H627    1.081   .     S
C620   N659    1.362   .     A
C621   N660    1.362   .     A
C621   H628    1.082   .     S
C622   C624    1.430   .     A
C622   N659    1.386   .     A
C623   N660    1.388   .     A
H625   C679    1.087   .     S
H629   O670    0.990   .     S
H630   O662    0.992   .     S
H643   C112    1.107   1_556 S
N659   Zn672   2.017   .     S
N660   Zn671   2.017   .     S
O661   Zn671   1.980   .     S
O663   Zn672   1.980   .     S
O664   Zn672   1.972   .     S
O665   Zn671   1.972   .     S
O666   Zn671   1.983   .     S
O667   Zn672   1.983   .     S
O668   Zn672   1.973   .     S
O669   Zn671   1.973   .     S
C673   O748    1.290   .     A
C673   O745    1.298   .     A
C673   C686    1.452   .     S
C674   C707    1.427   .     A
C674   C701    1.532   .     S
C674   C676    1.418   .     A
C675   C695    1.414   .     A
C675   C708    1.419   .     A
C676   C703    1.414   .     A
C676   C171    1.522   1_556 S
C677   C679    1.398   .     S
C677   O752    1.277   .     A
C677   O750    1.285   .     A
C678   O753    1.277   .     A
C678   C680    1.396   .     S
C678   O751    1.283   .     A
C680   C511    1.318   1_655 S
C680   H552    1.084   1_655 S
C681   H731    1.084   .     S
C681   C692    1.401   .     A
C681   C683    1.382   .     A
C682   C693    1.403   .     A
C682   C685    1.381   .     A
C682   H737    1.084   .     S
C683   C686    1.396   .     A
C683   H738    1.078   .     S
C684   C687    1.435   .     S
C684   O749    1.290   .     A
C684   O747    1.291   .     A
C685   H739    1.084   .     S
C685   C687    1.392   .     A
C686   C688    1.404   .     A
C687   C689    1.400   .     A
C688   H740    1.084   .     S
C688   C690    1.386   .     A
C689   H741    1.084   .     S
C689   C691    1.396   .     A
C690   C692    1.413   .     A
C690   O754    1.381   .     S
C691   C693    1.405   .     A
C691   O746    1.382   .     S
C692   C945    1.453   1_545 S
C693   C944    1.453   .     S
C694   C696    1.532   .     S
C694   H719    1.107   .     S
C694   C706    1.520   .     S
C694   H718    1.090   .     S
C695   H742    1.080   .     S
C695   C704    1.410   .     A
C696   H717    1.108   .     S
C696   H716    1.111   .     S
C696   H715    1.111   .     S
C697   H725    1.095   .     S
C697   C698    1.527   .     S
C697   C707    1.521   .     S
C697   H724    1.113   .     S
C698   H722    1.105   .     S
C698   H721    1.111   .     S
C698   H723    1.105   .     S
C699   H729    1.104   .     S
C699   H730    1.105   .     S
C699   C708    1.532   .     S
C699   C700    1.526   .     S
C700   H728    1.110   .     S
C700   H726    1.111   .     S
C701   H735    1.104   .     S
C701   H736    1.106   .     S
C701   C702    1.526   .     S
C702   H732    1.111   .     S
C702   H229    1.107   1_556 S
C702   H230    1.111   1_556 S
C703   C705    1.411   .     A
C703   H710    1.081   .     S
C704   H711    1.081   .     S
C704   N743    1.362   .     A
C705   N744    1.362   .     A
C705   H712    1.082   .     S
C706   C708    1.430   .     A
C706   N743    1.386   .     A
C707   N744    1.388   .     A
H709   C511    1.087   1_655 S
H713   O754    0.990   .     S
H714   O746    0.992   .     S
H727   C196    1.107   1_556 S
N743   Zn756   2.017   .     S
N744   Zn755   2.017   .     S
O745   Zn755   1.980   .     S
O747   Zn756   1.980   .     S
O748   Zn756   1.972   .     S
O749   Zn755   1.972   .     S
O750   Zn755   1.983   .     S
O751   Zn756   1.983   .     S
O752   Zn756   1.973   .     S
O753   Zn755   1.973   .     S
C757   O832    1.290   .     A
C757   O829    1.298   .     A
C757   C770    1.452   .     S
C758   C791    1.427   .     A
C758   C785    1.532   .     S
C758   C760    1.418   .     A
C759   C779    1.414   .     A
C759   C792    1.419   .     A
C760   C787    1.414   .     A
C760   C255    1.522   1_556 S
C761   C763    1.398   .     S
C761   O836    1.277   .     A
C761   O834    1.285   .     A
C762   O837    1.277   .     A
C762   C764    1.396   .     S
C762   O835    1.283   .     A
C763   C932    1.318   1_455 S
C763   H961    1.087   1_455 S
C764   C847    1.318   .     S
C764   H888    1.084   .     S
C765   H815    1.084   .     S
C765   C776    1.401   .     A
C765   C767    1.382   .     A
C766   C777    1.403   .     A
C766   C769    1.381   .     A
C766   H821    1.084   .     S
C767   C770    1.396   .     A
C767   H822    1.078   .     S
C768   C771    1.435   .     S
C768   O833    1.290   .     A
C768   O831    1.291   .     A
C769   H823    1.084   .     S
C769   C771    1.392   .     A
C770   C772    1.404   .     A
C771   C773    1.400   .     A
C772   H824    1.084   .     S
C772   C774    1.386   .     A
C773   H825    1.084   .     S
C773   C775    1.396   .     A
C774   C776    1.413   .     A
C774   O838    1.381   .     S
C775   C777    1.405   .     A
C775   O830    1.382   .     S
C777   C524    1.453   1_565 S
C778   C780    1.532   .     S
C778   H803    1.107   .     S
C778   C790    1.520   .     S
C778   H802    1.090   .     S
C779   H826    1.080   .     S
C779   C788    1.410   .     A
C780   H801    1.108   .     S
C780   H800    1.111   .     S
C780   H799    1.111   .     S
C781   H809    1.095   .     S
C781   C782    1.527   .     S
C781   C791    1.521   .     S
C781   H808    1.113   .     S
C782   H806    1.105   .     S
C782   H805    1.111   .     S
C782   H807    1.105   .     S
C783   H813    1.104   .     S
C783   H814    1.105   .     S
C783   C792    1.532   .     S
C783   C784    1.526   .     S
C784   H812    1.110   .     S
C784   H810    1.111   .     S
C785   H819    1.104   .     S
C785   H820    1.106   .     S
C785   C786    1.526   .     S
C786   H816    1.111   .     S
C786   H313    1.107   1_556 S
C786   H314    1.111   1_556 S
C787   C789    1.411   .     A
C787   H794    1.081   .     S
C788   H795    1.081   .     S
C788   N827    1.362   .     A
C789   N828    1.362   .     A
C789   H796    1.082   .     S
C790   C792    1.430   .     A
C790   N827    1.386   .     A
C791   N828    1.388   .     A
H793   C847    1.087   .     S
H797   O838    0.990   .     S
H798   O830    0.992   .     S
H804   C932    1.084   1_455 S
H811   C280    1.107   1_556 S
N827   Zn840   2.017   .     S
N828   Zn839   2.017   .     S
O829   Zn839   1.980   .     S
O831   Zn840   1.980   .     S
O832   Zn840   1.972   .     S
O833   Zn839   1.972   .     S
O834   Zn839   1.983   .     S
O835   Zn840   1.983   .     S
O836   Zn840   1.973   .     S
O837   Zn839   1.973   .     S
C841   O916    1.290   .     A
C841   O913    1.298   .     A
C841   C854    1.452   .     S
C842   C875    1.427   .     A
C842   C869    1.532   .     S
C842   C844    1.418   .     A
C843   C863    1.414   .     A
C843   C876    1.419   .     A
C844   C871    1.414   .     A
C844   C339    1.522   1_556 S
C845   C847    1.398   .     S
C845   O920    1.277   .     A
C845   O918    1.285   .     A
C846   O921    1.277   .     A
C846   C848    1.396   .     S
C846   O919    1.283   .     A
C848   C931    1.318   .     S
C848   H972    1.084   .     S
C849   H899    1.084   .     S
C849   C860    1.401   .     A
C849   C851    1.382   .     A
C850   C861    1.403   .     A
C850   C853    1.381   .     A
C850   H905    1.084   .     S
C851   C854    1.396   .     A
C851   H906    1.078   .     S
C852   C855    1.435   .     S
C852   O917    1.290   .     A
C852   O915    1.291   .     A
C853   H907    1.084   .     S
C853   C855    1.392   .     A
C854   C856    1.404   .     A
C855   C857    1.400   .     A
C856   H908    1.084   .     S
C856   C858    1.386   .     A
C857   H909    1.084   .     S
C857   C859    1.396   .     A
C858   C860    1.413   .     A
C858   O922    1.381   .     S
C859   C861    1.405   .     A
C859   O914    1.382   .     S
C861   C608    1.453   1_565 S
C862   C864    1.532   .     S
C862   H887    1.107   .     S
C862   C874    1.520   .     S
C862   H886    1.090   .     S
C863   H910    1.080   .     S
C863   C872    1.410   .     A
C864   H885    1.108   .     S
C864   H884    1.111   .     S
C864   H883    1.111   .     S
C865   H893    1.095   .     S
C865   C866    1.527   .     S
C865   C875    1.521   .     S
C865   H892    1.113   .     S
C866   H890    1.105   .     S
C866   H889    1.111   .     S
C866   H891    1.105   .     S
C867   H897    1.104   .     S
C867   H898    1.105   .     S
C867   C876    1.532   .     S
C867   C868    1.526   .     S
C868   H896    1.110   .     S
C868   H894    1.111   .     S
C869   H903    1.104   .     S
C869   H904    1.106   .     S
C869   C870    1.526   .     S
C870   H900    1.111   .     S
C870   H397    1.107   1_556 S
C870   H398    1.111   1_556 S
C871   C873    1.411   .     A
C871   H878    1.081   .     S
C872   H879    1.081   .     S
C872   N911    1.362   .     A
C873   N912    1.362   .     A
C873   H880    1.082   .     S
C874   C876    1.430   .     A
C874   N911    1.386   .     A
C875   N912    1.388   .     A
H877   C931    1.087   .     S
H881   O922    0.990   .     S
H882   O914    0.992   .     S
H895   C364    1.107   1_556 S
N911   Zn924   2.017   .     S
N912   Zn923   2.017   .     S
O913   Zn923   1.980   .     S
O915   Zn924   1.980   .     S
O916   Zn924   1.972   .     S
O917   Zn923   1.972   .     S
O918   Zn923   1.983   .     S
O919   Zn924   1.983   .     S
O920   Zn924   1.973   .     S
O921   Zn923   1.973   .     S
C925   O1000   1.290   .     A
C925   O997    1.298   .     A
C925   C938    1.452   .     S
C926   C959    1.427   .     A
C926   C953    1.532   .     S
C926   C928    1.418   .     A
C927   C947    1.414   .     A
C927   C960    1.419   .     A
C928   C955    1.414   .     A
C928   C423    1.522   1_556 S
C929   C931    1.398   .     S
C929   O1004   1.277   .     A
C929   O1002   1.285   .     A
C930   O1005   1.277   .     A
C930   C932    1.396   .     S
C930   O1003   1.283   .     A
C932   C763    1.318   1_655 S
C932   H804    1.084   1_655 S
C933   H983    1.084   .     S
C933   C944    1.401   .     A
C933   C935    1.382   .     A
C934   C945    1.403   .     A
C934   C937    1.381   .     A
C934   H989    1.084   .     S
C935   C938    1.396   .     A
C935   H990    1.078   .     S
C936   C939    1.435   .     S
C936   O1001   1.290   .     A
C936   O999    1.291   .     A
C937   H991    1.084   .     S
C937   C939    1.392   .     A
C938   C940    1.404   .     A
C939   C941    1.400   .     A
C940   H992    1.084   .     S
C940   C942    1.386   .     A
C941   H993    1.084   .     S
C941   C943    1.396   .     A
C942   C944    1.413   .     A
C942   O1006   1.381   .     S
C943   C945    1.405   .     A
C943   O998    1.382   .     S
C945   C692    1.453   1_565 S
C946   C948    1.532   .     S
C946   H971    1.107   .     S
C946   C958    1.520   .     S
C946   H970    1.090   .     S
C947   H994    1.080   .     S
C947   C956    1.410   .     A
C948   H969    1.108   .     S
C948   H968    1.111   .     S
C948   H967    1.111   .     S
C949   H977    1.095   .     S
C949   C950    1.527   .     S
C949   C959    1.521   .     S
C949   H976    1.113   .     S
C950   H974    1.105   .     S
C950   H973    1.111   .     S
C950   H975    1.105   .     S
C951   H981    1.104   .     S
C951   H982    1.105   .     S
C951   C960    1.532   .     S
C951   C952    1.526   .     S
C952   H980    1.110   .     S
C952   H978    1.111   .     S
C953   H987    1.104   .     S
C953   H988    1.106   .     S
C953   C954    1.526   .     S
C954   H984    1.111   .     S
C954   H481    1.107   1_556 S
C954   H482    1.111   1_556 S
C955   C957    1.411   .     A
C955   H962    1.081   .     S
C956   H963    1.081   .     S
C956   N995    1.362   .     A
C957   N996    1.362   .     A
C957   H964    1.082   .     S
C958   C960    1.430   .     A
C958   N995    1.386   .     A
C959   N996    1.388   .     A
H961   C763    1.087   1_655 S
H965   O1006   0.990   .     S
H966   O998    0.992   .     S
H979   C448    1.107   1_556 S
N995   Zn1008  2.017   .     S
N996   Zn1007  2.017   .     S
O997   Zn1007  1.980   .     S
O999   Zn1008  1.980   .     S
O1000  Zn1008  1.972   .     S
O1001  Zn1007  1.972   .     S
O1002  Zn1007  1.983   .     S
O1003  Zn1008  1.983   .     S
O1004  Zn1008  1.973   .     S
O1005  Zn1007  1.973   .     S
