data_str_m3_o10_o17_pcu_sym.33
_audit_creation_date              2020-01-03
_audit_creation_method            'Materials Studio'
_symmetry_space_group_name_H-M    'P1'
_symmetry_Int_Tables_number       1
_symmetry_cell_setting            triclinic
loop_
_symmetry_equiv_pos_as_xyz
  x,y,z
_cell_length_a                    23.3020
_cell_length_b                    25.6549
_cell_length_c                    29.8354
_cell_angle_alpha                 90.9576
_cell_angle_beta                  86.0945
_cell_angle_gamma                 93.7067
loop_
_atom_site_label
_atom_site_type_symbol
_atom_site_fract_x
_atom_site_fract_y
_atom_site_fract_z
_atom_site_U_iso_or_equiv
_atom_site_adp_type
_atom_site_occupancy
C1     C     0.18194   0.26490   0.24884   0.00000  Uiso   1.00
C2     C     0.19512   0.21150   0.40565   0.00000  Uiso   1.00
C3     C     0.16361   0.16513   0.11625   0.00000  Uiso   1.00
C4     C     0.16972   0.16820   0.38375   0.00000  Uiso   1.00
C5     C     0.18929   0.20770   0.09350   0.00000  Uiso   1.00
C6     C     0.14403   0.12563   0.40650   0.00000  Uiso   1.00
C7     C     0.19061   0.20898   0.04718   0.00000  Uiso   1.00
C8     C     0.14271   0.12434   0.45282   0.00000  Uiso   1.00
C9     C     0.16564   0.16591   0.02351   0.00000  Uiso   1.00
C10    C     0.16769   0.16741   0.47649   0.00000  Uiso   1.00
C11    C     0.13883   0.12147   0.04699   0.00000  Uiso   1.00
C12    C     0.15140   0.06843   0.25116   0.00000  Uiso   1.00
C13    C     0.19450   0.21185   0.45301   0.00000  Uiso   1.00
C14    C     0.21694   0.25273   0.02465   0.00000  Uiso   1.00
C15    C     0.11638   0.08059   0.47534   0.00000  Uiso   1.00
C16    C     0.21922   0.25454   0.47789   0.00000  Uiso   1.00
C17    C     0.11411   0.07878   0.02211   0.00000  Uiso   1.00
C18    C     0.18998   0.31943   0.24820   0.00000  Uiso   1.00
C19    C     0.14335   0.01391   0.25180   0.00000  Uiso   1.00
C20    C     0.16766   0.16733   0.33628   0.00000  Uiso   1.00
C21    C     0.16568   0.16601   0.16372   0.00000  Uiso   1.00
C22    C     0.13822   0.12182   0.09435   0.00000  Uiso   1.00
H23    H     0.20832   0.23991   0.11267   0.00000  Uiso   1.00
H24    H     0.18795   0.26892   0.36048   0.00000  Uiso   1.00
H25    H     0.28572   0.30108   0.03952   0.00000  Uiso   1.00
H26    H     0.22190   0.32968   0.04213   0.00000  Uiso   1.00
H27    H     0.04758   0.03228   0.46047   0.00000  Uiso   1.00
H28    H     0.11139   0.00362   0.45790   0.00000  Uiso   1.00
H29    H     0.21818   0.32012   0.44003   0.00000  Uiso   1.00
H30    H     0.28299   0.29021   0.43660   0.00000  Uiso   1.00
H31    H     0.05033   0.04311   0.06341   0.00000  Uiso   1.00
H32    H     0.11515   0.01319   0.05997   0.00000  Uiso   1.00
H33    H     0.12499   0.09343   0.38733   0.00000  Uiso   1.00
H34    H     0.23400   0.00316   0.24477   0.00000  Uiso   1.00
H35    H     0.09933   0.33018   0.25523   0.00000  Uiso   1.00
H36    H     0.00457   0.12762   0.21608   0.00000  Uiso   1.00
H37    H     0.32876   0.20572   0.28392   0.00000  Uiso   1.00
H38    H     0.08006   0.09079   0.14216   0.00000  Uiso   1.00
H39    H     0.14544   0.06440   0.13952   0.00000  Uiso   1.00
H40    H     0.25331   0.24250   0.35786   0.00000  Uiso   1.00
N41    N     0.31678   0.15265   0.23783   0.00000  Uiso   1.00
N42    N     0.01656   0.18068   0.26217   0.00000  Uiso   1.00
N43    N     0.11374   0.07833   0.12049   0.00000  Uiso   1.00
N44    N     0.21964   0.25498   0.37952   0.00000  Uiso   1.00
N45    N     0.24191   0.29589   0.04968   0.00000  Uiso   1.00
N46    N     0.09140   0.03744   0.45032   0.00000  Uiso   1.00
N47    N     0.24747   0.30043   0.45741   0.00000  Uiso   1.00
N48    N     0.08585   0.03289   0.04259   0.00000  Uiso   1.00
O49    O     0.12975   0.24619   0.25299   0.00000  Uiso   1.00
O50    O     0.20358   0.08714   0.24702   0.00000  Uiso   1.00
O51    O     0.22613   0.23721   0.24519   0.00000  Uiso   1.00
O52    O     0.10720   0.09613   0.25482   0.00000  Uiso   1.00
O53    O     0.11847   0.17117   0.31998   0.00000  Uiso   1.00
O54    O     0.21486   0.16216   0.18003   0.00000  Uiso   1.00
O55    O     0.21485   0.16219   0.31218   0.00000  Uiso   1.00
O56    O     0.11848   0.17115   0.18783   0.00000  Uiso   1.00
Zn57   Zn    0.10231   0.17266   0.25521   0.00000  Uiso   1.00
Zn58   Zn    0.23102   0.16067   0.24479   0.00000  Uiso   1.00
C59    C     0.51527   0.26490   0.24884   0.00000  Uiso   1.00
C60    C     0.52845   0.21150   0.40565   0.00000  Uiso   1.00
C61    C     0.49694   0.16513   0.11625   0.00000  Uiso   1.00
C62    C     0.50306   0.16820   0.38375   0.00000  Uiso   1.00
C63    C     0.52262   0.20770   0.09350   0.00000  Uiso   1.00
C64    C     0.47736   0.12563   0.40650   0.00000  Uiso   1.00
C65    C     0.52394   0.20898   0.04718   0.00000  Uiso   1.00
C66    C     0.47605   0.12434   0.45282   0.00000  Uiso   1.00
C67    C     0.49897   0.16591   0.02351   0.00000  Uiso   1.00
C68    C     0.50102   0.16741   0.47649   0.00000  Uiso   1.00
C69    C     0.47217   0.12147   0.04699   0.00000  Uiso   1.00
C70    C     0.48473   0.06843   0.25116   0.00000  Uiso   1.00
C71    C     0.52783   0.21185   0.45301   0.00000  Uiso   1.00
C72    C     0.55028   0.25273   0.02465   0.00000  Uiso   1.00
C73    C     0.44972   0.08059   0.47534   0.00000  Uiso   1.00
C74    C     0.55255   0.25454   0.47789   0.00000  Uiso   1.00
C75    C     0.44745   0.07878   0.02211   0.00000  Uiso   1.00
C76    C     0.52331   0.31943   0.24820   0.00000  Uiso   1.00
C77    C     0.47669   0.01391   0.25180   0.00000  Uiso   1.00
C78    C     0.50099   0.16733   0.33628   0.00000  Uiso   1.00
C79    C     0.49901   0.16601   0.16372   0.00000  Uiso   1.00
C80    C     0.47156   0.12182   0.09435   0.00000  Uiso   1.00
H81    H     0.54166   0.23991   0.11267   0.00000  Uiso   1.00
H82    H     0.52129   0.26892   0.36048   0.00000  Uiso   1.00
H83    H     0.61905   0.30108   0.03952   0.00000  Uiso   1.00
H84    H     0.55523   0.32968   0.04213   0.00000  Uiso   1.00
H85    H     0.38092   0.03228   0.46047   0.00000  Uiso   1.00
H86    H     0.44472   0.00362   0.45790   0.00000  Uiso   1.00
H87    H     0.55151   0.32012   0.44003   0.00000  Uiso   1.00
H88    H     0.61632   0.29021   0.43660   0.00000  Uiso   1.00
H89    H     0.38367   0.04311   0.06341   0.00000  Uiso   1.00
H90    H     0.44848   0.01319   0.05997   0.00000  Uiso   1.00
H91    H     0.45832   0.09343   0.38733   0.00000  Uiso   1.00
H92    H     0.56734   0.00316   0.24477   0.00000  Uiso   1.00
H93    H     0.43266   0.33018   0.25523   0.00000  Uiso   1.00
H94    H     0.33790   0.12762   0.21608   0.00000  Uiso   1.00
H95    H     0.66210   0.20572   0.28392   0.00000  Uiso   1.00
H96    H     0.41339   0.09079   0.14216   0.00000  Uiso   1.00
H97    H     0.47878   0.06440   0.13952   0.00000  Uiso   1.00
H98    H     0.58665   0.24250   0.35786   0.00000  Uiso   1.00
N99    N     0.65011   0.15265   0.23783   0.00000  Uiso   1.00
N100   N     0.34989   0.18068   0.26217   0.00000  Uiso   1.00
N101   N     0.44707   0.07833   0.12049   0.00000  Uiso   1.00
N102   N     0.55297   0.25498   0.37952   0.00000  Uiso   1.00
N103   N     0.57525   0.29589   0.04968   0.00000  Uiso   1.00
N104   N     0.42474   0.03744   0.45032   0.00000  Uiso   1.00
N105   N     0.58080   0.30043   0.45741   0.00000  Uiso   1.00
N106   N     0.41919   0.03289   0.04259   0.00000  Uiso   1.00
O107   O     0.46308   0.24619   0.25299   0.00000  Uiso   1.00
O108   O     0.53692   0.08714   0.24702   0.00000  Uiso   1.00
O109   O     0.55946   0.23721   0.24519   0.00000  Uiso   1.00
O110   O     0.44054   0.09613   0.25482   0.00000  Uiso   1.00
O111   O     0.45181   0.17117   0.31998   0.00000  Uiso   1.00
O112   O     0.54819   0.16216   0.18003   0.00000  Uiso   1.00
O113   O     0.54819   0.16219   0.31218   0.00000  Uiso   1.00
O114   O     0.45181   0.17115   0.18783   0.00000  Uiso   1.00
Zn115  Zn    0.43565   0.17266   0.25521   0.00000  Uiso   1.00
Zn116  Zn    0.56435   0.16067   0.24479   0.00000  Uiso   1.00
C117   C     0.84860   0.26490   0.24884   0.00000  Uiso   1.00
C118   C     0.86179   0.21150   0.40565   0.00000  Uiso   1.00
C119   C     0.83027   0.16513   0.11625   0.00000  Uiso   1.00
C120   C     0.83639   0.16820   0.38375   0.00000  Uiso   1.00
C121   C     0.85595   0.20770   0.09350   0.00000  Uiso   1.00
C122   C     0.81070   0.12563   0.40650   0.00000  Uiso   1.00
C123   C     0.85727   0.20898   0.04718   0.00000  Uiso   1.00
C124   C     0.80938   0.12434   0.45282   0.00000  Uiso   1.00
C125   C     0.83230   0.16591   0.02351   0.00000  Uiso   1.00
C126   C     0.83436   0.16741   0.47649   0.00000  Uiso   1.00
C127   C     0.80550   0.12147   0.04699   0.00000  Uiso   1.00
C128   C     0.81806   0.06843   0.25116   0.00000  Uiso   1.00
C129   C     0.86117   0.21185   0.45301   0.00000  Uiso   1.00
C130   C     0.88361   0.25273   0.02465   0.00000  Uiso   1.00
C131   C     0.78305   0.08059   0.47534   0.00000  Uiso   1.00
C132   C     0.88588   0.25454   0.47789   0.00000  Uiso   1.00
C133   C     0.78078   0.07878   0.02211   0.00000  Uiso   1.00
C134   C     0.85665   0.31943   0.24820   0.00000  Uiso   1.00
C135   C     0.81002   0.01391   0.25180   0.00000  Uiso   1.00
C136   C     0.83433   0.16733   0.33628   0.00000  Uiso   1.00
C137   C     0.83234   0.16601   0.16372   0.00000  Uiso   1.00
C138   C     0.80489   0.12182   0.09435   0.00000  Uiso   1.00
H139   H     0.87499   0.23991   0.11267   0.00000  Uiso   1.00
H140   H     0.85462   0.26892   0.36048   0.00000  Uiso   1.00
H141   H     0.95239   0.30108   0.03952   0.00000  Uiso   1.00
H142   H     0.88856   0.32968   0.04213   0.00000  Uiso   1.00
H143   H     0.71425   0.03228   0.46047   0.00000  Uiso   1.00
H144   H     0.77806   0.00362   0.45790   0.00000  Uiso   1.00
H145   H     0.88484   0.32012   0.44003   0.00000  Uiso   1.00
H146   H     0.94966   0.29021   0.43660   0.00000  Uiso   1.00
H147   H     0.71700   0.04311   0.06341   0.00000  Uiso   1.00
H148   H     0.78182   0.01319   0.05997   0.00000  Uiso   1.00
H149   H     0.79166   0.09343   0.38733   0.00000  Uiso   1.00
H150   H     0.90067   0.00316   0.24477   0.00000  Uiso   1.00
H151   H     0.76600   0.33018   0.25523   0.00000  Uiso   1.00
H152   H     0.67124   0.12762   0.21608   0.00000  Uiso   1.00
H153   H     0.99543   0.20572   0.28392   0.00000  Uiso   1.00
H154   H     0.74673   0.09079   0.14216   0.00000  Uiso   1.00
H155   H     0.81211   0.06440   0.13952   0.00000  Uiso   1.00
H156   H     0.91998   0.24250   0.35786   0.00000  Uiso   1.00
N157   N     0.98344   0.15265   0.23783   0.00000  Uiso   1.00
N158   N     0.68322   0.18068   0.26217   0.00000  Uiso   1.00
N159   N     0.78040   0.07833   0.12049   0.00000  Uiso   1.00
N160   N     0.88631   0.25498   0.37952   0.00000  Uiso   1.00
N161   N     0.90858   0.29589   0.04968   0.00000  Uiso   1.00
N162   N     0.75807   0.03744   0.45032   0.00000  Uiso   1.00
N163   N     0.91413   0.30043   0.45741   0.00000  Uiso   1.00
N164   N     0.75252   0.03289   0.04259   0.00000  Uiso   1.00
O165   O     0.79642   0.24619   0.25299   0.00000  Uiso   1.00
O166   O     0.87025   0.08714   0.24702   0.00000  Uiso   1.00
O167   O     0.89280   0.23721   0.24519   0.00000  Uiso   1.00
O168   O     0.77387   0.09613   0.25482   0.00000  Uiso   1.00
O169   O     0.78514   0.17117   0.31998   0.00000  Uiso   1.00
O170   O     0.88153   0.16216   0.18003   0.00000  Uiso   1.00
O171   O     0.88152   0.16219   0.31218   0.00000  Uiso   1.00
O172   O     0.78515   0.17115   0.18783   0.00000  Uiso   1.00
Zn173  Zn    0.76898   0.17266   0.25521   0.00000  Uiso   1.00
Zn174  Zn    0.89769   0.16067   0.24479   0.00000  Uiso   1.00
C175   C     0.18194   0.59824   0.24884   0.00000  Uiso   1.00
C176   C     0.19512   0.54484   0.40565   0.00000  Uiso   1.00
C177   C     0.16361   0.49846   0.11625   0.00000  Uiso   1.00
C178   C     0.16972   0.50153   0.38375   0.00000  Uiso   1.00
C179   C     0.18929   0.54104   0.09350   0.00000  Uiso   1.00
C180   C     0.14403   0.45896   0.40650   0.00000  Uiso   1.00
C181   C     0.19061   0.54232   0.04718   0.00000  Uiso   1.00
C182   C     0.14271   0.45768   0.45282   0.00000  Uiso   1.00
C183   C     0.16564   0.49924   0.02351   0.00000  Uiso   1.00
C184   C     0.16769   0.50075   0.47649   0.00000  Uiso   1.00
C185   C     0.13883   0.45480   0.04699   0.00000  Uiso   1.00
C186   C     0.15140   0.40176   0.25116   0.00000  Uiso   1.00
C187   C     0.19450   0.54519   0.45301   0.00000  Uiso   1.00
C188   C     0.21694   0.58607   0.02465   0.00000  Uiso   1.00
C189   C     0.11638   0.41392   0.47534   0.00000  Uiso   1.00
C190   C     0.21922   0.58787   0.47789   0.00000  Uiso   1.00
C191   C     0.11411   0.41212   0.02211   0.00000  Uiso   1.00
C192   C     0.18998   0.65276   0.24820   0.00000  Uiso   1.00
C193   C     0.14335   0.34724   0.25180   0.00000  Uiso   1.00
C194   C     0.16766   0.50066   0.33628   0.00000  Uiso   1.00
C195   C     0.16568   0.49934   0.16372   0.00000  Uiso   1.00
C196   C     0.13822   0.45515   0.09435   0.00000  Uiso   1.00
H197   H     0.20832   0.57325   0.11267   0.00000  Uiso   1.00
H198   H     0.18795   0.60225   0.36048   0.00000  Uiso   1.00
H199   H     0.28572   0.63442   0.03952   0.00000  Uiso   1.00
H200   H     0.22190   0.66302   0.04213   0.00000  Uiso   1.00
H201   H     0.04758   0.36561   0.46047   0.00000  Uiso   1.00
H202   H     0.11139   0.33696   0.45790   0.00000  Uiso   1.00
H203   H     0.21818   0.65345   0.44003   0.00000  Uiso   1.00
H204   H     0.28299   0.62355   0.43660   0.00000  Uiso   1.00
H205   H     0.05033   0.37644   0.06341   0.00000  Uiso   1.00
H206   H     0.11515   0.34652   0.05997   0.00000  Uiso   1.00
H207   H     0.12499   0.42676   0.38733   0.00000  Uiso   1.00
H208   H     0.23400   0.33649   0.24477   0.00000  Uiso   1.00
H209   H     0.09933   0.66351   0.25523   0.00000  Uiso   1.00
H210   H     0.00457   0.46095   0.21608   0.00000  Uiso   1.00
H211   H     0.32876   0.53905   0.28392   0.00000  Uiso   1.00
H212   H     0.08006   0.42412   0.14216   0.00000  Uiso   1.00
H213   H     0.14544   0.39774   0.13952   0.00000  Uiso   1.00
H214   H     0.25331   0.57583   0.35786   0.00000  Uiso   1.00
N215   N     0.31678   0.48598   0.23783   0.00000  Uiso   1.00
N216   N     0.01656   0.51402   0.26217   0.00000  Uiso   1.00
N217   N     0.11374   0.41166   0.12049   0.00000  Uiso   1.00
N218   N     0.21964   0.58831   0.37952   0.00000  Uiso   1.00
N219   N     0.24191   0.62922   0.04968   0.00000  Uiso   1.00
N220   N     0.09140   0.37077   0.45032   0.00000  Uiso   1.00
N221   N     0.24747   0.63376   0.45741   0.00000  Uiso   1.00
N222   N     0.08585   0.36622   0.04259   0.00000  Uiso   1.00
O223   O     0.12975   0.57952   0.25299   0.00000  Uiso   1.00
O224   O     0.20358   0.42048   0.24702   0.00000  Uiso   1.00
O225   O     0.22613   0.57054   0.24519   0.00000  Uiso   1.00
O226   O     0.10720   0.42946   0.25482   0.00000  Uiso   1.00
O227   O     0.11847   0.50450   0.31998   0.00000  Uiso   1.00
O228   O     0.21486   0.49550   0.18003   0.00000  Uiso   1.00
O229   O     0.21485   0.49552   0.31218   0.00000  Uiso   1.00
O230   O     0.11848   0.50448   0.18783   0.00000  Uiso   1.00
Zn231  Zn    0.10231   0.50600   0.25521   0.00000  Uiso   1.00
Zn232  Zn    0.23102   0.49400   0.24479   0.00000  Uiso   1.00
C233   C     0.51527   0.59824   0.24884   0.00000  Uiso   1.00
C234   C     0.52845   0.54484   0.40565   0.00000  Uiso   1.00
C235   C     0.49694   0.49846   0.11625   0.00000  Uiso   1.00
C236   C     0.50306   0.50153   0.38375   0.00000  Uiso   1.00
C237   C     0.52262   0.54104   0.09350   0.00000  Uiso   1.00
C238   C     0.47736   0.45896   0.40650   0.00000  Uiso   1.00
C239   C     0.52394   0.54232   0.04718   0.00000  Uiso   1.00
C240   C     0.47605   0.45768   0.45282   0.00000  Uiso   1.00
C241   C     0.49897   0.49924   0.02351   0.00000  Uiso   1.00
C242   C     0.50102   0.50075   0.47649   0.00000  Uiso   1.00
C243   C     0.47217   0.45480   0.04699   0.00000  Uiso   1.00
C244   C     0.48473   0.40176   0.25116   0.00000  Uiso   1.00
C245   C     0.52783   0.54519   0.45301   0.00000  Uiso   1.00
C246   C     0.55028   0.58607   0.02465   0.00000  Uiso   1.00
C247   C     0.44972   0.41392   0.47534   0.00000  Uiso   1.00
C248   C     0.55255   0.58787   0.47789   0.00000  Uiso   1.00
C249   C     0.44745   0.41212   0.02211   0.00000  Uiso   1.00
C250   C     0.52331   0.65276   0.24820   0.00000  Uiso   1.00
C251   C     0.47669   0.34724   0.25180   0.00000  Uiso   1.00
C252   C     0.50099   0.50066   0.33628   0.00000  Uiso   1.00
C253   C     0.49901   0.49934   0.16372   0.00000  Uiso   1.00
C254   C     0.47156   0.45515   0.09435   0.00000  Uiso   1.00
H255   H     0.54166   0.57325   0.11267   0.00000  Uiso   1.00
H256   H     0.52129   0.60225   0.36048   0.00000  Uiso   1.00
H257   H     0.61905   0.63442   0.03952   0.00000  Uiso   1.00
H258   H     0.55523   0.66302   0.04213   0.00000  Uiso   1.00
H259   H     0.38092   0.36561   0.46047   0.00000  Uiso   1.00
H260   H     0.44472   0.33696   0.45790   0.00000  Uiso   1.00
H261   H     0.55151   0.65345   0.44003   0.00000  Uiso   1.00
H262   H     0.61632   0.62355   0.43660   0.00000  Uiso   1.00
H263   H     0.38367   0.37644   0.06341   0.00000  Uiso   1.00
H264   H     0.44848   0.34652   0.05997   0.00000  Uiso   1.00
H265   H     0.45832   0.42676   0.38733   0.00000  Uiso   1.00
H266   H     0.56734   0.33649   0.24477   0.00000  Uiso   1.00
H267   H     0.43266   0.66351   0.25523   0.00000  Uiso   1.00
H268   H     0.33790   0.46095   0.21608   0.00000  Uiso   1.00
H269   H     0.66210   0.53905   0.28392   0.00000  Uiso   1.00
H270   H     0.41339   0.42412   0.14216   0.00000  Uiso   1.00
H271   H     0.47878   0.39774   0.13952   0.00000  Uiso   1.00
H272   H     0.58665   0.57583   0.35786   0.00000  Uiso   1.00
N273   N     0.65011   0.48598   0.23783   0.00000  Uiso   1.00
N274   N     0.34989   0.51402   0.26217   0.00000  Uiso   1.00
N275   N     0.44707   0.41166   0.12049   0.00000  Uiso   1.00
N276   N     0.55297   0.58831   0.37952   0.00000  Uiso   1.00
N277   N     0.57525   0.62922   0.04968   0.00000  Uiso   1.00
N278   N     0.42474   0.37077   0.45032   0.00000  Uiso   1.00
N279   N     0.58080   0.63376   0.45741   0.00000  Uiso   1.00
N280   N     0.41919   0.36622   0.04259   0.00000  Uiso   1.00
O281   O     0.46308   0.57952   0.25299   0.00000  Uiso   1.00
O282   O     0.53692   0.42048   0.24702   0.00000  Uiso   1.00
O283   O     0.55946   0.57054   0.24519   0.00000  Uiso   1.00
O284   O     0.44054   0.42946   0.25482   0.00000  Uiso   1.00
O285   O     0.45181   0.50450   0.31998   0.00000  Uiso   1.00
O286   O     0.54819   0.49550   0.18003   0.00000  Uiso   1.00
O287   O     0.54819   0.49552   0.31218   0.00000  Uiso   1.00
O288   O     0.45181   0.50448   0.18783   0.00000  Uiso   1.00
Zn289  Zn    0.43565   0.50600   0.25521   0.00000  Uiso   1.00
Zn290  Zn    0.56435   0.49400   0.24479   0.00000  Uiso   1.00
C291   C     0.84860   0.59824   0.24884   0.00000  Uiso   1.00
C292   C     0.86179   0.54484   0.40565   0.00000  Uiso   1.00
C293   C     0.83027   0.49846   0.11625   0.00000  Uiso   1.00
C294   C     0.83639   0.50153   0.38375   0.00000  Uiso   1.00
C295   C     0.85595   0.54104   0.09350   0.00000  Uiso   1.00
C296   C     0.81070   0.45896   0.40650   0.00000  Uiso   1.00
C297   C     0.85727   0.54232   0.04718   0.00000  Uiso   1.00
C298   C     0.80938   0.45768   0.45282   0.00000  Uiso   1.00
C299   C     0.83230   0.49924   0.02351   0.00000  Uiso   1.00
C300   C     0.83436   0.50075   0.47649   0.00000  Uiso   1.00
C301   C     0.80550   0.45480   0.04699   0.00000  Uiso   1.00
C302   C     0.81806   0.40176   0.25116   0.00000  Uiso   1.00
C303   C     0.86117   0.54519   0.45301   0.00000  Uiso   1.00
C304   C     0.88361   0.58607   0.02465   0.00000  Uiso   1.00
C305   C     0.78305   0.41392   0.47534   0.00000  Uiso   1.00
C306   C     0.88588   0.58787   0.47789   0.00000  Uiso   1.00
C307   C     0.78078   0.41212   0.02211   0.00000  Uiso   1.00
C308   C     0.85665   0.65276   0.24820   0.00000  Uiso   1.00
C309   C     0.81002   0.34724   0.25180   0.00000  Uiso   1.00
C310   C     0.83433   0.50066   0.33628   0.00000  Uiso   1.00
C311   C     0.83234   0.49934   0.16372   0.00000  Uiso   1.00
C312   C     0.80489   0.45515   0.09435   0.00000  Uiso   1.00
H313   H     0.87499   0.57325   0.11267   0.00000  Uiso   1.00
H314   H     0.85462   0.60225   0.36048   0.00000  Uiso   1.00
H315   H     0.95239   0.63442   0.03952   0.00000  Uiso   1.00
H316   H     0.88856   0.66302   0.04213   0.00000  Uiso   1.00
H317   H     0.71425   0.36561   0.46047   0.00000  Uiso   1.00
H318   H     0.77806   0.33696   0.45790   0.00000  Uiso   1.00
H319   H     0.88484   0.65345   0.44003   0.00000  Uiso   1.00
H320   H     0.94966   0.62355   0.43660   0.00000  Uiso   1.00
H321   H     0.71700   0.37644   0.06341   0.00000  Uiso   1.00
H322   H     0.78182   0.34652   0.05997   0.00000  Uiso   1.00
H323   H     0.79166   0.42676   0.38733   0.00000  Uiso   1.00
H324   H     0.90067   0.33649   0.24477   0.00000  Uiso   1.00
H325   H     0.76600   0.66351   0.25523   0.00000  Uiso   1.00
H326   H     0.67124   0.46095   0.21608   0.00000  Uiso   1.00
H327   H     0.99543   0.53905   0.28392   0.00000  Uiso   1.00
H328   H     0.74673   0.42412   0.14216   0.00000  Uiso   1.00
H329   H     0.81211   0.39774   0.13952   0.00000  Uiso   1.00
H330   H     0.91998   0.57583   0.35786   0.00000  Uiso   1.00
N331   N     0.98344   0.48598   0.23783   0.00000  Uiso   1.00
N332   N     0.68322   0.51402   0.26217   0.00000  Uiso   1.00
N333   N     0.78040   0.41166   0.12049   0.00000  Uiso   1.00
N334   N     0.88631   0.58831   0.37952   0.00000  Uiso   1.00
N335   N     0.90858   0.62922   0.04968   0.00000  Uiso   1.00
N336   N     0.75807   0.37077   0.45032   0.00000  Uiso   1.00
N337   N     0.91413   0.63376   0.45741   0.00000  Uiso   1.00
N338   N     0.75252   0.36622   0.04259   0.00000  Uiso   1.00
O339   O     0.79642   0.57952   0.25299   0.00000  Uiso   1.00
O340   O     0.87025   0.42048   0.24702   0.00000  Uiso   1.00
O341   O     0.89280   0.57054   0.24519   0.00000  Uiso   1.00
O342   O     0.77387   0.42946   0.25482   0.00000  Uiso   1.00
O343   O     0.78514   0.50450   0.31998   0.00000  Uiso   1.00
O344   O     0.88153   0.49550   0.18003   0.00000  Uiso   1.00
O345   O     0.88152   0.49552   0.31218   0.00000  Uiso   1.00
O346   O     0.78515   0.50448   0.18783   0.00000  Uiso   1.00
Zn347  Zn    0.76898   0.50600   0.25521   0.00000  Uiso   1.00
Zn348  Zn    0.89769   0.49400   0.24479   0.00000  Uiso   1.00
C349   C     0.18194   0.93157   0.24884   0.00000  Uiso   1.00
C350   C     0.19512   0.87817   0.40565   0.00000  Uiso   1.00
C351   C     0.16361   0.83179   0.11625   0.00000  Uiso   1.00
C352   C     0.16972   0.83487   0.38375   0.00000  Uiso   1.00
C353   C     0.18929   0.87437   0.09350   0.00000  Uiso   1.00
C354   C     0.14403   0.79230   0.40650   0.00000  Uiso   1.00
C355   C     0.19061   0.87565   0.04718   0.00000  Uiso   1.00
C356   C     0.14271   0.79101   0.45282   0.00000  Uiso   1.00
C357   C     0.16564   0.83258   0.02351   0.00000  Uiso   1.00
C358   C     0.16769   0.83408   0.47649   0.00000  Uiso   1.00
C359   C     0.13883   0.78813   0.04699   0.00000  Uiso   1.00
C360   C     0.15140   0.73510   0.25116   0.00000  Uiso   1.00
C361   C     0.19450   0.87852   0.45301   0.00000  Uiso   1.00
C362   C     0.21694   0.91940   0.02465   0.00000  Uiso   1.00
C363   C     0.11638   0.74726   0.47534   0.00000  Uiso   1.00
C364   C     0.21922   0.92120   0.47789   0.00000  Uiso   1.00
C365   C     0.11411   0.74545   0.02211   0.00000  Uiso   1.00
C366   C     0.18998   0.98609   0.24820   0.00000  Uiso   1.00
C367   C     0.14335   0.68057   0.25180   0.00000  Uiso   1.00
C368   C     0.16766   0.83399   0.33628   0.00000  Uiso   1.00
C369   C     0.16568   0.83267   0.16372   0.00000  Uiso   1.00
C370   C     0.13822   0.78848   0.09435   0.00000  Uiso   1.00
H371   H     0.20832   0.90658   0.11267   0.00000  Uiso   1.00
H372   H     0.18795   0.93558   0.36048   0.00000  Uiso   1.00
H373   H     0.28572   0.96775   0.03952   0.00000  Uiso   1.00
H374   H     0.22190   0.99635   0.04213   0.00000  Uiso   1.00
H375   H     0.04758   0.69894   0.46047   0.00000  Uiso   1.00
H376   H     0.11139   0.67029   0.45790   0.00000  Uiso   1.00
H377   H     0.21818   0.98678   0.44003   0.00000  Uiso   1.00
H378   H     0.28299   0.95688   0.43660   0.00000  Uiso   1.00
H379   H     0.05033   0.70978   0.06341   0.00000  Uiso   1.00
H380   H     0.11515   0.67985   0.05997   0.00000  Uiso   1.00
H381   H     0.12499   0.76009   0.38733   0.00000  Uiso   1.00
H382   H     0.23400   0.66982   0.24477   0.00000  Uiso   1.00
H383   H     0.09933   0.99684   0.25523   0.00000  Uiso   1.00
H384   H     0.00457   0.79428   0.21608   0.00000  Uiso   1.00
H385   H     0.32876   0.87238   0.28392   0.00000  Uiso   1.00
H386   H     0.08006   0.75745   0.14216   0.00000  Uiso   1.00
H387   H     0.14544   0.73107   0.13952   0.00000  Uiso   1.00
H388   H     0.25331   0.90917   0.35786   0.00000  Uiso   1.00
N389   N     0.31678   0.81932   0.23783   0.00000  Uiso   1.00
N390   N     0.01656   0.84735   0.26217   0.00000  Uiso   1.00
N391   N     0.11374   0.74499   0.12049   0.00000  Uiso   1.00
N392   N     0.21964   0.92164   0.37952   0.00000  Uiso   1.00
N393   N     0.24191   0.96255   0.04968   0.00000  Uiso   1.00
N394   N     0.09140   0.70411   0.45032   0.00000  Uiso   1.00
N395   N     0.24747   0.96710   0.45741   0.00000  Uiso   1.00
N396   N     0.08585   0.69955   0.04259   0.00000  Uiso   1.00
O397   O     0.12975   0.91286   0.25299   0.00000  Uiso   1.00
O398   O     0.20358   0.75381   0.24702   0.00000  Uiso   1.00
O399   O     0.22613   0.90387   0.24519   0.00000  Uiso   1.00
O400   O     0.10720   0.76279   0.25482   0.00000  Uiso   1.00
O401   O     0.11847   0.83784   0.31998   0.00000  Uiso   1.00
O402   O     0.21486   0.82883   0.18003   0.00000  Uiso   1.00
O403   O     0.21485   0.82885   0.31218   0.00000  Uiso   1.00
O404   O     0.11848   0.83781   0.18783   0.00000  Uiso   1.00
Zn405  Zn    0.10231   0.83933   0.25521   0.00000  Uiso   1.00
Zn406  Zn    0.23102   0.82734   0.24479   0.00000  Uiso   1.00
C407   C     0.51527   0.93157   0.24884   0.00000  Uiso   1.00
C408   C     0.52845   0.87817   0.40565   0.00000  Uiso   1.00
C409   C     0.49694   0.83179   0.11625   0.00000  Uiso   1.00
C410   C     0.50306   0.83487   0.38375   0.00000  Uiso   1.00
C411   C     0.52262   0.87437   0.09350   0.00000  Uiso   1.00
C412   C     0.47736   0.79230   0.40650   0.00000  Uiso   1.00
C413   C     0.52394   0.87565   0.04718   0.00000  Uiso   1.00
C414   C     0.47605   0.79101   0.45282   0.00000  Uiso   1.00
C415   C     0.49897   0.83258   0.02351   0.00000  Uiso   1.00
C416   C     0.50102   0.83408   0.47649   0.00000  Uiso   1.00
C417   C     0.47217   0.78813   0.04699   0.00000  Uiso   1.00
C418   C     0.48473   0.73510   0.25116   0.00000  Uiso   1.00
C419   C     0.52783   0.87852   0.45301   0.00000  Uiso   1.00
C420   C     0.55028   0.91940   0.02465   0.00000  Uiso   1.00
C421   C     0.44972   0.74726   0.47534   0.00000  Uiso   1.00
C422   C     0.55255   0.92120   0.47789   0.00000  Uiso   1.00
C423   C     0.44745   0.74545   0.02211   0.00000  Uiso   1.00
C424   C     0.52331   0.98609   0.24820   0.00000  Uiso   1.00
C425   C     0.47669   0.68057   0.25180   0.00000  Uiso   1.00
C426   C     0.50099   0.83399   0.33628   0.00000  Uiso   1.00
C427   C     0.49901   0.83267   0.16372   0.00000  Uiso   1.00
C428   C     0.47156   0.78848   0.09435   0.00000  Uiso   1.00
H429   H     0.54166   0.90658   0.11267   0.00000  Uiso   1.00
H430   H     0.52129   0.93558   0.36048   0.00000  Uiso   1.00
H431   H     0.61905   0.96775   0.03952   0.00000  Uiso   1.00
H432   H     0.55523   0.99635   0.04213   0.00000  Uiso   1.00
H433   H     0.38092   0.69894   0.46047   0.00000  Uiso   1.00
H434   H     0.44472   0.67029   0.45790   0.00000  Uiso   1.00
H435   H     0.55151   0.98678   0.44003   0.00000  Uiso   1.00
H436   H     0.61632   0.95688   0.43660   0.00000  Uiso   1.00
H437   H     0.38367   0.70978   0.06341   0.00000  Uiso   1.00
H438   H     0.44848   0.67985   0.05997   0.00000  Uiso   1.00
H439   H     0.45832   0.76009   0.38733   0.00000  Uiso   1.00
H440   H     0.56734   0.66982   0.24477   0.00000  Uiso   1.00
H441   H     0.43266   0.99684   0.25523   0.00000  Uiso   1.00
H442   H     0.33790   0.79428   0.21608   0.00000  Uiso   1.00
H443   H     0.66210   0.87238   0.28392   0.00000  Uiso   1.00
H444   H     0.41339   0.75745   0.14216   0.00000  Uiso   1.00
H445   H     0.47878   0.73107   0.13952   0.00000  Uiso   1.00
H446   H     0.58665   0.90917   0.35786   0.00000  Uiso   1.00
N447   N     0.65011   0.81932   0.23783   0.00000  Uiso   1.00
N448   N     0.34989   0.84735   0.26217   0.00000  Uiso   1.00
N449   N     0.44707   0.74499   0.12049   0.00000  Uiso   1.00
N450   N     0.55297   0.92164   0.37952   0.00000  Uiso   1.00
N451   N     0.57525   0.96255   0.04968   0.00000  Uiso   1.00
N452   N     0.42474   0.70411   0.45032   0.00000  Uiso   1.00
N453   N     0.58080   0.96710   0.45741   0.00000  Uiso   1.00
N454   N     0.41919   0.69955   0.04259   0.00000  Uiso   1.00
O455   O     0.46308   0.91286   0.25299   0.00000  Uiso   1.00
O456   O     0.53692   0.75381   0.24702   0.00000  Uiso   1.00
O457   O     0.55946   0.90387   0.24519   0.00000  Uiso   1.00
O458   O     0.44054   0.76279   0.25482   0.00000  Uiso   1.00
O459   O     0.45181   0.83784   0.31998   0.00000  Uiso   1.00
O460   O     0.54819   0.82883   0.18003   0.00000  Uiso   1.00
O461   O     0.54819   0.82885   0.31218   0.00000  Uiso   1.00
O462   O     0.45181   0.83781   0.18783   0.00000  Uiso   1.00
Zn463  Zn    0.43565   0.83933   0.25521   0.00000  Uiso   1.00
Zn464  Zn    0.56435   0.82734   0.24479   0.00000  Uiso   1.00
C465   C     0.84860   0.93157   0.24884   0.00000  Uiso   1.00
C466   C     0.86179   0.87817   0.40565   0.00000  Uiso   1.00
C467   C     0.83027   0.83179   0.11625   0.00000  Uiso   1.00
C468   C     0.83639   0.83487   0.38375   0.00000  Uiso   1.00
C469   C     0.85595   0.87437   0.09350   0.00000  Uiso   1.00
C470   C     0.81070   0.79230   0.40650   0.00000  Uiso   1.00
C471   C     0.85727   0.87565   0.04718   0.00000  Uiso   1.00
C472   C     0.80938   0.79101   0.45282   0.00000  Uiso   1.00
C473   C     0.83230   0.83258   0.02351   0.00000  Uiso   1.00
C474   C     0.83436   0.83408   0.47649   0.00000  Uiso   1.00
C475   C     0.80550   0.78813   0.04699   0.00000  Uiso   1.00
C476   C     0.81806   0.73510   0.25116   0.00000  Uiso   1.00
C477   C     0.86117   0.87852   0.45301   0.00000  Uiso   1.00
C478   C     0.88361   0.91940   0.02465   0.00000  Uiso   1.00
C479   C     0.78305   0.74726   0.47534   0.00000  Uiso   1.00
C480   C     0.88588   0.92120   0.47789   0.00000  Uiso   1.00
C481   C     0.78078   0.74545   0.02211   0.00000  Uiso   1.00
C482   C     0.85665   0.98609   0.24820   0.00000  Uiso   1.00
C483   C     0.81002   0.68057   0.25180   0.00000  Uiso   1.00
C484   C     0.83433   0.83399   0.33628   0.00000  Uiso   1.00
C485   C     0.83234   0.83267   0.16372   0.00000  Uiso   1.00
C486   C     0.80489   0.78848   0.09435   0.00000  Uiso   1.00
H487   H     0.87499   0.90658   0.11267   0.00000  Uiso   1.00
H488   H     0.85462   0.93558   0.36048   0.00000  Uiso   1.00
H489   H     0.95239   0.96775   0.03952   0.00000  Uiso   1.00
H490   H     0.88856   0.99635   0.04213   0.00000  Uiso   1.00
H491   H     0.71425   0.69894   0.46047   0.00000  Uiso   1.00
H492   H     0.77806   0.67029   0.45790   0.00000  Uiso   1.00
H493   H     0.88484   0.98678   0.44003   0.00000  Uiso   1.00
H494   H     0.94966   0.95688   0.43660   0.00000  Uiso   1.00
H495   H     0.71700   0.70978   0.06341   0.00000  Uiso   1.00
H496   H     0.78182   0.67985   0.05997   0.00000  Uiso   1.00
H497   H     0.79166   0.76009   0.38733   0.00000  Uiso   1.00
H498   H     0.90067   0.66982   0.24477   0.00000  Uiso   1.00
H499   H     0.76600   0.99684   0.25523   0.00000  Uiso   1.00
H500   H     0.67124   0.79428   0.21608   0.00000  Uiso   1.00
H501   H     0.99543   0.87238   0.28392   0.00000  Uiso   1.00
H502   H     0.74673   0.75745   0.14216   0.00000  Uiso   1.00
H503   H     0.81211   0.73107   0.13952   0.00000  Uiso   1.00
H504   H     0.91998   0.90917   0.35786   0.00000  Uiso   1.00
N505   N     0.98344   0.81932   0.23783   0.00000  Uiso   1.00
N506   N     0.68322   0.84735   0.26217   0.00000  Uiso   1.00
N507   N     0.78040   0.74499   0.12049   0.00000  Uiso   1.00
N508   N     0.88631   0.92164   0.37952   0.00000  Uiso   1.00
N509   N     0.90858   0.96255   0.04968   0.00000  Uiso   1.00
N510   N     0.75807   0.70411   0.45032   0.00000  Uiso   1.00
N511   N     0.91413   0.96710   0.45741   0.00000  Uiso   1.00
N512   N     0.75252   0.69955   0.04259   0.00000  Uiso   1.00
O513   O     0.79642   0.91286   0.25299   0.00000  Uiso   1.00
O514   O     0.87025   0.75381   0.24702   0.00000  Uiso   1.00
O515   O     0.89280   0.90387   0.24519   0.00000  Uiso   1.00
O516   O     0.77387   0.76279   0.25482   0.00000  Uiso   1.00
O517   O     0.78514   0.83784   0.31998   0.00000  Uiso   1.00
O518   O     0.88153   0.82883   0.18003   0.00000  Uiso   1.00
O519   O     0.88152   0.82885   0.31218   0.00000  Uiso   1.00
O520   O     0.78515   0.83781   0.18783   0.00000  Uiso   1.00
Zn521  Zn    0.76898   0.83933   0.25521   0.00000  Uiso   1.00
Zn522  Zn    0.89769   0.82734   0.24479   0.00000  Uiso   1.00
C523   C     0.18194   0.26490   0.74884   0.00000  Uiso   1.00
C524   C     0.19512   0.21150   0.90565   0.00000  Uiso   1.00
C525   C     0.16361   0.16513   0.61625   0.00000  Uiso   1.00
C526   C     0.16972   0.16820   0.88375   0.00000  Uiso   1.00
C527   C     0.18929   0.20770   0.59350   0.00000  Uiso   1.00
C528   C     0.14403   0.12563   0.90650   0.00000  Uiso   1.00
C529   C     0.19061   0.20898   0.54718   0.00000  Uiso   1.00
C530   C     0.14271   0.12434   0.95282   0.00000  Uiso   1.00
C531   C     0.16564   0.16591   0.52351   0.00000  Uiso   1.00
C532   C     0.16769   0.16741   0.97649   0.00000  Uiso   1.00
C533   C     0.13883   0.12147   0.54699   0.00000  Uiso   1.00
C534   C     0.15140   0.06843   0.75116   0.00000  Uiso   1.00
C535   C     0.19450   0.21185   0.95301   0.00000  Uiso   1.00
C536   C     0.21694   0.25273   0.52465   0.00000  Uiso   1.00
C537   C     0.11638   0.08059   0.97534   0.00000  Uiso   1.00
C538   C     0.21922   0.25454   0.97789   0.00000  Uiso   1.00
C539   C     0.11411   0.07878   0.52211   0.00000  Uiso   1.00
C540   C     0.18998   0.31943   0.74820   0.00000  Uiso   1.00
C541   C     0.14335   0.01391   0.75180   0.00000  Uiso   1.00
C542   C     0.16766   0.16733   0.83628   0.00000  Uiso   1.00
C543   C     0.16568   0.16601   0.66372   0.00000  Uiso   1.00
C544   C     0.13822   0.12182   0.59435   0.00000  Uiso   1.00
H545   H     0.20832   0.23991   0.61267   0.00000  Uiso   1.00
H546   H     0.18795   0.26892   0.86048   0.00000  Uiso   1.00
H547   H     0.28572   0.30108   0.53952   0.00000  Uiso   1.00
H548   H     0.22190   0.32968   0.54213   0.00000  Uiso   1.00
H549   H     0.04758   0.03228   0.96047   0.00000  Uiso   1.00
H550   H     0.11139   0.00362   0.95790   0.00000  Uiso   1.00
H551   H     0.21818   0.32012   0.94003   0.00000  Uiso   1.00
H552   H     0.28299   0.29021   0.93660   0.00000  Uiso   1.00
H553   H     0.05033   0.04311   0.56341   0.00000  Uiso   1.00
H554   H     0.11515   0.01319   0.55997   0.00000  Uiso   1.00
H555   H     0.12499   0.09343   0.88733   0.00000  Uiso   1.00
H556   H     0.23400   0.00316   0.74477   0.00000  Uiso   1.00
H557   H     0.09933   0.33018   0.75523   0.00000  Uiso   1.00
H558   H     0.00457   0.12762   0.71608   0.00000  Uiso   1.00
H559   H     0.32876   0.20572   0.78392   0.00000  Uiso   1.00
H560   H     0.08006   0.09079   0.64216   0.00000  Uiso   1.00
H561   H     0.14544   0.06440   0.63952   0.00000  Uiso   1.00
H562   H     0.25331   0.24250   0.85786   0.00000  Uiso   1.00
N563   N     0.31678   0.15265   0.73783   0.00000  Uiso   1.00
N564   N     0.01656   0.18068   0.76217   0.00000  Uiso   1.00
N565   N     0.11374   0.07833   0.62049   0.00000  Uiso   1.00
N566   N     0.21964   0.25498   0.87952   0.00000  Uiso   1.00
N567   N     0.24191   0.29589   0.54968   0.00000  Uiso   1.00
N568   N     0.09140   0.03744   0.95032   0.00000  Uiso   1.00
N569   N     0.24747   0.30043   0.95741   0.00000  Uiso   1.00
N570   N     0.08585   0.03289   0.54259   0.00000  Uiso   1.00
O571   O     0.12975   0.24619   0.75299   0.00000  Uiso   1.00
O572   O     0.20358   0.08714   0.74702   0.00000  Uiso   1.00
O573   O     0.22613   0.23721   0.74519   0.00000  Uiso   1.00
O574   O     0.10720   0.09613   0.75482   0.00000  Uiso   1.00
O575   O     0.11847   0.17117   0.81998   0.00000  Uiso   1.00
O576   O     0.21486   0.16216   0.68003   0.00000  Uiso   1.00
O577   O     0.21485   0.16219   0.81218   0.00000  Uiso   1.00
O578   O     0.11848   0.17115   0.68783   0.00000  Uiso   1.00
Zn579  Zn    0.10231   0.17266   0.75521   0.00000  Uiso   1.00
Zn580  Zn    0.23102   0.16067   0.74479   0.00000  Uiso   1.00
C581   C     0.51527   0.26490   0.74884   0.00000  Uiso   1.00
C582   C     0.52845   0.21150   0.90565   0.00000  Uiso   1.00
C583   C     0.49694   0.16513   0.61625   0.00000  Uiso   1.00
C584   C     0.50306   0.16820   0.88375   0.00000  Uiso   1.00
C585   C     0.52262   0.20770   0.59350   0.00000  Uiso   1.00
C586   C     0.47736   0.12563   0.90650   0.00000  Uiso   1.00
C587   C     0.52394   0.20898   0.54718   0.00000  Uiso   1.00
C588   C     0.47605   0.12434   0.95282   0.00000  Uiso   1.00
C589   C     0.49897   0.16591   0.52351   0.00000  Uiso   1.00
C590   C     0.50102   0.16741   0.97649   0.00000  Uiso   1.00
C591   C     0.47217   0.12147   0.54699   0.00000  Uiso   1.00
C592   C     0.48473   0.06843   0.75116   0.00000  Uiso   1.00
C593   C     0.52783   0.21185   0.95301   0.00000  Uiso   1.00
C594   C     0.55028   0.25273   0.52465   0.00000  Uiso   1.00
C595   C     0.44972   0.08059   0.97534   0.00000  Uiso   1.00
C596   C     0.55255   0.25454   0.97789   0.00000  Uiso   1.00
C597   C     0.44745   0.07878   0.52211   0.00000  Uiso   1.00
C598   C     0.52331   0.31943   0.74820   0.00000  Uiso   1.00
C599   C     0.47669   0.01391   0.75180   0.00000  Uiso   1.00
C600   C     0.50099   0.16733   0.83628   0.00000  Uiso   1.00
C601   C     0.49901   0.16601   0.66372   0.00000  Uiso   1.00
C602   C     0.47156   0.12182   0.59435   0.00000  Uiso   1.00
H603   H     0.54166   0.23991   0.61267   0.00000  Uiso   1.00
H604   H     0.52129   0.26892   0.86048   0.00000  Uiso   1.00
H605   H     0.61905   0.30108   0.53952   0.00000  Uiso   1.00
H606   H     0.55523   0.32968   0.54213   0.00000  Uiso   1.00
H607   H     0.38092   0.03228   0.96047   0.00000  Uiso   1.00
H608   H     0.44472   0.00362   0.95790   0.00000  Uiso   1.00
H609   H     0.55151   0.32012   0.94003   0.00000  Uiso   1.00
H610   H     0.61632   0.29021   0.93660   0.00000  Uiso   1.00
H611   H     0.38367   0.04311   0.56341   0.00000  Uiso   1.00
H612   H     0.44848   0.01319   0.55997   0.00000  Uiso   1.00
H613   H     0.45832   0.09343   0.88733   0.00000  Uiso   1.00
H614   H     0.56734   0.00316   0.74477   0.00000  Uiso   1.00
H615   H     0.43266   0.33018   0.75523   0.00000  Uiso   1.00
H616   H     0.33790   0.12762   0.71608   0.00000  Uiso   1.00
H617   H     0.66210   0.20572   0.78392   0.00000  Uiso   1.00
H618   H     0.41339   0.09079   0.64216   0.00000  Uiso   1.00
H619   H     0.47878   0.06440   0.63952   0.00000  Uiso   1.00
H620   H     0.58665   0.24250   0.85786   0.00000  Uiso   1.00
N621   N     0.65011   0.15265   0.73783   0.00000  Uiso   1.00
N622   N     0.34989   0.18068   0.76217   0.00000  Uiso   1.00
N623   N     0.44707   0.07833   0.62049   0.00000  Uiso   1.00
N624   N     0.55297   0.25498   0.87952   0.00000  Uiso   1.00
N625   N     0.57525   0.29589   0.54968   0.00000  Uiso   1.00
N626   N     0.42474   0.03744   0.95032   0.00000  Uiso   1.00
N627   N     0.58080   0.30043   0.95741   0.00000  Uiso   1.00
N628   N     0.41919   0.03289   0.54259   0.00000  Uiso   1.00
O629   O     0.46308   0.24619   0.75299   0.00000  Uiso   1.00
O630   O     0.53692   0.08714   0.74702   0.00000  Uiso   1.00
O631   O     0.55946   0.23721   0.74519   0.00000  Uiso   1.00
O632   O     0.44054   0.09613   0.75482   0.00000  Uiso   1.00
O633   O     0.45181   0.17117   0.81998   0.00000  Uiso   1.00
O634   O     0.54819   0.16216   0.68003   0.00000  Uiso   1.00
O635   O     0.54819   0.16219   0.81218   0.00000  Uiso   1.00
O636   O     0.45181   0.17115   0.68783   0.00000  Uiso   1.00
Zn637  Zn    0.43565   0.17266   0.75521   0.00000  Uiso   1.00
Zn638  Zn    0.56435   0.16067   0.74479   0.00000  Uiso   1.00
C639   C     0.84860   0.26490   0.74884   0.00000  Uiso   1.00
C640   C     0.86179   0.21150   0.90565   0.00000  Uiso   1.00
C641   C     0.83027   0.16513   0.61625   0.00000  Uiso   1.00
C642   C     0.83639   0.16820   0.88375   0.00000  Uiso   1.00
C643   C     0.85595   0.20770   0.59350   0.00000  Uiso   1.00
C644   C     0.81070   0.12563   0.90650   0.00000  Uiso   1.00
C645   C     0.85727   0.20898   0.54718   0.00000  Uiso   1.00
C646   C     0.80938   0.12434   0.95282   0.00000  Uiso   1.00
C647   C     0.83230   0.16591   0.52351   0.00000  Uiso   1.00
C648   C     0.83436   0.16741   0.97649   0.00000  Uiso   1.00
C649   C     0.80550   0.12147   0.54699   0.00000  Uiso   1.00
C650   C     0.81806   0.06843   0.75116   0.00000  Uiso   1.00
C651   C     0.86117   0.21185   0.95301   0.00000  Uiso   1.00
C652   C     0.88361   0.25273   0.52465   0.00000  Uiso   1.00
C653   C     0.78305   0.08059   0.97534   0.00000  Uiso   1.00
C654   C     0.88588   0.25454   0.97789   0.00000  Uiso   1.00
C655   C     0.78078   0.07878   0.52211   0.00000  Uiso   1.00
C656   C     0.85665   0.31943   0.74820   0.00000  Uiso   1.00
C657   C     0.81002   0.01391   0.75180   0.00000  Uiso   1.00
C658   C     0.83433   0.16733   0.83628   0.00000  Uiso   1.00
C659   C     0.83234   0.16601   0.66372   0.00000  Uiso   1.00
C660   C     0.80489   0.12182   0.59435   0.00000  Uiso   1.00
H661   H     0.87499   0.23991   0.61267   0.00000  Uiso   1.00
H662   H     0.85462   0.26892   0.86048   0.00000  Uiso   1.00
H663   H     0.95239   0.30108   0.53952   0.00000  Uiso   1.00
H664   H     0.88856   0.32968   0.54213   0.00000  Uiso   1.00
H665   H     0.71425   0.03228   0.96047   0.00000  Uiso   1.00
H666   H     0.77806   0.00362   0.95790   0.00000  Uiso   1.00
H667   H     0.88484   0.32012   0.94003   0.00000  Uiso   1.00
H668   H     0.94966   0.29021   0.93660   0.00000  Uiso   1.00
H669   H     0.71700   0.04311   0.56341   0.00000  Uiso   1.00
H670   H     0.78182   0.01319   0.55997   0.00000  Uiso   1.00
H671   H     0.79166   0.09343   0.88733   0.00000  Uiso   1.00
H672   H     0.90067   0.00316   0.74477   0.00000  Uiso   1.00
H673   H     0.76600   0.33018   0.75523   0.00000  Uiso   1.00
H674   H     0.67124   0.12762   0.71608   0.00000  Uiso   1.00
H675   H     0.99543   0.20572   0.78392   0.00000  Uiso   1.00
H676   H     0.74673   0.09079   0.64216   0.00000  Uiso   1.00
H677   H     0.81211   0.06440   0.63952   0.00000  Uiso   1.00
H678   H     0.91998   0.24250   0.85786   0.00000  Uiso   1.00
N679   N     0.98344   0.15265   0.73783   0.00000  Uiso   1.00
N680   N     0.68322   0.18068   0.76217   0.00000  Uiso   1.00
N681   N     0.78040   0.07833   0.62049   0.00000  Uiso   1.00
N682   N     0.88631   0.25498   0.87952   0.00000  Uiso   1.00
N683   N     0.90858   0.29589   0.54968   0.00000  Uiso   1.00
N684   N     0.75807   0.03744   0.95032   0.00000  Uiso   1.00
N685   N     0.91413   0.30043   0.95741   0.00000  Uiso   1.00
N686   N     0.75252   0.03289   0.54259   0.00000  Uiso   1.00
O687   O     0.79642   0.24619   0.75299   0.00000  Uiso   1.00
O688   O     0.87025   0.08714   0.74702   0.00000  Uiso   1.00
O689   O     0.89280   0.23721   0.74519   0.00000  Uiso   1.00
O690   O     0.77387   0.09613   0.75482   0.00000  Uiso   1.00
O691   O     0.78514   0.17117   0.81998   0.00000  Uiso   1.00
O692   O     0.88153   0.16216   0.68003   0.00000  Uiso   1.00
O693   O     0.88152   0.16219   0.81218   0.00000  Uiso   1.00
O694   O     0.78515   0.17115   0.68783   0.00000  Uiso   1.00
Zn695  Zn    0.76898   0.17266   0.75521   0.00000  Uiso   1.00
Zn696  Zn    0.89769   0.16067   0.74479   0.00000  Uiso   1.00
C697   C     0.18194   0.59824   0.74884   0.00000  Uiso   1.00
C698   C     0.19512   0.54484   0.90565   0.00000  Uiso   1.00
C699   C     0.16361   0.49846   0.61625   0.00000  Uiso   1.00
C700   C     0.16972   0.50153   0.88375   0.00000  Uiso   1.00
C701   C     0.18929   0.54104   0.59350   0.00000  Uiso   1.00
C702   C     0.14403   0.45896   0.90650   0.00000  Uiso   1.00
C703   C     0.19061   0.54232   0.54718   0.00000  Uiso   1.00
C704   C     0.14271   0.45768   0.95282   0.00000  Uiso   1.00
C705   C     0.16564   0.49924   0.52351   0.00000  Uiso   1.00
C706   C     0.16769   0.50075   0.97649   0.00000  Uiso   1.00
C707   C     0.13883   0.45480   0.54699   0.00000  Uiso   1.00
C708   C     0.15140   0.40176   0.75116   0.00000  Uiso   1.00
C709   C     0.19450   0.54519   0.95301   0.00000  Uiso   1.00
C710   C     0.21694   0.58607   0.52465   0.00000  Uiso   1.00
C711   C     0.11638   0.41392   0.97534   0.00000  Uiso   1.00
C712   C     0.21922   0.58787   0.97789   0.00000  Uiso   1.00
C713   C     0.11411   0.41212   0.52211   0.00000  Uiso   1.00
C714   C     0.18998   0.65276   0.74820   0.00000  Uiso   1.00
C715   C     0.14335   0.34724   0.75180   0.00000  Uiso   1.00
C716   C     0.16766   0.50066   0.83628   0.00000  Uiso   1.00
C717   C     0.16568   0.49934   0.66372   0.00000  Uiso   1.00
C718   C     0.13822   0.45515   0.59435   0.00000  Uiso   1.00
H719   H     0.20832   0.57325   0.61267   0.00000  Uiso   1.00
H720   H     0.18795   0.60225   0.86048   0.00000  Uiso   1.00
H721   H     0.28572   0.63442   0.53952   0.00000  Uiso   1.00
H722   H     0.22190   0.66302   0.54213   0.00000  Uiso   1.00
H723   H     0.04758   0.36561   0.96047   0.00000  Uiso   1.00
H724   H     0.11139   0.33696   0.95790   0.00000  Uiso   1.00
H725   H     0.21818   0.65345   0.94003   0.00000  Uiso   1.00
H726   H     0.28299   0.62355   0.93660   0.00000  Uiso   1.00
H727   H     0.05033   0.37644   0.56341   0.00000  Uiso   1.00
H728   H     0.11515   0.34652   0.55997   0.00000  Uiso   1.00
H729   H     0.12499   0.42676   0.88733   0.00000  Uiso   1.00
H730   H     0.23400   0.33649   0.74477   0.00000  Uiso   1.00
H731   H     0.09933   0.66351   0.75523   0.00000  Uiso   1.00
H732   H     0.00457   0.46095   0.71608   0.00000  Uiso   1.00
H733   H     0.32876   0.53905   0.78392   0.00000  Uiso   1.00
H734   H     0.08006   0.42412   0.64216   0.00000  Uiso   1.00
H735   H     0.14544   0.39774   0.63952   0.00000  Uiso   1.00
H736   H     0.25331   0.57583   0.85786   0.00000  Uiso   1.00
N737   N     0.31678   0.48598   0.73783   0.00000  Uiso   1.00
N738   N     0.01656   0.51402   0.76217   0.00000  Uiso   1.00
N739   N     0.11374   0.41166   0.62049   0.00000  Uiso   1.00
N740   N     0.21964   0.58831   0.87952   0.00000  Uiso   1.00
N741   N     0.24191   0.62922   0.54968   0.00000  Uiso   1.00
N742   N     0.09140   0.37077   0.95032   0.00000  Uiso   1.00
N743   N     0.24747   0.63376   0.95741   0.00000  Uiso   1.00
N744   N     0.08585   0.36622   0.54259   0.00000  Uiso   1.00
O745   O     0.12975   0.57952   0.75299   0.00000  Uiso   1.00
O746   O     0.20358   0.42048   0.74702   0.00000  Uiso   1.00
O747   O     0.22613   0.57054   0.74519   0.00000  Uiso   1.00
O748   O     0.10720   0.42946   0.75482   0.00000  Uiso   1.00
O749   O     0.11847   0.50450   0.81998   0.00000  Uiso   1.00
O750   O     0.21486   0.49550   0.68003   0.00000  Uiso   1.00
O751   O     0.21485   0.49552   0.81218   0.00000  Uiso   1.00
O752   O     0.11848   0.50448   0.68783   0.00000  Uiso   1.00
Zn753  Zn    0.10231   0.50600   0.75521   0.00000  Uiso   1.00
Zn754  Zn    0.23102   0.49400   0.74479   0.00000  Uiso   1.00
C755   C     0.51527   0.59824   0.74884   0.00000  Uiso   1.00
C756   C     0.52845   0.54484   0.90565   0.00000  Uiso   1.00
C757   C     0.49694   0.49846   0.61625   0.00000  Uiso   1.00
C758   C     0.50306   0.50153   0.88375   0.00000  Uiso   1.00
C759   C     0.52262   0.54104   0.59350   0.00000  Uiso   1.00
C760   C     0.47736   0.45896   0.90650   0.00000  Uiso   1.00
C761   C     0.52394   0.54232   0.54718   0.00000  Uiso   1.00
C762   C     0.47605   0.45768   0.95282   0.00000  Uiso   1.00
C763   C     0.49897   0.49924   0.52351   0.00000  Uiso   1.00
C764   C     0.50102   0.50075   0.97649   0.00000  Uiso   1.00
C765   C     0.47217   0.45480   0.54699   0.00000  Uiso   1.00
C766   C     0.48473   0.40176   0.75116   0.00000  Uiso   1.00
C767   C     0.52783   0.54519   0.95301   0.00000  Uiso   1.00
C768   C     0.55028   0.58607   0.52465   0.00000  Uiso   1.00
C769   C     0.44972   0.41392   0.97534   0.00000  Uiso   1.00
C770   C     0.55255   0.58787   0.97789   0.00000  Uiso   1.00
C771   C     0.44745   0.41212   0.52211   0.00000  Uiso   1.00
C772   C     0.52331   0.65276   0.74820   0.00000  Uiso   1.00
C773   C     0.47669   0.34724   0.75180   0.00000  Uiso   1.00
C774   C     0.50099   0.50066   0.83628   0.00000  Uiso   1.00
C775   C     0.49901   0.49934   0.66372   0.00000  Uiso   1.00
C776   C     0.47156   0.45515   0.59435   0.00000  Uiso   1.00
H777   H     0.54166   0.57325   0.61267   0.00000  Uiso   1.00
H778   H     0.52129   0.60225   0.86048   0.00000  Uiso   1.00
H779   H     0.61905   0.63442   0.53952   0.00000  Uiso   1.00
H780   H     0.55523   0.66302   0.54213   0.00000  Uiso   1.00
H781   H     0.38092   0.36561   0.96047   0.00000  Uiso   1.00
H782   H     0.44472   0.33696   0.95790   0.00000  Uiso   1.00
H783   H     0.55151   0.65345   0.94003   0.00000  Uiso   1.00
H784   H     0.61632   0.62355   0.93660   0.00000  Uiso   1.00
H785   H     0.38367   0.37644   0.56341   0.00000  Uiso   1.00
H786   H     0.44848   0.34652   0.55997   0.00000  Uiso   1.00
H787   H     0.45832   0.42676   0.88733   0.00000  Uiso   1.00
H788   H     0.56734   0.33649   0.74477   0.00000  Uiso   1.00
H789   H     0.43266   0.66351   0.75523   0.00000  Uiso   1.00
H790   H     0.33790   0.46095   0.71608   0.00000  Uiso   1.00
H791   H     0.66210   0.53905   0.78392   0.00000  Uiso   1.00
H792   H     0.41339   0.42412   0.64216   0.00000  Uiso   1.00
H793   H     0.47878   0.39774   0.63952   0.00000  Uiso   1.00
H794   H     0.58665   0.57583   0.85786   0.00000  Uiso   1.00
N795   N     0.65011   0.48598   0.73783   0.00000  Uiso   1.00
N796   N     0.34989   0.51402   0.76217   0.00000  Uiso   1.00
N797   N     0.44707   0.41166   0.62049   0.00000  Uiso   1.00
N798   N     0.55297   0.58831   0.87952   0.00000  Uiso   1.00
N799   N     0.57525   0.62922   0.54968   0.00000  Uiso   1.00
N800   N     0.42474   0.37077   0.95032   0.00000  Uiso   1.00
N801   N     0.58080   0.63376   0.95741   0.00000  Uiso   1.00
N802   N     0.41919   0.36622   0.54259   0.00000  Uiso   1.00
O803   O     0.46308   0.57952   0.75299   0.00000  Uiso   1.00
O804   O     0.53692   0.42048   0.74702   0.00000  Uiso   1.00
O805   O     0.55946   0.57054   0.74519   0.00000  Uiso   1.00
O806   O     0.44054   0.42946   0.75482   0.00000  Uiso   1.00
O807   O     0.45181   0.50450   0.81998   0.00000  Uiso   1.00
O808   O     0.54819   0.49550   0.68003   0.00000  Uiso   1.00
O809   O     0.54819   0.49552   0.81218   0.00000  Uiso   1.00
O810   O     0.45181   0.50448   0.68783   0.00000  Uiso   1.00
Zn811  Zn    0.43565   0.50600   0.75521   0.00000  Uiso   1.00
Zn812  Zn    0.56435   0.49400   0.74479   0.00000  Uiso   1.00
C813   C     0.84860   0.59824   0.74884   0.00000  Uiso   1.00
C814   C     0.86179   0.54484   0.90565   0.00000  Uiso   1.00
C815   C     0.83027   0.49846   0.61625   0.00000  Uiso   1.00
C816   C     0.83639   0.50153   0.88375   0.00000  Uiso   1.00
C817   C     0.85595   0.54104   0.59350   0.00000  Uiso   1.00
C818   C     0.81070   0.45896   0.90650   0.00000  Uiso   1.00
C819   C     0.85727   0.54232   0.54718   0.00000  Uiso   1.00
C820   C     0.80938   0.45768   0.95282   0.00000  Uiso   1.00
C821   C     0.83230   0.49924   0.52351   0.00000  Uiso   1.00
C822   C     0.83436   0.50075   0.97649   0.00000  Uiso   1.00
C823   C     0.80550   0.45480   0.54699   0.00000  Uiso   1.00
C824   C     0.81806   0.40176   0.75116   0.00000  Uiso   1.00
C825   C     0.86117   0.54519   0.95301   0.00000  Uiso   1.00
C826   C     0.88361   0.58607   0.52465   0.00000  Uiso   1.00
C827   C     0.78305   0.41392   0.97534   0.00000  Uiso   1.00
C828   C     0.88588   0.58787   0.97789   0.00000  Uiso   1.00
C829   C     0.78078   0.41212   0.52211   0.00000  Uiso   1.00
C830   C     0.85665   0.65276   0.74820   0.00000  Uiso   1.00
C831   C     0.81002   0.34724   0.75180   0.00000  Uiso   1.00
C832   C     0.83433   0.50066   0.83628   0.00000  Uiso   1.00
C833   C     0.83234   0.49934   0.66372   0.00000  Uiso   1.00
C834   C     0.80489   0.45515   0.59435   0.00000  Uiso   1.00
H835   H     0.87499   0.57325   0.61267   0.00000  Uiso   1.00
H836   H     0.85462   0.60225   0.86048   0.00000  Uiso   1.00
H837   H     0.95239   0.63442   0.53952   0.00000  Uiso   1.00
H838   H     0.88856   0.66302   0.54213   0.00000  Uiso   1.00
H839   H     0.71425   0.36561   0.96047   0.00000  Uiso   1.00
H840   H     0.77806   0.33696   0.95790   0.00000  Uiso   1.00
H841   H     0.88484   0.65345   0.94003   0.00000  Uiso   1.00
H842   H     0.94966   0.62355   0.93660   0.00000  Uiso   1.00
H843   H     0.71700   0.37644   0.56341   0.00000  Uiso   1.00
H844   H     0.78182   0.34652   0.55997   0.00000  Uiso   1.00
H845   H     0.79166   0.42676   0.88733   0.00000  Uiso   1.00
H846   H     0.90067   0.33649   0.74477   0.00000  Uiso   1.00
H847   H     0.76600   0.66351   0.75523   0.00000  Uiso   1.00
H848   H     0.67124   0.46095   0.71608   0.00000  Uiso   1.00
H849   H     0.99543   0.53905   0.78392   0.00000  Uiso   1.00
H850   H     0.74673   0.42412   0.64216   0.00000  Uiso   1.00
H851   H     0.81211   0.39774   0.63952   0.00000  Uiso   1.00
H852   H     0.91998   0.57583   0.85786   0.00000  Uiso   1.00
N853   N     0.98344   0.48598   0.73783   0.00000  Uiso   1.00
N854   N     0.68322   0.51402   0.76217   0.00000  Uiso   1.00
N855   N     0.78040   0.41166   0.62049   0.00000  Uiso   1.00
N856   N     0.88631   0.58831   0.87952   0.00000  Uiso   1.00
N857   N     0.90858   0.62922   0.54968   0.00000  Uiso   1.00
N858   N     0.75807   0.37077   0.95032   0.00000  Uiso   1.00
N859   N     0.91413   0.63376   0.95741   0.00000  Uiso   1.00
N860   N     0.75252   0.36622   0.54259   0.00000  Uiso   1.00
O861   O     0.79642   0.57952   0.75299   0.00000  Uiso   1.00
O862   O     0.87025   0.42048   0.74702   0.00000  Uiso   1.00
O863   O     0.89280   0.57054   0.74519   0.00000  Uiso   1.00
O864   O     0.77387   0.42946   0.75482   0.00000  Uiso   1.00
O865   O     0.78514   0.50450   0.81998   0.00000  Uiso   1.00
O866   O     0.88153   0.49550   0.68003   0.00000  Uiso   1.00
O867   O     0.88152   0.49552   0.81218   0.00000  Uiso   1.00
O868   O     0.78515   0.50448   0.68783   0.00000  Uiso   1.00
Zn869  Zn    0.76898   0.50600   0.75521   0.00000  Uiso   1.00
Zn870  Zn    0.89769   0.49400   0.74479   0.00000  Uiso   1.00
C871   C     0.18194   0.93157   0.74884   0.00000  Uiso   1.00
C872   C     0.19512   0.87817   0.90565   0.00000  Uiso   1.00
C873   C     0.16361   0.83179   0.61625   0.00000  Uiso   1.00
C874   C     0.16972   0.83487   0.88375   0.00000  Uiso   1.00
C875   C     0.18929   0.87437   0.59350   0.00000  Uiso   1.00
C876   C     0.14403   0.79230   0.90650   0.00000  Uiso   1.00
C877   C     0.19061   0.87565   0.54718   0.00000  Uiso   1.00
C878   C     0.14271   0.79101   0.95282   0.00000  Uiso   1.00
C879   C     0.16564   0.83258   0.52351   0.00000  Uiso   1.00
C880   C     0.16769   0.83408   0.97649   0.00000  Uiso   1.00
C881   C     0.13883   0.78813   0.54699   0.00000  Uiso   1.00
C882   C     0.15140   0.73510   0.75116   0.00000  Uiso   1.00
C883   C     0.19450   0.87852   0.95301   0.00000  Uiso   1.00
C884   C     0.21694   0.91940   0.52465   0.00000  Uiso   1.00
C885   C     0.11638   0.74726   0.97534   0.00000  Uiso   1.00
C886   C     0.21922   0.92120   0.97789   0.00000  Uiso   1.00
C887   C     0.11411   0.74545   0.52211   0.00000  Uiso   1.00
C888   C     0.18998   0.98609   0.74820   0.00000  Uiso   1.00
C889   C     0.14335   0.68057   0.75180   0.00000  Uiso   1.00
C890   C     0.16766   0.83399   0.83628   0.00000  Uiso   1.00
C891   C     0.16568   0.83267   0.66372   0.00000  Uiso   1.00
C892   C     0.13822   0.78848   0.59435   0.00000  Uiso   1.00
H893   H     0.20832   0.90658   0.61267   0.00000  Uiso   1.00
H894   H     0.18795   0.93558   0.86048   0.00000  Uiso   1.00
H895   H     0.28572   0.96775   0.53952   0.00000  Uiso   1.00
H896   H     0.22190   0.99635   0.54213   0.00000  Uiso   1.00
H897   H     0.04758   0.69894   0.96047   0.00000  Uiso   1.00
H898   H     0.11139   0.67029   0.95790   0.00000  Uiso   1.00
H899   H     0.21818   0.98678   0.94003   0.00000  Uiso   1.00
H900   H     0.28299   0.95688   0.93660   0.00000  Uiso   1.00
H901   H     0.05033   0.70978   0.56341   0.00000  Uiso   1.00
H902   H     0.11515   0.67985   0.55997   0.00000  Uiso   1.00
H903   H     0.12499   0.76009   0.88733   0.00000  Uiso   1.00
H904   H     0.23400   0.66982   0.74477   0.00000  Uiso   1.00
H905   H     0.09933   0.99684   0.75523   0.00000  Uiso   1.00
H906   H     0.00457   0.79428   0.71608   0.00000  Uiso   1.00
H907   H     0.32876   0.87238   0.78392   0.00000  Uiso   1.00
H908   H     0.08006   0.75745   0.64216   0.00000  Uiso   1.00
H909   H     0.14544   0.73107   0.63952   0.00000  Uiso   1.00
H910   H     0.25331   0.90917   0.85786   0.00000  Uiso   1.00
N911   N     0.31678   0.81932   0.73783   0.00000  Uiso   1.00
N912   N     0.01656   0.84735   0.76217   0.00000  Uiso   1.00
N913   N     0.11374   0.74499   0.62049   0.00000  Uiso   1.00
N914   N     0.21964   0.92164   0.87952   0.00000  Uiso   1.00
N915   N     0.24191   0.96255   0.54968   0.00000  Uiso   1.00
N916   N     0.09140   0.70411   0.95032   0.00000  Uiso   1.00
N917   N     0.24747   0.96710   0.95741   0.00000  Uiso   1.00
N918   N     0.08585   0.69955   0.54259   0.00000  Uiso   1.00
O919   O     0.12975   0.91286   0.75299   0.00000  Uiso   1.00
O920   O     0.20358   0.75381   0.74702   0.00000  Uiso   1.00
O921   O     0.22613   0.90387   0.74519   0.00000  Uiso   1.00
O922   O     0.10720   0.76279   0.75482   0.00000  Uiso   1.00
O923   O     0.11847   0.83784   0.81998   0.00000  Uiso   1.00
O924   O     0.21486   0.82883   0.68003   0.00000  Uiso   1.00
O925   O     0.21485   0.82885   0.81218   0.00000  Uiso   1.00
O926   O     0.11848   0.83781   0.68783   0.00000  Uiso   1.00
Zn927  Zn    0.10231   0.83933   0.75521   0.00000  Uiso   1.00
Zn928  Zn    0.23102   0.82734   0.74479   0.00000  Uiso   1.00
C929   C     0.51527   0.93157   0.74884   0.00000  Uiso   1.00
C930   C     0.52845   0.87817   0.90565   0.00000  Uiso   1.00
C931   C     0.49694   0.83179   0.61625   0.00000  Uiso   1.00
C932   C     0.50306   0.83487   0.88375   0.00000  Uiso   1.00
C933   C     0.52262   0.87437   0.59350   0.00000  Uiso   1.00
C934   C     0.47736   0.79230   0.90650   0.00000  Uiso   1.00
C935   C     0.52394   0.87565   0.54718   0.00000  Uiso   1.00
C936   C     0.47605   0.79101   0.95282   0.00000  Uiso   1.00
C937   C     0.49897   0.83258   0.52351   0.00000  Uiso   1.00
C938   C     0.50102   0.83408   0.97649   0.00000  Uiso   1.00
C939   C     0.47217   0.78813   0.54699   0.00000  Uiso   1.00
C940   C     0.48473   0.73510   0.75116   0.00000  Uiso   1.00
C941   C     0.52783   0.87852   0.95301   0.00000  Uiso   1.00
C942   C     0.55028   0.91940   0.52465   0.00000  Uiso   1.00
C943   C     0.44972   0.74726   0.97534   0.00000  Uiso   1.00
C944   C     0.55255   0.92120   0.97789   0.00000  Uiso   1.00
C945   C     0.44745   0.74545   0.52211   0.00000  Uiso   1.00
C946   C     0.52331   0.98609   0.74820   0.00000  Uiso   1.00
C947   C     0.47669   0.68057   0.75180   0.00000  Uiso   1.00
C948   C     0.50099   0.83399   0.83628   0.00000  Uiso   1.00
C949   C     0.49901   0.83267   0.66372   0.00000  Uiso   1.00
C950   C     0.47156   0.78848   0.59435   0.00000  Uiso   1.00
H951   H     0.54166   0.90658   0.61267   0.00000  Uiso   1.00
H952   H     0.52129   0.93558   0.86048   0.00000  Uiso   1.00
H953   H     0.61905   0.96775   0.53952   0.00000  Uiso   1.00
H954   H     0.55523   0.99635   0.54213   0.00000  Uiso   1.00
H955   H     0.38092   0.69894   0.96047   0.00000  Uiso   1.00
H956   H     0.44472   0.67029   0.95790   0.00000  Uiso   1.00
H957   H     0.55151   0.98678   0.94003   0.00000  Uiso   1.00
H958   H     0.61632   0.95688   0.93660   0.00000  Uiso   1.00
H959   H     0.38367   0.70978   0.56341   0.00000  Uiso   1.00
H960   H     0.44848   0.67985   0.55997   0.00000  Uiso   1.00
H961   H     0.45832   0.76009   0.88733   0.00000  Uiso   1.00
H962   H     0.56734   0.66982   0.74477   0.00000  Uiso   1.00
H963   H     0.43266   0.99684   0.75523   0.00000  Uiso   1.00
H964   H     0.33790   0.79428   0.71608   0.00000  Uiso   1.00
H965   H     0.66210   0.87238   0.78392   0.00000  Uiso   1.00
H966   H     0.41339   0.75745   0.64216   0.00000  Uiso   1.00
H967   H     0.47878   0.73107   0.63952   0.00000  Uiso   1.00
H968   H     0.58665   0.90917   0.85786   0.00000  Uiso   1.00
N969   N     0.65011   0.81932   0.73783   0.00000  Uiso   1.00
N970   N     0.34989   0.84735   0.76217   0.00000  Uiso   1.00
N971   N     0.44707   0.74499   0.62049   0.00000  Uiso   1.00
N972   N     0.55297   0.92164   0.87952   0.00000  Uiso   1.00
N973   N     0.57525   0.96255   0.54968   0.00000  Uiso   1.00
N974   N     0.42474   0.70411   0.95032   0.00000  Uiso   1.00
N975   N     0.58080   0.96710   0.95741   0.00000  Uiso   1.00
N976   N     0.41919   0.69955   0.54259   0.00000  Uiso   1.00
O977   O     0.46308   0.91286   0.75299   0.00000  Uiso   1.00
O978   O     0.53692   0.75381   0.74702   0.00000  Uiso   1.00
O979   O     0.55946   0.90387   0.74519   0.00000  Uiso   1.00
O980   O     0.44054   0.76279   0.75482   0.00000  Uiso   1.00
O981   O     0.45181   0.83784   0.81998   0.00000  Uiso   1.00
O982   O     0.54819   0.82883   0.68003   0.00000  Uiso   1.00
O983   O     0.54819   0.82885   0.81218   0.00000  Uiso   1.00
O984   O     0.45181   0.83781   0.68783   0.00000  Uiso   1.00
Zn985  Zn    0.43565   0.83933   0.75521   0.00000  Uiso   1.00
Zn986  Zn    0.56435   0.82734   0.74479   0.00000  Uiso   1.00
C987   C     0.84860   0.93157   0.74884   0.00000  Uiso   1.00
C988   C     0.86179   0.87817   0.90565   0.00000  Uiso   1.00
C989   C     0.83027   0.83179   0.61625   0.00000  Uiso   1.00
C990   C     0.83639   0.83487   0.88375   0.00000  Uiso   1.00
C991   C     0.85595   0.87437   0.59350   0.00000  Uiso   1.00
C992   C     0.81070   0.79230   0.90650   0.00000  Uiso   1.00
C993   C     0.85727   0.87565   0.54718   0.00000  Uiso   1.00
C994   C     0.80938   0.79101   0.95282   0.00000  Uiso   1.00
C995   C     0.83230   0.83258   0.52351   0.00000  Uiso   1.00
C996   C     0.83436   0.83408   0.97649   0.00000  Uiso   1.00
C997   C     0.80550   0.78813   0.54699   0.00000  Uiso   1.00
C998   C     0.81806   0.73510   0.75116   0.00000  Uiso   1.00
C999   C     0.86117   0.87852   0.95301   0.00000  Uiso   1.00
C1000  C     0.88361   0.91940   0.52465   0.00000  Uiso   1.00
C1001  C     0.78305   0.74726   0.97534   0.00000  Uiso   1.00
C1002  C     0.88588   0.92120   0.97789   0.00000  Uiso   1.00
C1003  C     0.78078   0.74545   0.52211   0.00000  Uiso   1.00
C1004  C     0.85665   0.98609   0.74820   0.00000  Uiso   1.00
C1005  C     0.81002   0.68057   0.75180   0.00000  Uiso   1.00
C1006  C     0.83433   0.83399   0.83628   0.00000  Uiso   1.00
C1007  C     0.83234   0.83267   0.66372   0.00000  Uiso   1.00
C1008  C     0.80489   0.78848   0.59435   0.00000  Uiso   1.00
H1009  H     0.87499   0.90658   0.61267   0.00000  Uiso   1.00
H1010  H     0.85462   0.93558   0.86048   0.00000  Uiso   1.00
H1011  H     0.95239   0.96775   0.53952   0.00000  Uiso   1.00
H1012  H     0.88856   0.99635   0.54213   0.00000  Uiso   1.00
H1013  H     0.71425   0.69894   0.96047   0.00000  Uiso   1.00
H1014  H     0.77806   0.67029   0.95790   0.00000  Uiso   1.00
H1015  H     0.88484   0.98678   0.94003   0.00000  Uiso   1.00
H1016  H     0.94966   0.95688   0.93660   0.00000  Uiso   1.00
H1017  H     0.71700   0.70978   0.56341   0.00000  Uiso   1.00
H1018  H     0.78182   0.67985   0.55997   0.00000  Uiso   1.00
H1019  H     0.79166   0.76009   0.88733   0.00000  Uiso   1.00
H1020  H     0.90067   0.66982   0.74477   0.00000  Uiso   1.00
H1021  H     0.76600   0.99684   0.75523   0.00000  Uiso   1.00
H1022  H     0.67124   0.79428   0.71608   0.00000  Uiso   1.00
H1023  H     0.99543   0.87238   0.78392   0.00000  Uiso   1.00
H1024  H     0.74673   0.75745   0.64216   0.00000  Uiso   1.00
H1025  H     0.81211   0.73107   0.63952   0.00000  Uiso   1.00
H1026  H     0.91998   0.90917   0.85786   0.00000  Uiso   1.00
N1027  N     0.98344   0.81932   0.73783   0.00000  Uiso   1.00
N1028  N     0.68322   0.84735   0.76217   0.00000  Uiso   1.00
N1029  N     0.78040   0.74499   0.62049   0.00000  Uiso   1.00
N1030  N     0.88631   0.92164   0.87952   0.00000  Uiso   1.00
N1031  N     0.90858   0.96255   0.54968   0.00000  Uiso   1.00
N1032  N     0.75807   0.70411   0.95032   0.00000  Uiso   1.00
N1033  N     0.91413   0.96710   0.95741   0.00000  Uiso   1.00
N1034  N     0.75252   0.69955   0.54259   0.00000  Uiso   1.00
O1035  O     0.79642   0.91286   0.75299   0.00000  Uiso   1.00
O1036  O     0.87025   0.75381   0.74702   0.00000  Uiso   1.00
O1037  O     0.89280   0.90387   0.74519   0.00000  Uiso   1.00
O1038  O     0.77387   0.76279   0.75482   0.00000  Uiso   1.00
O1039  O     0.78514   0.83784   0.81998   0.00000  Uiso   1.00
O1040  O     0.88153   0.82883   0.68003   0.00000  Uiso   1.00
O1041  O     0.88152   0.82885   0.81218   0.00000  Uiso   1.00
O1042  O     0.78515   0.83781   0.68783   0.00000  Uiso   1.00
Zn1043 Zn    0.76898   0.83933   0.75521   0.00000  Uiso   1.00
Zn1044 Zn    0.89769   0.82734   0.74479   0.00000  Uiso   1.00
loop_
_geom_bond_atom_site_label_1
_geom_bond_atom_site_label_2
_geom_bond_distance
_geom_bond_site_symmetry_2
_ccdc_geom_bond_type
C1     O51     1.286   .     A
C1     C18     1.400   .     S
C1     O49     1.277   .     A
C2     C4      1.398   .     A
C2     C13     1.412   .     A
C2     N44     1.437   .     S
C3     C21     1.420   .     S
C3     C22     1.398   .     A
C3     C5      1.377   .     A
C4     C6      1.377   .     A
C4     C20     1.420   .     S
C5     H23     1.085   .     S
C5     C7      1.381   .     A
C6     H33     1.085   .     S
C6     C8      1.381   .     A
C7     C9      1.416   .     A
C7     C14     1.403   .     A
C8     C15     1.403   .     A
C8     C10     1.416   .     A
C9     C11     1.434   .     A
C9     C532    1.401   1_554 S
C10    C13     1.434   .     A
C10    C531    1.401   .     S
C11    C22     1.412   .     A
C11    C17     1.425   .     A
C12    O50     1.277   .     A
C12    O52     1.286   .     A
C12    C19     1.400   .     S
C13    C16     1.425   .     A
C14    N45     1.439   .     S
C14    C538    1.394   1_554 S
C15    N46     1.439   .     S
C15    C539    1.394   .     S
C16    N47     1.436   .     S
C16    C536    1.394   .     S
C17    N48     1.436   .     S
C17    C537    1.394   1_554 S
C18    C193    1.335   .     S
C18    H208    1.088   .     S
C19    C366    1.335   1_545 S
C19    H383    1.088   1_545 S
C20    O55     1.285   .     A
C20    O53     1.285   .     A
C21    O56     1.285   .     A
C21    O54     1.285   .     A
C22    N43     1.437   .     S
H24    N44     1.046   .     S
H25    N45     1.046   .     S
H26    N45     1.046   .     S
H27    N46     1.046   .     S
H28    N46     1.046   .     S
H29    N47     1.045   .     S
H30    N47     1.045   .     S
H31    N48     1.045   .     S
H32    N48     1.045   .     S
H34    C366    1.088   1_545 S
H35    C193    1.088   .     S
H36    N157    1.029   1_455 S
H37    N100    1.029   .     S
H38    N43     1.045   .     S
H39    N43     1.046   .     S
H40    N44     1.045   .     S
N41    Zn58    2.018   .     S
N41    H94     1.029   .     S
N41    N100    1.276   .     S
N42    Zn57    2.018   .     S
N42    N157    1.276   1_455 S
N42    H153    1.029   1_455 S
O49    Zn57    1.953   .     S
O50    Zn58    1.953   .     S
O51    Zn58    1.974   .     S
O52    Zn57    1.974   .     S
O53    Zn57    1.995   .     S
O54    Zn58    1.995   .     S
O55    Zn58    2.020   .     S
O56    Zn57    2.020   .     S
C59    O109    1.286   .     A
C59    C76     1.400   .     S
C59    O107    1.277   .     A
C60    C62     1.398   .     A
C60    C71     1.412   .     A
C60    N102    1.437   .     S
C61    C79     1.420   .     S
C61    C80     1.398   .     A
C61    C63     1.377   .     A
C62    C64     1.377   .     A
C62    C78     1.420   .     S
C63    H81     1.085   .     S
C63    C65     1.381   .     A
C64    H91     1.085   .     S
C64    C66     1.381   .     A
C65    C67     1.416   .     A
C65    C72     1.403   .     A
C66    C73     1.403   .     A
C66    C68     1.416   .     A
C67    C69     1.434   .     A
C67    C590    1.401   1_554 S
C68    C71     1.434   .     A
C68    C589    1.401   .     S
C69    C80     1.412   .     A
C69    C75     1.425   .     A
C70    O108    1.277   .     A
C70    O110    1.286   .     A
C70    C77     1.400   .     S
C71    C74     1.425   .     A
C72    N103    1.439   .     S
C72    C596    1.394   1_554 S
C73    N104    1.439   .     S
C73    C597    1.394   .     S
C74    N105    1.436   .     S
C74    C594    1.394   .     S
C75    N106    1.436   .     S
C75    C595    1.394   1_554 S
C76    C251    1.335   .     S
C76    H266    1.088   .     S
C77    C424    1.335   1_545 S
C77    H441    1.088   1_545 S
C78    O113    1.285   .     A
C78    O111    1.285   .     A
C79    O114    1.285   .     A
C79    O112    1.285   .     A
C80    N101    1.437   .     S
H82    N102    1.046   .     S
H83    N103    1.046   .     S
H84    N103    1.046   .     S
H85    N104    1.046   .     S
H86    N104    1.046   .     S
H87    N105    1.045   .     S
H88    N105    1.045   .     S
H89    N106    1.045   .     S
H90    N106    1.045   .     S
H92    C424    1.088   1_545 S
H93    C251    1.088   .     S
H95    N158    1.029   .     S
H96    N101    1.045   .     S
H97    N101    1.046   .     S
H98    N102    1.045   .     S
N99    Zn116   2.018   .     S
N99    H152    1.029   .     S
N99    N158    1.276   .     S
N100   Zn115   2.018   .     S
O107   Zn115   1.953   .     S
O108   Zn116   1.953   .     S
O109   Zn116   1.974   .     S
O110   Zn115   1.974   .     S
O111   Zn115   1.995   .     S
O112   Zn116   1.995   .     S
O113   Zn116   2.020   .     S
O114   Zn115   2.020   .     S
C117   O167    1.286   .     A
C117   C134    1.400   .     S
C117   O165    1.277   .     A
C118   C120    1.398   .     A
C118   C129    1.412   .     A
C118   N160    1.437   .     S
C119   C137    1.420   .     S
C119   C138    1.398   .     A
C119   C121    1.377   .     A
C120   C122    1.377   .     A
C120   C136    1.420   .     S
C121   H139    1.085   .     S
C121   C123    1.381   .     A
C122   H149    1.085   .     S
C122   C124    1.381   .     A
C123   C125    1.416   .     A
C123   C130    1.403   .     A
C124   C131    1.403   .     A
C124   C126    1.416   .     A
C125   C127    1.434   .     A
C125   C648    1.401   1_554 S
C126   C129    1.434   .     A
C126   C647    1.401   .     S
C127   C138    1.412   .     A
C127   C133    1.425   .     A
C128   O166    1.277   .     A
C128   O168    1.286   .     A
C128   C135    1.400   .     S
C129   C132    1.425   .     A
C130   N161    1.439   .     S
C130   C654    1.394   1_554 S
C131   N162    1.439   .     S
C131   C655    1.394   .     S
C132   N163    1.436   .     S
C132   C652    1.394   .     S
C133   N164    1.436   .     S
C133   C653    1.394   1_554 S
C134   C309    1.335   .     S
C134   H324    1.088   .     S
C135   C482    1.335   1_545 S
C135   H499    1.088   1_545 S
C136   O171    1.285   .     A
C136   O169    1.285   .     A
C137   O172    1.285   .     A
C137   O170    1.285   .     A
C138   N159    1.437   .     S
H140   N160    1.046   .     S
H141   N161    1.046   .     S
H142   N161    1.046   .     S
H143   N162    1.046   .     S
H144   N162    1.046   .     S
H145   N163    1.045   .     S
H146   N163    1.045   .     S
H147   N164    1.045   .     S
H148   N164    1.045   .     S
H150   C482    1.088   1_545 S
H151   C309    1.088   .     S
H153   N42     1.029   1_655 S
H154   N159    1.045   .     S
H155   N159    1.046   .     S
H156   N160    1.045   .     S
N157   Zn174   2.018   .     S
N157   H36     1.029   1_655 S
N157   N42     1.276   1_655 S
N158   Zn173   2.018   .     S
O165   Zn173   1.953   .     S
O166   Zn174   1.953   .     S
O167   Zn174   1.974   .     S
O168   Zn173   1.974   .     S
O169   Zn173   1.995   .     S
O170   Zn174   1.995   .     S
O171   Zn174   2.020   .     S
O172   Zn173   2.020   .     S
C175   O225    1.286   .     A
C175   C192    1.400   .     S
C175   O223    1.277   .     A
C176   C178    1.398   .     A
C176   C187    1.412   .     A
C176   N218    1.437   .     S
C177   C195    1.420   .     S
C177   C196    1.398   .     A
C177   C179    1.377   .     A
C178   C180    1.377   .     A
C178   C194    1.420   .     S
C179   H197    1.085   .     S
C179   C181    1.381   .     A
C180   H207    1.085   .     S
C180   C182    1.381   .     A
C181   C183    1.416   .     A
C181   C188    1.403   .     A
C182   C189    1.403   .     A
C182   C184    1.416   .     A
C183   C185    1.434   .     A
C183   C706    1.401   1_554 S
C184   C187    1.434   .     A
C184   C705    1.401   .     S
C185   C196    1.412   .     A
C185   C191    1.425   .     A
C186   O224    1.277   .     A
C186   O226    1.286   .     A
C186   C193    1.400   .     S
C187   C190    1.425   .     A
C188   N219    1.439   .     S
C188   C712    1.394   1_554 S
C189   N220    1.439   .     S
C189   C713    1.394   .     S
C190   N221    1.436   .     S
C190   C710    1.394   .     S
C191   N222    1.436   .     S
C191   C711    1.394   1_554 S
C192   C367    1.335   .     S
C192   H382    1.088   .     S
C194   O229    1.285   .     A
C194   O227    1.285   .     A
C195   O230    1.285   .     A
C195   O228    1.285   .     A
C196   N217    1.437   .     S
H198   N218    1.046   .     S
H199   N219    1.046   .     S
H200   N219    1.046   .     S
H201   N220    1.046   .     S
H202   N220    1.046   .     S
H203   N221    1.045   .     S
H204   N221    1.045   .     S
H205   N222    1.045   .     S
H206   N222    1.045   .     S
H209   C367    1.088   .     S
H210   N331    1.029   1_455 S
H211   N274    1.029   .     S
H212   N217    1.045   .     S
H213   N217    1.046   .     S
H214   N218    1.045   .     S
N215   Zn232   2.018   .     S
N215   H268    1.029   .     S
N215   N274    1.276   .     S
N216   Zn231   2.018   .     S
N216   N331    1.276   1_455 S
N216   H327    1.029   1_455 S
O223   Zn231   1.953   .     S
O224   Zn232   1.953   .     S
O225   Zn232   1.974   .     S
O226   Zn231   1.974   .     S
O227   Zn231   1.995   .     S
O228   Zn232   1.995   .     S
O229   Zn232   2.020   .     S
O230   Zn231   2.020   .     S
C233   O283    1.286   .     A
C233   C250    1.400   .     S
C233   O281    1.277   .     A
C234   C236    1.398   .     A
C234   C245    1.412   .     A
C234   N276    1.437   .     S
C235   C253    1.420   .     S
C235   C254    1.398   .     A
C235   C237    1.377   .     A
C236   C238    1.377   .     A
C236   C252    1.420   .     S
C237   H255    1.085   .     S
C237   C239    1.381   .     A
C238   H265    1.085   .     S
C238   C240    1.381   .     A
C239   C241    1.416   .     A
C239   C246    1.403   .     A
C240   C247    1.403   .     A
C240   C242    1.416   .     A
C241   C243    1.434   .     A
C241   C764    1.401   1_554 S
C242   C245    1.434   .     A
C242   C763    1.401   .     S
C243   C254    1.412   .     A
C243   C249    1.425   .     A
C244   O282    1.277   .     A
C244   O284    1.286   .     A
C244   C251    1.400   .     S
C245   C248    1.425   .     A
C246   N277    1.439   .     S
C246   C770    1.394   1_554 S
C247   N278    1.439   .     S
C247   C771    1.394   .     S
C248   N279    1.436   .     S
C248   C768    1.394   .     S
C249   N280    1.436   .     S
C249   C769    1.394   1_554 S
C250   C425    1.335   .     S
C250   H440    1.088   .     S
C252   O287    1.285   .     A
C252   O285    1.285   .     A
C253   O288    1.285   .     A
C253   O286    1.285   .     A
C254   N275    1.437   .     S
H256   N276    1.046   .     S
H257   N277    1.046   .     S
H258   N277    1.046   .     S
H259   N278    1.046   .     S
H260   N278    1.046   .     S
H261   N279    1.045   .     S
H262   N279    1.045   .     S
H263   N280    1.045   .     S
H264   N280    1.045   .     S
H267   C425    1.088   .     S
H269   N332    1.029   .     S
H270   N275    1.045   .     S
H271   N275    1.046   .     S
H272   N276    1.045   .     S
N273   Zn290   2.018   .     S
N273   H326    1.029   .     S
N273   N332    1.276   .     S
N274   Zn289   2.018   .     S
O281   Zn289   1.953   .     S
O282   Zn290   1.953   .     S
O283   Zn290   1.974   .     S
O284   Zn289   1.974   .     S
O285   Zn289   1.995   .     S
O286   Zn290   1.995   .     S
O287   Zn290   2.020   .     S
O288   Zn289   2.020   .     S
C291   O341    1.286   .     A
C291   C308    1.400   .     S
C291   O339    1.277   .     A
C292   C294    1.398   .     A
C292   C303    1.412   .     A
C292   N334    1.437   .     S
C293   C311    1.420   .     S
C293   C312    1.398   .     A
C293   C295    1.377   .     A
C294   C296    1.377   .     A
C294   C310    1.420   .     S
C295   H313    1.085   .     S
C295   C297    1.381   .     A
C296   H323    1.085   .     S
C296   C298    1.381   .     A
C297   C299    1.416   .     A
C297   C304    1.403   .     A
C298   C305    1.403   .     A
C298   C300    1.416   .     A
C299   C301    1.434   .     A
C299   C822    1.401   1_554 S
C300   C303    1.434   .     A
C300   C821    1.401   .     S
C301   C312    1.412   .     A
C301   C307    1.425   .     A
C302   O340    1.277   .     A
C302   O342    1.286   .     A
C302   C309    1.400   .     S
C303   C306    1.425   .     A
C304   N335    1.439   .     S
C304   C828    1.394   1_554 S
C305   N336    1.439   .     S
C305   C829    1.394   .     S
C306   N337    1.436   .     S
C306   C826    1.394   .     S
C307   N338    1.436   .     S
C307   C827    1.394   1_554 S
C308   C483    1.335   .     S
C308   H498    1.088   .     S
C310   O345    1.285   .     A
C310   O343    1.285   .     A
C311   O346    1.285   .     A
C311   O344    1.285   .     A
C312   N333    1.437   .     S
H314   N334    1.046   .     S
H315   N335    1.046   .     S
H316   N335    1.046   .     S
H317   N336    1.046   .     S
H318   N336    1.046   .     S
H319   N337    1.045   .     S
H320   N337    1.045   .     S
H321   N338    1.045   .     S
H322   N338    1.045   .     S
H325   C483    1.088   .     S
H327   N216    1.029   1_655 S
H328   N333    1.045   .     S
H329   N333    1.046   .     S
H330   N334    1.045   .     S
N331   Zn348   2.018   .     S
N331   H210    1.029   1_655 S
N331   N216    1.276   1_655 S
N332   Zn347   2.018   .     S
O339   Zn347   1.953   .     S
O340   Zn348   1.953   .     S
O341   Zn348   1.974   .     S
O342   Zn347   1.974   .     S
O343   Zn347   1.995   .     S
O344   Zn348   1.995   .     S
O345   Zn348   2.020   .     S
O346   Zn347   2.020   .     S
C349   O399    1.286   .     A
C349   C366    1.400   .     S
C349   O397    1.277   .     A
C350   C352    1.398   .     A
C350   C361    1.412   .     A
C350   N392    1.437   .     S
C351   C369    1.420   .     S
C351   C370    1.398   .     A
C351   C353    1.377   .     A
C352   C354    1.377   .     A
C352   C368    1.420   .     S
C353   H371    1.085   .     S
C353   C355    1.381   .     A
C354   H381    1.085   .     S
C354   C356    1.381   .     A
C355   C357    1.416   .     A
C355   C362    1.403   .     A
C356   C363    1.403   .     A
C356   C358    1.416   .     A
C357   C359    1.434   .     A
C357   C880    1.401   1_554 S
C358   C361    1.434   .     A
C358   C879    1.401   .     S
C359   C370    1.412   .     A
C359   C365    1.425   .     A
C360   O398    1.277   .     A
C360   O400    1.286   .     A
C360   C367    1.400   .     S
C361   C364    1.425   .     A
C362   N393    1.439   .     S
C362   C886    1.394   1_554 S
C363   N394    1.439   .     S
C363   C887    1.394   .     S
C364   N395    1.436   .     S
C364   C884    1.394   .     S
C365   N396    1.436   .     S
C365   C885    1.394   1_554 S
C366   C19     1.335   1_565 S
C366   H34     1.088   1_565 S
C368   O403    1.285   .     A
C368   O401    1.285   .     A
C369   O404    1.285   .     A
C369   O402    1.285   .     A
C370   N391    1.437   .     S
H372   N392    1.046   .     S
H373   N393    1.046   .     S
H374   N393    1.046   .     S
H375   N394    1.046   .     S
H376   N394    1.046   .     S
H377   N395    1.045   .     S
H378   N395    1.045   .     S
H379   N396    1.045   .     S
H380   N396    1.045   .     S
H383   C19     1.088   1_565 S
H384   N505    1.029   1_455 S
H385   N448    1.029   .     S
H386   N391    1.045   .     S
H387   N391    1.046   .     S
H388   N392    1.045   .     S
N389   Zn406   2.018   .     S
N389   H442    1.029   .     S
N389   N448    1.276   .     S
N390   Zn405   2.018   .     S
N390   N505    1.276   1_455 S
N390   H501    1.029   1_455 S
O397   Zn405   1.953   .     S
O398   Zn406   1.953   .     S
O399   Zn406   1.974   .     S
O400   Zn405   1.974   .     S
O401   Zn405   1.995   .     S
O402   Zn406   1.995   .     S
O403   Zn406   2.020   .     S
O404   Zn405   2.020   .     S
C407   O457    1.286   .     A
C407   C424    1.400   .     S
C407   O455    1.277   .     A
C408   C410    1.398   .     A
C408   C419    1.412   .     A
C408   N450    1.437   .     S
C409   C427    1.420   .     S
C409   C428    1.398   .     A
C409   C411    1.377   .     A
C410   C412    1.377   .     A
C410   C426    1.420   .     S
C411   H429    1.085   .     S
C411   C413    1.381   .     A
C412   H439    1.085   .     S
C412   C414    1.381   .     A
C413   C415    1.416   .     A
C413   C420    1.403   .     A
C414   C421    1.403   .     A
C414   C416    1.416   .     A
C415   C417    1.434   .     A
C415   C938    1.401   1_554 S
C416   C419    1.434   .     A
C416   C937    1.401   .     S
C417   C428    1.412   .     A
C417   C423    1.425   .     A
C418   O456    1.277   .     A
C418   O458    1.286   .     A
C418   C425    1.400   .     S
C419   C422    1.425   .     A
C420   N451    1.439   .     S
C420   C944    1.394   1_554 S
C421   N452    1.439   .     S
C421   C945    1.394   .     S
C422   N453    1.436   .     S
C422   C942    1.394   .     S
C423   N454    1.436   .     S
C423   C943    1.394   1_554 S
C424   C77     1.335   1_565 S
C424   H92     1.088   1_565 S
C426   O461    1.285   .     A
C426   O459    1.285   .     A
C427   O462    1.285   .     A
C427   O460    1.285   .     A
C428   N449    1.437   .     S
H430   N450    1.046   .     S
H431   N451    1.046   .     S
H432   N451    1.046   .     S
H433   N452    1.046   .     S
H434   N452    1.046   .     S
H435   N453    1.045   .     S
H436   N453    1.045   .     S
H437   N454    1.045   .     S
H438   N454    1.045   .     S
H441   C77     1.088   1_565 S
H443   N506    1.029   .     S
H444   N449    1.045   .     S
H445   N449    1.046   .     S
H446   N450    1.045   .     S
N447   Zn464   2.018   .     S
N447   H500    1.029   .     S
N447   N506    1.276   .     S
N448   Zn463   2.018   .     S
O455   Zn463   1.953   .     S
O456   Zn464   1.953   .     S
O457   Zn464   1.974   .     S
O458   Zn463   1.974   .     S
O459   Zn463   1.995   .     S
O460   Zn464   1.995   .     S
O461   Zn464   2.020   .     S
O462   Zn463   2.020   .     S
C465   O515    1.286   .     A
C465   C482    1.400   .     S
C465   O513    1.277   .     A
C466   C468    1.398   .     A
C466   C477    1.412   .     A
C466   N508    1.437   .     S
C467   C485    1.420   .     S
C467   C486    1.398   .     A
C467   C469    1.377   .     A
C468   C470    1.377   .     A
C468   C484    1.420   .     S
C469   H487    1.085   .     S
C469   C471    1.381   .     A
C470   H497    1.085   .     S
C470   C472    1.381   .     A
C471   C473    1.416   .     A
C471   C478    1.403   .     A
C472   C479    1.403   .     A
C472   C474    1.416   .     A
C473   C475    1.434   .     A
C473   C996    1.401   1_554 S
C474   C477    1.434   .     A
C474   C995    1.401   .     S
C475   C486    1.412   .     A
C475   C481    1.425   .     A
C476   O514    1.277   .     A
C476   O516    1.286   .     A
C476   C483    1.400   .     S
C477   C480    1.425   .     A
C478   N509    1.439   .     S
C478   C1002   1.394   1_554 S
C479   N510    1.439   .     S
C479   C1003   1.394   .     S
C480   N511    1.436   .     S
C480   C1000   1.394   .     S
C481   N512    1.436   .     S
C481   C1001   1.394   1_554 S
C482   C135    1.335   1_565 S
C482   H150    1.088   1_565 S
C484   O519    1.285   .     A
C484   O517    1.285   .     A
C485   O520    1.285   .     A
C485   O518    1.285   .     A
C486   N507    1.437   .     S
H488   N508    1.046   .     S
H489   N509    1.046   .     S
H490   N509    1.046   .     S
H491   N510    1.046   .     S
H492   N510    1.046   .     S
H493   N511    1.045   .     S
H494   N511    1.045   .     S
H495   N512    1.045   .     S
H496   N512    1.045   .     S
H499   C135    1.088   1_565 S
H501   N390    1.029   1_655 S
H502   N507    1.045   .     S
H503   N507    1.046   .     S
H504   N508    1.045   .     S
N505   Zn522   2.018   .     S
N505   H384    1.029   1_655 S
N505   N390    1.276   1_655 S
N506   Zn521   2.018   .     S
O513   Zn521   1.953   .     S
O514   Zn522   1.953   .     S
O515   Zn522   1.974   .     S
O516   Zn521   1.974   .     S
O517   Zn521   1.995   .     S
O518   Zn522   1.995   .     S
O519   Zn522   2.020   .     S
O520   Zn521   2.020   .     S
C523   O573    1.286   .     A
C523   C540    1.400   .     S
C523   O571    1.277   .     A
C524   C526    1.398   .     A
C524   C535    1.412   .     A
C524   N566    1.437   .     S
C525   C543    1.420   .     S
C525   C544    1.398   .     A
C525   C527    1.377   .     A
C526   C528    1.377   .     A
C526   C542    1.420   .     S
C527   H545    1.085   .     S
C527   C529    1.381   .     A
C528   H555    1.085   .     S
C528   C530    1.381   .     A
C529   C531    1.416   .     A
C529   C536    1.403   .     A
C530   C537    1.403   .     A
C530   C532    1.416   .     A
C531   C533    1.434   .     A
C532   C535    1.434   .     A
C532   C9      1.401   1_556 S
C533   C544    1.412   .     A
C533   C539    1.425   .     A
C534   O572    1.277   .     A
C534   O574    1.286   .     A
C534   C541    1.400   .     S
C535   C538    1.425   .     A
C536   N567    1.439   .     S
C537   N568    1.439   .     S
C537   C17     1.394   1_556 S
C538   N569    1.436   .     S
C538   C14     1.394   1_556 S
C539   N570    1.436   .     S
C540   C715    1.335   .     S
C540   H730    1.088   .     S
C541   C888    1.335   1_545 S
C541   H905    1.088   1_545 S
C542   O577    1.285   .     A
C542   O575    1.285   .     A
C543   O578    1.285   .     A
C543   O576    1.285   .     A
C544   N565    1.437   .     S
H546   N566    1.046   .     S
H547   N567    1.046   .     S
H548   N567    1.046   .     S
H549   N568    1.046   .     S
H550   N568    1.046   .     S
H551   N569    1.045   .     S
H552   N569    1.045   .     S
H553   N570    1.045   .     S
H554   N570    1.045   .     S
H556   C888    1.088   1_545 S
H557   C715    1.088   .     S
H558   N679    1.029   1_455 S
H559   N622    1.029   .     S
H560   N565    1.045   .     S
H561   N565    1.046   .     S
H562   N566    1.045   .     S
N563   Zn580   2.018   .     S
N563   H616    1.029   .     S
N563   N622    1.276   .     S
N564   Zn579   2.018   .     S
N564   N679    1.276   1_455 S
N564   H675    1.029   1_455 S
O571   Zn579   1.953   .     S
O572   Zn580   1.953   .     S
O573   Zn580   1.974   .     S
O574   Zn579   1.974   .     S
O575   Zn579   1.995   .     S
O576   Zn580   1.995   .     S
O577   Zn580   2.020   .     S
O578   Zn579   2.020   .     S
C581   O631    1.286   .     A
C581   C598    1.400   .     S
C581   O629    1.277   .     A
C582   C584    1.398   .     A
C582   C593    1.412   .     A
C582   N624    1.437   .     S
C583   C601    1.420   .     S
C583   C602    1.398   .     A
C583   C585    1.377   .     A
C584   C586    1.377   .     A
C584   C600    1.420   .     S
C585   H603    1.085   .     S
C585   C587    1.381   .     A
C586   H613    1.085   .     S
C586   C588    1.381   .     A
C587   C589    1.416   .     A
C587   C594    1.403   .     A
C588   C595    1.403   .     A
C588   C590    1.416   .     A
C589   C591    1.434   .     A
C590   C593    1.434   .     A
C590   C67     1.401   1_556 S
C591   C602    1.412   .     A
C591   C597    1.425   .     A
C592   O630    1.277   .     A
C592   O632    1.286   .     A
C592   C599    1.400   .     S
C593   C596    1.425   .     A
C594   N625    1.439   .     S
C595   N626    1.439   .     S
C595   C75     1.394   1_556 S
C596   N627    1.436   .     S
C596   C72     1.394   1_556 S
C597   N628    1.436   .     S
C598   C773    1.335   .     S
C598   H788    1.088   .     S
C599   C946    1.335   1_545 S
C599   H963    1.088   1_545 S
C600   O635    1.285   .     A
C600   O633    1.285   .     A
C601   O636    1.285   .     A
C601   O634    1.285   .     A
C602   N623    1.437   .     S
H604   N624    1.046   .     S
H605   N625    1.046   .     S
H606   N625    1.046   .     S
H607   N626    1.046   .     S
H608   N626    1.046   .     S
H609   N627    1.045   .     S
H610   N627    1.045   .     S
H611   N628    1.045   .     S
H612   N628    1.045   .     S
H614   C946    1.088   1_545 S
H615   C773    1.088   .     S
H617   N680    1.029   .     S
H618   N623    1.045   .     S
H619   N623    1.046   .     S
H620   N624    1.045   .     S
N621   Zn638   2.018   .     S
N621   H674    1.029   .     S
N621   N680    1.276   .     S
N622   Zn637   2.018   .     S
O629   Zn637   1.953   .     S
O630   Zn638   1.953   .     S
O631   Zn638   1.974   .     S
O632   Zn637   1.974   .     S
O633   Zn637   1.995   .     S
O634   Zn638   1.995   .     S
O635   Zn638   2.020   .     S
O636   Zn637   2.020   .     S
C639   O689    1.286   .     A
C639   C656    1.400   .     S
C639   O687    1.277   .     A
C640   C642    1.398   .     A
C640   C651    1.412   .     A
C640   N682    1.437   .     S
C641   C659    1.420   .     S
C641   C660    1.398   .     A
C641   C643    1.377   .     A
C642   C644    1.377   .     A
C642   C658    1.420   .     S
C643   H661    1.085   .     S
C643   C645    1.381   .     A
C644   H671    1.085   .     S
C644   C646    1.381   .     A
C645   C647    1.416   .     A
C645   C652    1.403   .     A
C646   C653    1.403   .     A
C646   C648    1.416   .     A
C647   C649    1.434   .     A
C648   C651    1.434   .     A
C648   C125    1.401   1_556 S
C649   C660    1.412   .     A
C649   C655    1.425   .     A
C650   O688    1.277   .     A
C650   O690    1.286   .     A
C650   C657    1.400   .     S
C651   C654    1.425   .     A
C652   N683    1.439   .     S
C653   N684    1.439   .     S
C653   C133    1.394   1_556 S
C654   N685    1.436   .     S
C654   C130    1.394   1_556 S
C655   N686    1.436   .     S
C656   C831    1.335   .     S
C656   H846    1.088   .     S
C657   C1004   1.335   1_545 S
C657   H1021   1.088   1_545 S
C658   O693    1.285   .     A
C658   O691    1.285   .     A
C659   O694    1.285   .     A
C659   O692    1.285   .     A
C660   N681    1.437   .     S
H662   N682    1.046   .     S
H663   N683    1.046   .     S
H664   N683    1.046   .     S
H665   N684    1.046   .     S
H666   N684    1.046   .     S
H667   N685    1.045   .     S
H668   N685    1.045   .     S
H669   N686    1.045   .     S
H670   N686    1.045   .     S
H672   C1004   1.088   1_545 S
H673   C831    1.088   .     S
H675   N564    1.029   1_655 S
H676   N681    1.045   .     S
H677   N681    1.046   .     S
H678   N682    1.045   .     S
N679   Zn696   2.018   .     S
N679   H558    1.029   1_655 S
N679   N564    1.276   1_655 S
N680   Zn695   2.018   .     S
O687   Zn695   1.953   .     S
O688   Zn696   1.953   .     S
O689   Zn696   1.974   .     S
O690   Zn695   1.974   .     S
O691   Zn695   1.995   .     S
O692   Zn696   1.995   .     S
O693   Zn696   2.020   .     S
O694   Zn695   2.020   .     S
C697   O747    1.286   .     A
C697   C714    1.400   .     S
C697   O745    1.277   .     A
C698   C700    1.398   .     A
C698   C709    1.412   .     A
C698   N740    1.437   .     S
C699   C717    1.420   .     S
C699   C718    1.398   .     A
C699   C701    1.377   .     A
C700   C702    1.377   .     A
C700   C716    1.420   .     S
C701   H719    1.085   .     S
C701   C703    1.381   .     A
C702   H729    1.085   .     S
C702   C704    1.381   .     A
C703   C705    1.416   .     A
C703   C710    1.403   .     A
C704   C711    1.403   .     A
C704   C706    1.416   .     A
C705   C707    1.434   .     A
C706   C709    1.434   .     A
C706   C183    1.401   1_556 S
C707   C718    1.412   .     A
C707   C713    1.425   .     A
C708   O746    1.277   .     A
C708   O748    1.286   .     A
C708   C715    1.400   .     S
C709   C712    1.425   .     A
C710   N741    1.439   .     S
C711   N742    1.439   .     S
C711   C191    1.394   1_556 S
C712   N743    1.436   .     S
C712   C188    1.394   1_556 S
C713   N744    1.436   .     S
C714   C889    1.335   .     S
C714   H904    1.088   .     S
C716   O751    1.285   .     A
C716   O749    1.285   .     A
C717   O752    1.285   .     A
C717   O750    1.285   .     A
C718   N739    1.437   .     S
H720   N740    1.046   .     S
H721   N741    1.046   .     S
H722   N741    1.046   .     S
H723   N742    1.046   .     S
H724   N742    1.046   .     S
H725   N743    1.045   .     S
H726   N743    1.045   .     S
H727   N744    1.045   .     S
H728   N744    1.045   .     S
H731   C889    1.088   .     S
H732   N853    1.029   1_455 S
H733   N796    1.029   .     S
H734   N739    1.045   .     S
H735   N739    1.046   .     S
H736   N740    1.045   .     S
N737   Zn754   2.018   .     S
N737   H790    1.029   .     S
N737   N796    1.276   .     S
N738   Zn753   2.018   .     S
N738   N853    1.276   1_455 S
N738   H849    1.029   1_455 S
O745   Zn753   1.953   .     S
O746   Zn754   1.953   .     S
O747   Zn754   1.974   .     S
O748   Zn753   1.974   .     S
O749   Zn753   1.995   .     S
O750   Zn754   1.995   .     S
O751   Zn754   2.020   .     S
O752   Zn753   2.020   .     S
C755   O805    1.286   .     A
C755   C772    1.400   .     S
C755   O803    1.277   .     A
C756   C758    1.398   .     A
C756   C767    1.412   .     A
C756   N798    1.437   .     S
C757   C775    1.420   .     S
C757   C776    1.398   .     A
C757   C759    1.377   .     A
C758   C760    1.377   .     A
C758   C774    1.420   .     S
C759   H777    1.085   .     S
C759   C761    1.381   .     A
C760   H787    1.085   .     S
C760   C762    1.381   .     A
C761   C763    1.416   .     A
C761   C768    1.403   .     A
C762   C769    1.403   .     A
C762   C764    1.416   .     A
C763   C765    1.434   .     A
C764   C767    1.434   .     A
C764   C241    1.401   1_556 S
C765   C776    1.412   .     A
C765   C771    1.425   .     A
C766   O804    1.277   .     A
C766   O806    1.286   .     A
C766   C773    1.400   .     S
C767   C770    1.425   .     A
C768   N799    1.439   .     S
C769   N800    1.439   .     S
C769   C249    1.394   1_556 S
C770   N801    1.436   .     S
C770   C246    1.394   1_556 S
C771   N802    1.436   .     S
C772   C947    1.335   .     S
C772   H962    1.088   .     S
C774   O809    1.285   .     A
C774   O807    1.285   .     A
C775   O810    1.285   .     A
C775   O808    1.285   .     A
C776   N797    1.437   .     S
H778   N798    1.046   .     S
H779   N799    1.046   .     S
H780   N799    1.046   .     S
H781   N800    1.046   .     S
H782   N800    1.046   .     S
H783   N801    1.045   .     S
H784   N801    1.045   .     S
H785   N802    1.045   .     S
H786   N802    1.045   .     S
H789   C947    1.088   .     S
H791   N854    1.029   .     S
H792   N797    1.045   .     S
H793   N797    1.046   .     S
H794   N798    1.045   .     S
N795   Zn812   2.018   .     S
N795   H848    1.029   .     S
N795   N854    1.276   .     S
N796   Zn811   2.018   .     S
O803   Zn811   1.953   .     S
O804   Zn812   1.953   .     S
O805   Zn812   1.974   .     S
O806   Zn811   1.974   .     S
O807   Zn811   1.995   .     S
O808   Zn812   1.995   .     S
O809   Zn812   2.020   .     S
O810   Zn811   2.020   .     S
C813   O863    1.286   .     A
C813   C830    1.400   .     S
C813   O861    1.277   .     A
C814   C816    1.398   .     A
C814   C825    1.412   .     A
C814   N856    1.437   .     S
C815   C833    1.420   .     S
C815   C834    1.398   .     A
C815   C817    1.377   .     A
C816   C818    1.377   .     A
C816   C832    1.420   .     S
C817   H835    1.085   .     S
C817   C819    1.381   .     A
C818   H845    1.085   .     S
C818   C820    1.381   .     A
C819   C821    1.416   .     A
C819   C826    1.403   .     A
C820   C827    1.403   .     A
C820   C822    1.416   .     A
C821   C823    1.434   .     A
C822   C825    1.434   .     A
C822   C299    1.401   1_556 S
C823   C834    1.412   .     A
C823   C829    1.425   .     A
C824   O862    1.277   .     A
C824   O864    1.286   .     A
C824   C831    1.400   .     S
C825   C828    1.425   .     A
C826   N857    1.439   .     S
C827   N858    1.439   .     S
C827   C307    1.394   1_556 S
C828   N859    1.436   .     S
C828   C304    1.394   1_556 S
C829   N860    1.436   .     S
C830   C1005   1.335   .     S
C830   H1020   1.088   .     S
C832   O867    1.285   .     A
C832   O865    1.285   .     A
C833   O868    1.285   .     A
C833   O866    1.285   .     A
C834   N855    1.437   .     S
H836   N856    1.046   .     S
H837   N857    1.046   .     S
H838   N857    1.046   .     S
H839   N858    1.046   .     S
H840   N858    1.046   .     S
H841   N859    1.045   .     S
H842   N859    1.045   .     S
H843   N860    1.045   .     S
H844   N860    1.045   .     S
H847   C1005   1.088   .     S
H849   N738    1.029   1_655 S
H850   N855    1.045   .     S
H851   N855    1.046   .     S
H852   N856    1.045   .     S
N853   Zn870   2.018   .     S
N853   H732    1.029   1_655 S
N853   N738    1.276   1_655 S
N854   Zn869   2.018   .     S
O861   Zn869   1.953   .     S
O862   Zn870   1.953   .     S
O863   Zn870   1.974   .     S
O864   Zn869   1.974   .     S
O865   Zn869   1.995   .     S
O866   Zn870   1.995   .     S
O867   Zn870   2.020   .     S
O868   Zn869   2.020   .     S
C871   O921    1.286   .     A
C871   C888    1.400   .     S
C871   O919    1.277   .     A
C872   C874    1.398   .     A
C872   C883    1.412   .     A
C872   N914    1.437   .     S
C873   C891    1.420   .     S
C873   C892    1.398   .     A
C873   C875    1.377   .     A
C874   C876    1.377   .     A
C874   C890    1.420   .     S
C875   H893    1.085   .     S
C875   C877    1.381   .     A
C876   H903    1.085   .     S
C876   C878    1.381   .     A
C877   C879    1.416   .     A
C877   C884    1.403   .     A
C878   C885    1.403   .     A
C878   C880    1.416   .     A
C879   C881    1.434   .     A
C880   C883    1.434   .     A
C880   C357    1.401   1_556 S
C881   C892    1.412   .     A
C881   C887    1.425   .     A
C882   O920    1.277   .     A
C882   O922    1.286   .     A
C882   C889    1.400   .     S
C883   C886    1.425   .     A
C884   N915    1.439   .     S
C885   N916    1.439   .     S
C885   C365    1.394   1_556 S
C886   N917    1.436   .     S
C886   C362    1.394   1_556 S
C887   N918    1.436   .     S
C888   C541    1.335   1_565 S
C888   H556    1.088   1_565 S
C890   O925    1.285   .     A
C890   O923    1.285   .     A
C891   O926    1.285   .     A
C891   O924    1.285   .     A
C892   N913    1.437   .     S
H894   N914    1.046   .     S
H895   N915    1.046   .     S
H896   N915    1.046   .     S
H897   N916    1.046   .     S
H898   N916    1.046   .     S
H899   N917    1.045   .     S
H900   N917    1.045   .     S
H901   N918    1.045   .     S
H902   N918    1.045   .     S
H905   C541    1.088   1_565 S
H906   N1027   1.029   1_455 S
H907   N970    1.029   .     S
H908   N913    1.045   .     S
H909   N913    1.046   .     S
H910   N914    1.045   .     S
N911   Zn928   2.018   .     S
N911   H964    1.029   .     S
N911   N970    1.276   .     S
N912   Zn927   2.018   .     S
N912   N1027   1.276   1_455 S
N912   H1023   1.029   1_455 S
O919   Zn927   1.953   .     S
O920   Zn928   1.953   .     S
O921   Zn928   1.974   .     S
O922   Zn927   1.974   .     S
O923   Zn927   1.995   .     S
O924   Zn928   1.995   .     S
O925   Zn928   2.020   .     S
O926   Zn927   2.020   .     S
C929   O979    1.286   .     A
C929   C946    1.400   .     S
C929   O977    1.277   .     A
C930   C932    1.398   .     A
C930   C941    1.412   .     A
C930   N972    1.437   .     S
C931   C949    1.420   .     S
C931   C950    1.398   .     A
C931   C933    1.377   .     A
C932   C934    1.377   .     A
C932   C948    1.420   .     S
C933   H951    1.085   .     S
C933   C935    1.381   .     A
C934   H961    1.085   .     S
C934   C936    1.381   .     A
C935   C937    1.416   .     A
C935   C942    1.403   .     A
C936   C943    1.403   .     A
C936   C938    1.416   .     A
C937   C939    1.434   .     A
C938   C941    1.434   .     A
C938   C415    1.401   1_556 S
C939   C950    1.412   .     A
C939   C945    1.425   .     A
C940   O978    1.277   .     A
C940   O980    1.286   .     A
C940   C947    1.400   .     S
C941   C944    1.425   .     A
C942   N973    1.439   .     S
C943   N974    1.439   .     S
C943   C423    1.394   1_556 S
C944   N975    1.436   .     S
C944   C420    1.394   1_556 S
C945   N976    1.436   .     S
C946   C599    1.335   1_565 S
C946   H614    1.088   1_565 S
C948   O983    1.285   .     A
C948   O981    1.285   .     A
C949   O984    1.285   .     A
C949   O982    1.285   .     A
C950   N971    1.437   .     S
H952   N972    1.046   .     S
H953   N973    1.046   .     S
H954   N973    1.046   .     S
H955   N974    1.046   .     S
H956   N974    1.046   .     S
H957   N975    1.045   .     S
H958   N975    1.045   .     S
H959   N976    1.045   .     S
H960   N976    1.045   .     S
H963   C599    1.088   1_565 S
H965   N1028   1.029   .     S
H966   N971    1.045   .     S
H967   N971    1.046   .     S
H968   N972    1.045   .     S
N969   Zn986   2.018   .     S
N969   H1022   1.029   .     S
N969   N1028   1.276   .     S
N970   Zn985   2.018   .     S
O977   Zn985   1.953   .     S
O978   Zn986   1.953   .     S
O979   Zn986   1.974   .     S
O980   Zn985   1.974   .     S
O981   Zn985   1.995   .     S
O982   Zn986   1.995   .     S
O983   Zn986   2.020   .     S
O984   Zn985   2.020   .     S
C987   O1037   1.286   .     A
C987   C1004   1.400   .     S
C987   O1035   1.277   .     A
C988   C990    1.398   .     A
C988   C999    1.412   .     A
C988   N1030   1.437   .     S
C989   C1007   1.420   .     S
C989   C1008   1.398   .     A
C989   C991    1.377   .     A
C990   C992    1.377   .     A
C990   C1006   1.420   .     S
C991   H1009   1.085   .     S
C991   C993    1.381   .     A
C992   H1019   1.085   .     S
C992   C994    1.381   .     A
C993   C995    1.416   .     A
C993   C1000   1.403   .     A
C994   C1001   1.403   .     A
C994   C996    1.416   .     A
C995   C997    1.434   .     A
C996   C999    1.434   .     A
C996   C473    1.401   1_556 S
C997   C1008   1.412   .     A
C997   C1003   1.425   .     A
C998   O1036   1.277   .     A
C998   O1038   1.286   .     A
C998   C1005   1.400   .     S
C999   C1002   1.425   .     A
C1000  N1031   1.439   .     S
C1001  N1032   1.439   .     S
C1001  C481    1.394   1_556 S
C1002  N1033   1.436   .     S
C1002  C478    1.394   1_556 S
C1003  N1034   1.436   .     S
C1004  C657    1.335   1_565 S
C1004  H672    1.088   1_565 S
C1006  O1041   1.285   .     A
C1006  O1039   1.285   .     A
C1007  O1042   1.285   .     A
C1007  O1040   1.285   .     A
C1008  N1029   1.437   .     S
H1010  N1030   1.046   .     S
H1011  N1031   1.046   .     S
H1012  N1031   1.046   .     S
H1013  N1032   1.046   .     S
H1014  N1032   1.046   .     S
H1015  N1033   1.045   .     S
H1016  N1033   1.045   .     S
H1017  N1034   1.045   .     S
H1018  N1034   1.045   .     S
H1021  C657    1.088   1_565 S
H1023  N912    1.029   1_655 S
H1024  N1029   1.045   .     S
H1025  N1029   1.046   .     S
H1026  N1030   1.045   .     S
N1027  Zn1044  2.018   .     S
N1027  H906    1.029   1_655 S
N1027  N912    1.276   1_655 S
N1028  Zn1043  2.018   .     S
O1035  Zn1043  1.953   .     S
O1036  Zn1044  1.953   .     S
O1037  Zn1044  1.974   .     S
O1038  Zn1043  1.974   .     S
O1039  Zn1043  1.995   .     S
O1040  Zn1044  1.995   .     S
O1041  Zn1044  2.020   .     S
O1042  Zn1043  2.020   .     S
