data_str_m3_o2_o5_pcu_sym.103
_audit_creation_date              2020-01-03
_audit_creation_method            'Materials Studio'
_symmetry_space_group_name_H-M    'P1'
_symmetry_Int_Tables_number       1
_symmetry_cell_setting            triclinic
loop_
_symmetry_equiv_pos_as_xyz
  x,y,z
_cell_length_a                    30.0459
_cell_length_b                    28.8389
_cell_length_c                    26.9165
_cell_angle_alpha                 90.0001
_cell_angle_beta                  95.2707
_cell_angle_gamma                 90.0000
loop_
_atom_site_label
_atom_site_type_symbol
_atom_site_fract_x
_atom_site_fract_y
_atom_site_fract_z
_atom_site_U_iso_or_equiv
_atom_site_adp_type
_atom_site_occupancy
C1     C     0.16412   0.25001   0.16711   0.00000  Uiso   1.00
C2     C     0.23016   0.44794   0.12669   0.00000  Uiso   1.00
C3     C     0.24984   0.24999   0.07298   0.00000  Uiso   1.00
C4     C     0.25016   0.24999   0.26036   0.00000  Uiso   1.00
C5     C     0.25000   0.02661   0.16667   0.00000  Uiso   1.00
C6     C     0.25000   0.47368   0.16667   0.00000  Uiso   1.00
C7     C     0.24995   0.24996   0.02177   0.00000  Uiso   1.00
C8     C     0.25005   0.24996   0.31156   0.00000  Uiso   1.00
C9     C     0.04862   0.29032   0.18253   0.00000  Uiso   1.00
C10    C     0.45414   0.21095   0.18147   0.00000  Uiso   1.00
C11    C     0.45138   0.29032   0.15081   0.00000  Uiso   1.00
C12    C     0.33588   0.25001   0.16623   0.00000  Uiso   1.00
C13    C     0.04586   0.21095   0.15187   0.00000  Uiso   1.00
C14    C     0.09459   0.29015   0.18241   0.00000  Uiso   1.00
C15    C     0.40819   0.21029   0.18003   0.00000  Uiso   1.00
C16    C     0.40541   0.29015   0.15093   0.00000  Uiso   1.00
C17    C     0.09181   0.21029   0.15331   0.00000  Uiso   1.00
C18    C     0.11623   0.25011   0.16771   0.00000  Uiso   1.00
C19    C     0.38377   0.25011   0.16562   0.00000  Uiso   1.00
C20    C     0.02412   0.25082   0.16682   0.00000  Uiso   1.00
C21    C     0.47588   0.25082   0.16651   0.00000  Uiso   1.00
C22    C     0.22284   0.10119   0.13159   0.00000  Uiso   1.00
C23    C     0.27257   0.39907   0.20534   0.00000  Uiso   1.00
C24    C     0.27716   0.10119   0.20174   0.00000  Uiso   1.00
C25    C     0.22743   0.39907   0.12799   0.00000  Uiso   1.00
C26    C     0.22090   0.05233   0.13385   0.00000  Uiso   1.00
C27    C     0.26984   0.44794   0.20665   0.00000  Uiso   1.00
C28    C     0.27910   0.05233   0.19948   0.00000  Uiso   1.00
H29    H     0.03235   0.32106   0.19524   0.00000  Uiso   1.00
H30    H     0.28342   0.46572   0.23982   0.00000  Uiso   1.00
H31    H     0.30280   0.03446   0.22508   0.00000  Uiso   1.00
H32    H     0.21658   0.46572   0.09351   0.00000  Uiso   1.00
H33    H     0.15842   0.18534   0.04854   0.00000  Uiso   1.00
H34    H     0.34609   0.31598   0.27926   0.00000  Uiso   1.00
H35    H     0.34159   0.18534   0.28480   0.00000  Uiso   1.00
H36    H     0.15389   0.31599   0.05408   0.00000  Uiso   1.00
H37    H     0.47260   0.18037   0.19450   0.00000  Uiso   1.00
H38    H     0.46765   0.32106   0.13809   0.00000  Uiso   1.00
H39    H     0.02740   0.18037   0.13884   0.00000  Uiso   1.00
H40    H     0.11316   0.32100   0.19439   0.00000  Uiso   1.00
H41    H     0.39207   0.17879   0.19076   0.00000  Uiso   1.00
H42    H     0.38684   0.32100   0.13894   0.00000  Uiso   1.00
H43    H     0.10793   0.17879   0.14258   0.00000  Uiso   1.00
H44    H     0.19720   0.03446   0.10825   0.00000  Uiso   1.00
N45    N     0.25000   0.12624   0.16667   0.00000  Uiso   1.00
N46    N     0.25000   0.37377   0.16667   0.00000  Uiso   1.00
O47    O     0.18453   0.28974   0.16667   0.00000  Uiso   1.00
O48    O     0.16337   0.09055   0.05094   0.00000  Uiso   1.00
O49    O     0.16702   0.17413   0.08287   0.00000  Uiso   1.00
O50    O     0.33473   0.41133   0.28275   0.00000  Uiso   1.00
O51    O     0.27240   0.36052   0.29498   0.00000  Uiso   1.00
O52    O     0.33657   0.32975   0.24626   0.00000  Uiso   1.00
O53    O     0.26891   0.13434   0.29181   0.00000  Uiso   1.00
O54    O     0.33663   0.09055   0.28239   0.00000  Uiso   1.00
O55    O     0.33298   0.17413   0.25046   0.00000  Uiso   1.00
O56    O     0.16527   0.41133   0.05059   0.00000  Uiso   1.00
O57    O     0.22760   0.36052   0.03835   0.00000  Uiso   1.00
O58    O     0.31547   0.21026   0.16666   0.00000  Uiso   1.00
O59    O     0.16343   0.32975   0.08707   0.00000  Uiso   1.00
O60    O     0.31547   0.28974   0.16666   0.00000  Uiso   1.00
O61    O     0.18453   0.21026   0.16667   0.00000  Uiso   1.00
O62    O     0.25000   0.28973   0.09511   0.00000  Uiso   1.00
O63    O     0.25000   0.21027   0.23822   0.00000  Uiso   1.00
O64    O     0.25000   0.28973   0.23822   0.00000  Uiso   1.00
O65    O     0.25000   0.21027   0.09511   0.00000  Uiso   1.00
O66    O     0.23109   0.13434   0.04153   0.00000  Uiso   1.00
S67    S     0.19559   0.12514   0.07582   0.00000  Uiso   1.00
S68    S     0.30429   0.37489   0.25833   0.00000  Uiso   1.00
S69    S     0.30441   0.12514   0.25751   0.00000  Uiso   1.00
S70    S     0.19571   0.37489   0.07500   0.00000  Uiso   1.00
Zn71   Zn    0.25000   0.30307   0.16667   0.00000  Uiso   1.00
Zn72   Zn    0.25000   0.19693   0.16667   0.00000  Uiso   1.00
C73    C     0.66412   0.25001   0.16711   0.00000  Uiso   1.00
C74    C     0.73016   0.44794   0.12669   0.00000  Uiso   1.00
C75    C     0.74984   0.24999   0.07298   0.00000  Uiso   1.00
C76    C     0.75016   0.24999   0.26036   0.00000  Uiso   1.00
C77    C     0.75000   0.02661   0.16667   0.00000  Uiso   1.00
C78    C     0.75000   0.47368   0.16667   0.00000  Uiso   1.00
C79    C     0.74995   0.24996   0.02177   0.00000  Uiso   1.00
C80    C     0.75005   0.24996   0.31156   0.00000  Uiso   1.00
C81    C     0.54862   0.29032   0.18253   0.00000  Uiso   1.00
C82    C     0.95414   0.21095   0.18147   0.00000  Uiso   1.00
C83    C     0.95138   0.29032   0.15081   0.00000  Uiso   1.00
C84    C     0.83588   0.25001   0.16623   0.00000  Uiso   1.00
C85    C     0.54586   0.21095   0.15187   0.00000  Uiso   1.00
C86    C     0.59459   0.29015   0.18241   0.00000  Uiso   1.00
C87    C     0.90819   0.21029   0.18003   0.00000  Uiso   1.00
C88    C     0.90541   0.29015   0.15093   0.00000  Uiso   1.00
C89    C     0.59181   0.21029   0.15331   0.00000  Uiso   1.00
C90    C     0.61623   0.25011   0.16771   0.00000  Uiso   1.00
C91    C     0.88377   0.25011   0.16562   0.00000  Uiso   1.00
C92    C     0.52412   0.25082   0.16682   0.00000  Uiso   1.00
C93    C     0.97588   0.25082   0.16651   0.00000  Uiso   1.00
C94    C     0.72284   0.10119   0.13159   0.00000  Uiso   1.00
C95    C     0.77257   0.39907   0.20534   0.00000  Uiso   1.00
C96    C     0.77716   0.10119   0.20174   0.00000  Uiso   1.00
C97    C     0.72743   0.39907   0.12799   0.00000  Uiso   1.00
C98    C     0.72090   0.05233   0.13385   0.00000  Uiso   1.00
C99    C     0.76984   0.44794   0.20665   0.00000  Uiso   1.00
C100   C     0.77910   0.05233   0.19948   0.00000  Uiso   1.00
H101   H     0.53235   0.32106   0.19524   0.00000  Uiso   1.00
H102   H     0.78342   0.46572   0.23982   0.00000  Uiso   1.00
H103   H     0.80280   0.03446   0.22508   0.00000  Uiso   1.00
H104   H     0.71658   0.46572   0.09351   0.00000  Uiso   1.00
H105   H     0.65842   0.18534   0.04854   0.00000  Uiso   1.00
H106   H     0.84609   0.31598   0.27926   0.00000  Uiso   1.00
H107   H     0.84159   0.18534   0.28480   0.00000  Uiso   1.00
H108   H     0.65389   0.31599   0.05408   0.00000  Uiso   1.00
H109   H     0.97260   0.18037   0.19450   0.00000  Uiso   1.00
H110   H     0.96765   0.32106   0.13809   0.00000  Uiso   1.00
H111   H     0.52740   0.18037   0.13884   0.00000  Uiso   1.00
H112   H     0.61316   0.32100   0.19439   0.00000  Uiso   1.00
H113   H     0.89207   0.17879   0.19076   0.00000  Uiso   1.00
H114   H     0.88684   0.32100   0.13894   0.00000  Uiso   1.00
H115   H     0.60793   0.17879   0.14258   0.00000  Uiso   1.00
H116   H     0.69720   0.03446   0.10825   0.00000  Uiso   1.00
N117   N     0.75000   0.12624   0.16667   0.00000  Uiso   1.00
N118   N     0.75000   0.37377   0.16667   0.00000  Uiso   1.00
O119   O     0.68453   0.28974   0.16667   0.00000  Uiso   1.00
O120   O     0.66337   0.09055   0.05094   0.00000  Uiso   1.00
O121   O     0.66702   0.17413   0.08287   0.00000  Uiso   1.00
O122   O     0.83473   0.41133   0.28275   0.00000  Uiso   1.00
O123   O     0.77240   0.36052   0.29498   0.00000  Uiso   1.00
O124   O     0.83657   0.32975   0.24626   0.00000  Uiso   1.00
O125   O     0.76891   0.13434   0.29181   0.00000  Uiso   1.00
O126   O     0.83663   0.09055   0.28239   0.00000  Uiso   1.00
O127   O     0.83298   0.17413   0.25046   0.00000  Uiso   1.00
O128   O     0.66527   0.41133   0.05059   0.00000  Uiso   1.00
O129   O     0.72760   0.36052   0.03835   0.00000  Uiso   1.00
O130   O     0.81547   0.21026   0.16666   0.00000  Uiso   1.00
O131   O     0.66343   0.32975   0.08707   0.00000  Uiso   1.00
O132   O     0.81547   0.28974   0.16666   0.00000  Uiso   1.00
O133   O     0.68453   0.21026   0.16667   0.00000  Uiso   1.00
O134   O     0.75000   0.28973   0.09511   0.00000  Uiso   1.00
O135   O     0.75000   0.21027   0.23822   0.00000  Uiso   1.00
O136   O     0.75000   0.28973   0.23822   0.00000  Uiso   1.00
O137   O     0.75000   0.21027   0.09511   0.00000  Uiso   1.00
O138   O     0.73109   0.13434   0.04153   0.00000  Uiso   1.00
S139   S     0.69559   0.12514   0.07582   0.00000  Uiso   1.00
S140   S     0.80429   0.37489   0.25833   0.00000  Uiso   1.00
S141   S     0.80441   0.12514   0.25751   0.00000  Uiso   1.00
S142   S     0.69571   0.37489   0.07500   0.00000  Uiso   1.00
Zn143  Zn    0.75000   0.30307   0.16667   0.00000  Uiso   1.00
Zn144  Zn    0.75000   0.19693   0.16667   0.00000  Uiso   1.00
C145   C     0.16412   0.75001   0.16711   0.00000  Uiso   1.00
C146   C     0.23016   0.94794   0.12669   0.00000  Uiso   1.00
C147   C     0.24984   0.74999   0.07298   0.00000  Uiso   1.00
C148   C     0.25016   0.74999   0.26036   0.00000  Uiso   1.00
C149   C     0.25000   0.52661   0.16667   0.00000  Uiso   1.00
C150   C     0.25000   0.97368   0.16667   0.00000  Uiso   1.00
C151   C     0.24995   0.74996   0.02177   0.00000  Uiso   1.00
C152   C     0.25005   0.74996   0.31156   0.00000  Uiso   1.00
C153   C     0.04862   0.79032   0.18253   0.00000  Uiso   1.00
C154   C     0.45414   0.71095   0.18147   0.00000  Uiso   1.00
C155   C     0.45138   0.79032   0.15081   0.00000  Uiso   1.00
C156   C     0.33588   0.75001   0.16623   0.00000  Uiso   1.00
C157   C     0.04586   0.71095   0.15187   0.00000  Uiso   1.00
C158   C     0.09459   0.79015   0.18241   0.00000  Uiso   1.00
C159   C     0.40819   0.71029   0.18003   0.00000  Uiso   1.00
C160   C     0.40541   0.79015   0.15093   0.00000  Uiso   1.00
C161   C     0.09181   0.71029   0.15331   0.00000  Uiso   1.00
C162   C     0.11623   0.75011   0.16771   0.00000  Uiso   1.00
C163   C     0.38377   0.75011   0.16562   0.00000  Uiso   1.00
C164   C     0.02412   0.75082   0.16682   0.00000  Uiso   1.00
C165   C     0.47588   0.75082   0.16651   0.00000  Uiso   1.00
C166   C     0.22284   0.60119   0.13159   0.00000  Uiso   1.00
C167   C     0.27257   0.89907   0.20534   0.00000  Uiso   1.00
C168   C     0.27716   0.60119   0.20174   0.00000  Uiso   1.00
C169   C     0.22743   0.89907   0.12799   0.00000  Uiso   1.00
C170   C     0.22090   0.55233   0.13385   0.00000  Uiso   1.00
C171   C     0.26984   0.94794   0.20665   0.00000  Uiso   1.00
C172   C     0.27910   0.55233   0.19948   0.00000  Uiso   1.00
H173   H     0.03235   0.82106   0.19524   0.00000  Uiso   1.00
H174   H     0.28342   0.96572   0.23982   0.00000  Uiso   1.00
H175   H     0.30280   0.53446   0.22508   0.00000  Uiso   1.00
H176   H     0.21658   0.96572   0.09351   0.00000  Uiso   1.00
H177   H     0.15842   0.68534   0.04854   0.00000  Uiso   1.00
H178   H     0.34609   0.81598   0.27926   0.00000  Uiso   1.00
H179   H     0.34159   0.68534   0.28480   0.00000  Uiso   1.00
H180   H     0.15389   0.81599   0.05408   0.00000  Uiso   1.00
H181   H     0.47260   0.68037   0.19450   0.00000  Uiso   1.00
H182   H     0.46765   0.82106   0.13809   0.00000  Uiso   1.00
H183   H     0.02740   0.68037   0.13884   0.00000  Uiso   1.00
H184   H     0.11316   0.82100   0.19439   0.00000  Uiso   1.00
H185   H     0.39207   0.67879   0.19076   0.00000  Uiso   1.00
H186   H     0.38684   0.82100   0.13894   0.00000  Uiso   1.00
H187   H     0.10793   0.67879   0.14258   0.00000  Uiso   1.00
H188   H     0.19720   0.53446   0.10825   0.00000  Uiso   1.00
N189   N     0.25000   0.62624   0.16667   0.00000  Uiso   1.00
N190   N     0.25000   0.87377   0.16667   0.00000  Uiso   1.00
O191   O     0.18453   0.78974   0.16667   0.00000  Uiso   1.00
O192   O     0.16337   0.59055   0.05094   0.00000  Uiso   1.00
O193   O     0.16702   0.67413   0.08287   0.00000  Uiso   1.00
O194   O     0.33473   0.91133   0.28275   0.00000  Uiso   1.00
O195   O     0.27240   0.86052   0.29498   0.00000  Uiso   1.00
O196   O     0.33657   0.82975   0.24626   0.00000  Uiso   1.00
O197   O     0.26891   0.63434   0.29181   0.00000  Uiso   1.00
O198   O     0.33663   0.59055   0.28239   0.00000  Uiso   1.00
O199   O     0.33298   0.67413   0.25046   0.00000  Uiso   1.00
O200   O     0.16527   0.91133   0.05059   0.00000  Uiso   1.00
O201   O     0.22760   0.86052   0.03835   0.00000  Uiso   1.00
O202   O     0.31547   0.71026   0.16666   0.00000  Uiso   1.00
O203   O     0.16343   0.82975   0.08707   0.00000  Uiso   1.00
O204   O     0.31547   0.78974   0.16666   0.00000  Uiso   1.00
O205   O     0.18453   0.71026   0.16667   0.00000  Uiso   1.00
O206   O     0.25000   0.78973   0.09511   0.00000  Uiso   1.00
O207   O     0.25000   0.71027   0.23822   0.00000  Uiso   1.00
O208   O     0.25000   0.78973   0.23822   0.00000  Uiso   1.00
O209   O     0.25000   0.71027   0.09511   0.00000  Uiso   1.00
O210   O     0.23109   0.63434   0.04153   0.00000  Uiso   1.00
S211   S     0.19559   0.62514   0.07582   0.00000  Uiso   1.00
S212   S     0.30429   0.87489   0.25833   0.00000  Uiso   1.00
S213   S     0.30441   0.62514   0.25751   0.00000  Uiso   1.00
S214   S     0.19571   0.87489   0.07500   0.00000  Uiso   1.00
Zn215  Zn    0.25000   0.80307   0.16667   0.00000  Uiso   1.00
Zn216  Zn    0.25000   0.69693   0.16667   0.00000  Uiso   1.00
C217   C     0.66412   0.75001   0.16711   0.00000  Uiso   1.00
C218   C     0.73016   0.94794   0.12669   0.00000  Uiso   1.00
C219   C     0.74984   0.74999   0.07298   0.00000  Uiso   1.00
C220   C     0.75016   0.74999   0.26036   0.00000  Uiso   1.00
C221   C     0.75000   0.52661   0.16667   0.00000  Uiso   1.00
C222   C     0.75000   0.97368   0.16667   0.00000  Uiso   1.00
C223   C     0.74995   0.74996   0.02177   0.00000  Uiso   1.00
C224   C     0.75005   0.74996   0.31156   0.00000  Uiso   1.00
C225   C     0.54862   0.79032   0.18253   0.00000  Uiso   1.00
C226   C     0.95414   0.71095   0.18147   0.00000  Uiso   1.00
C227   C     0.95138   0.79032   0.15081   0.00000  Uiso   1.00
C228   C     0.83588   0.75001   0.16623   0.00000  Uiso   1.00
C229   C     0.54586   0.71095   0.15187   0.00000  Uiso   1.00
C230   C     0.59459   0.79015   0.18241   0.00000  Uiso   1.00
C231   C     0.90819   0.71029   0.18003   0.00000  Uiso   1.00
C232   C     0.90541   0.79015   0.15093   0.00000  Uiso   1.00
C233   C     0.59181   0.71029   0.15331   0.00000  Uiso   1.00
C234   C     0.61623   0.75011   0.16771   0.00000  Uiso   1.00
C235   C     0.88377   0.75011   0.16562   0.00000  Uiso   1.00
C236   C     0.52412   0.75082   0.16682   0.00000  Uiso   1.00
C237   C     0.97588   0.75082   0.16651   0.00000  Uiso   1.00
C238   C     0.72284   0.60119   0.13159   0.00000  Uiso   1.00
C239   C     0.77257   0.89907   0.20534   0.00000  Uiso   1.00
C240   C     0.77716   0.60119   0.20174   0.00000  Uiso   1.00
C241   C     0.72743   0.89907   0.12799   0.00000  Uiso   1.00
C242   C     0.72090   0.55233   0.13385   0.00000  Uiso   1.00
C243   C     0.76984   0.94794   0.20665   0.00000  Uiso   1.00
C244   C     0.77910   0.55233   0.19948   0.00000  Uiso   1.00
H245   H     0.53235   0.82106   0.19524   0.00000  Uiso   1.00
H246   H     0.78342   0.96572   0.23982   0.00000  Uiso   1.00
H247   H     0.80280   0.53446   0.22508   0.00000  Uiso   1.00
H248   H     0.71658   0.96572   0.09351   0.00000  Uiso   1.00
H249   H     0.65842   0.68534   0.04854   0.00000  Uiso   1.00
H250   H     0.84609   0.81598   0.27926   0.00000  Uiso   1.00
H251   H     0.84159   0.68534   0.28480   0.00000  Uiso   1.00
H252   H     0.65389   0.81599   0.05408   0.00000  Uiso   1.00
H253   H     0.97260   0.68037   0.19450   0.00000  Uiso   1.00
H254   H     0.96765   0.82106   0.13809   0.00000  Uiso   1.00
H255   H     0.52740   0.68037   0.13884   0.00000  Uiso   1.00
H256   H     0.61316   0.82100   0.19439   0.00000  Uiso   1.00
H257   H     0.89207   0.67879   0.19076   0.00000  Uiso   1.00
H258   H     0.88684   0.82100   0.13894   0.00000  Uiso   1.00
H259   H     0.60793   0.67879   0.14258   0.00000  Uiso   1.00
H260   H     0.69720   0.53446   0.10825   0.00000  Uiso   1.00
N261   N     0.75000   0.62624   0.16667   0.00000  Uiso   1.00
N262   N     0.75000   0.87377   0.16667   0.00000  Uiso   1.00
O263   O     0.68453   0.78974   0.16667   0.00000  Uiso   1.00
O264   O     0.66337   0.59055   0.05094   0.00000  Uiso   1.00
O265   O     0.66702   0.67413   0.08287   0.00000  Uiso   1.00
O266   O     0.83473   0.91133   0.28275   0.00000  Uiso   1.00
O267   O     0.77240   0.86052   0.29498   0.00000  Uiso   1.00
O268   O     0.83657   0.82975   0.24626   0.00000  Uiso   1.00
O269   O     0.76891   0.63434   0.29181   0.00000  Uiso   1.00
O270   O     0.83663   0.59055   0.28239   0.00000  Uiso   1.00
O271   O     0.83298   0.67413   0.25046   0.00000  Uiso   1.00
O272   O     0.66527   0.91133   0.05059   0.00000  Uiso   1.00
O273   O     0.72760   0.86052   0.03835   0.00000  Uiso   1.00
O274   O     0.81547   0.71026   0.16666   0.00000  Uiso   1.00
O275   O     0.66343   0.82975   0.08707   0.00000  Uiso   1.00
O276   O     0.81547   0.78974   0.16666   0.00000  Uiso   1.00
O277   O     0.68453   0.71026   0.16667   0.00000  Uiso   1.00
O278   O     0.75000   0.78973   0.09511   0.00000  Uiso   1.00
O279   O     0.75000   0.71027   0.23822   0.00000  Uiso   1.00
O280   O     0.75000   0.78973   0.23822   0.00000  Uiso   1.00
O281   O     0.75000   0.71027   0.09511   0.00000  Uiso   1.00
O282   O     0.73109   0.63434   0.04153   0.00000  Uiso   1.00
S283   S     0.69559   0.62514   0.07582   0.00000  Uiso   1.00
S284   S     0.80429   0.87489   0.25833   0.00000  Uiso   1.00
S285   S     0.80441   0.62514   0.25751   0.00000  Uiso   1.00
S286   S     0.69571   0.87489   0.07500   0.00000  Uiso   1.00
Zn287  Zn    0.75000   0.80307   0.16667   0.00000  Uiso   1.00
Zn288  Zn    0.75000   0.69693   0.16667   0.00000  Uiso   1.00
C289   C     0.16412   0.25001   0.50044   0.00000  Uiso   1.00
C290   C     0.23016   0.44794   0.46002   0.00000  Uiso   1.00
C291   C     0.24984   0.24999   0.40631   0.00000  Uiso   1.00
C292   C     0.25016   0.24999   0.59369   0.00000  Uiso   1.00
C293   C     0.25000   0.02661   0.50000   0.00000  Uiso   1.00
C294   C     0.25000   0.47368   0.50000   0.00000  Uiso   1.00
C295   C     0.24995   0.24996   0.35511   0.00000  Uiso   1.00
C296   C     0.25005   0.24996   0.64489   0.00000  Uiso   1.00
C297   C     0.04862   0.29032   0.51586   0.00000  Uiso   1.00
C298   C     0.45414   0.21095   0.51480   0.00000  Uiso   1.00
C299   C     0.45138   0.29032   0.48414   0.00000  Uiso   1.00
C300   C     0.33588   0.25001   0.49956   0.00000  Uiso   1.00
C301   C     0.04586   0.21095   0.48520   0.00000  Uiso   1.00
C302   C     0.09459   0.29015   0.51574   0.00000  Uiso   1.00
C303   C     0.40819   0.21029   0.51336   0.00000  Uiso   1.00
C304   C     0.40541   0.29015   0.48426   0.00000  Uiso   1.00
C305   C     0.09181   0.21029   0.48664   0.00000  Uiso   1.00
C306   C     0.11623   0.25011   0.50104   0.00000  Uiso   1.00
C307   C     0.38377   0.25011   0.49896   0.00000  Uiso   1.00
C308   C     0.02412   0.25082   0.50015   0.00000  Uiso   1.00
C309   C     0.47588   0.25082   0.49985   0.00000  Uiso   1.00
C310   C     0.22284   0.10119   0.46492   0.00000  Uiso   1.00
C311   C     0.27257   0.39907   0.53868   0.00000  Uiso   1.00
C312   C     0.27716   0.10119   0.53508   0.00000  Uiso   1.00
C313   C     0.22743   0.39907   0.46132   0.00000  Uiso   1.00
C314   C     0.22090   0.05233   0.46718   0.00000  Uiso   1.00
C315   C     0.26984   0.44794   0.53998   0.00000  Uiso   1.00
C316   C     0.27910   0.05233   0.53282   0.00000  Uiso   1.00
H317   H     0.03235   0.32106   0.52857   0.00000  Uiso   1.00
H318   H     0.28342   0.46572   0.57315   0.00000  Uiso   1.00
H319   H     0.30280   0.03446   0.55842   0.00000  Uiso   1.00
H320   H     0.21658   0.46572   0.42685   0.00000  Uiso   1.00
H321   H     0.15842   0.18534   0.38187   0.00000  Uiso   1.00
H322   H     0.34609   0.31598   0.61259   0.00000  Uiso   1.00
H323   H     0.34159   0.18534   0.61813   0.00000  Uiso   1.00
H324   H     0.15389   0.31599   0.38741   0.00000  Uiso   1.00
H325   H     0.47260   0.18037   0.52783   0.00000  Uiso   1.00
H326   H     0.46765   0.32106   0.47143   0.00000  Uiso   1.00
H327   H     0.02740   0.18037   0.47217   0.00000  Uiso   1.00
H328   H     0.11316   0.32100   0.52773   0.00000  Uiso   1.00
H329   H     0.39207   0.17879   0.52409   0.00000  Uiso   1.00
H330   H     0.38684   0.32100   0.47227   0.00000  Uiso   1.00
H331   H     0.10793   0.17879   0.47591   0.00000  Uiso   1.00
H332   H     0.19720   0.03446   0.44158   0.00000  Uiso   1.00
N333   N     0.25000   0.12624   0.50000   0.00000  Uiso   1.00
N334   N     0.25000   0.37377   0.50000   0.00000  Uiso   1.00
O335   O     0.18453   0.28974   0.50000   0.00000  Uiso   1.00
O336   O     0.16337   0.09055   0.38427   0.00000  Uiso   1.00
O337   O     0.16702   0.17413   0.41620   0.00000  Uiso   1.00
O338   O     0.33473   0.41133   0.61608   0.00000  Uiso   1.00
O339   O     0.27240   0.36052   0.62831   0.00000  Uiso   1.00
O340   O     0.33657   0.32975   0.57960   0.00000  Uiso   1.00
O341   O     0.26891   0.13434   0.62514   0.00000  Uiso   1.00
O342   O     0.33663   0.09055   0.61573   0.00000  Uiso   1.00
O343   O     0.33298   0.17413   0.58380   0.00000  Uiso   1.00
O344   O     0.16527   0.41133   0.38392   0.00000  Uiso   1.00
O345   O     0.22760   0.36052   0.37169   0.00000  Uiso   1.00
O346   O     0.31547   0.21026   0.50000   0.00000  Uiso   1.00
O347   O     0.16343   0.32975   0.42040   0.00000  Uiso   1.00
O348   O     0.31547   0.28974   0.50000   0.00000  Uiso   1.00
O349   O     0.18453   0.21026   0.50000   0.00000  Uiso   1.00
O350   O     0.25000   0.28973   0.42845   0.00000  Uiso   1.00
O351   O     0.25000   0.21027   0.57155   0.00000  Uiso   1.00
O352   O     0.25000   0.28973   0.57155   0.00000  Uiso   1.00
O353   O     0.25000   0.21027   0.42845   0.00000  Uiso   1.00
O354   O     0.23109   0.13434   0.37486   0.00000  Uiso   1.00
S355   S     0.19559   0.12514   0.40916   0.00000  Uiso   1.00
S356   S     0.30429   0.37489   0.59167   0.00000  Uiso   1.00
S357   S     0.30441   0.12514   0.59084   0.00000  Uiso   1.00
S358   S     0.19571   0.37489   0.40833   0.00000  Uiso   1.00
Zn359  Zn    0.25000   0.30307   0.50000   0.00000  Uiso   1.00
Zn360  Zn    0.25000   0.19693   0.50000   0.00000  Uiso   1.00
C361   C     0.66412   0.25001   0.50044   0.00000  Uiso   1.00
C362   C     0.73016   0.44794   0.46002   0.00000  Uiso   1.00
C363   C     0.74984   0.24999   0.40631   0.00000  Uiso   1.00
C364   C     0.75016   0.24999   0.59369   0.00000  Uiso   1.00
C365   C     0.75000   0.02661   0.50000   0.00000  Uiso   1.00
C366   C     0.75000   0.47368   0.50000   0.00000  Uiso   1.00
C367   C     0.74995   0.24996   0.35511   0.00000  Uiso   1.00
C368   C     0.75005   0.24996   0.64489   0.00000  Uiso   1.00
C369   C     0.54862   0.29032   0.51586   0.00000  Uiso   1.00
C370   C     0.95414   0.21095   0.51480   0.00000  Uiso   1.00
C371   C     0.95138   0.29032   0.48414   0.00000  Uiso   1.00
C372   C     0.83588   0.25001   0.49956   0.00000  Uiso   1.00
C373   C     0.54586   0.21095   0.48520   0.00000  Uiso   1.00
C374   C     0.59459   0.29015   0.51574   0.00000  Uiso   1.00
C375   C     0.90819   0.21029   0.51336   0.00000  Uiso   1.00
C376   C     0.90541   0.29015   0.48426   0.00000  Uiso   1.00
C377   C     0.59181   0.21029   0.48664   0.00000  Uiso   1.00
C378   C     0.61623   0.25011   0.50104   0.00000  Uiso   1.00
C379   C     0.88377   0.25011   0.49896   0.00000  Uiso   1.00
C380   C     0.52412   0.25082   0.50015   0.00000  Uiso   1.00
C381   C     0.97588   0.25082   0.49985   0.00000  Uiso   1.00
C382   C     0.72284   0.10119   0.46492   0.00000  Uiso   1.00
C383   C     0.77257   0.39907   0.53868   0.00000  Uiso   1.00
C384   C     0.77716   0.10119   0.53508   0.00000  Uiso   1.00
C385   C     0.72743   0.39907   0.46132   0.00000  Uiso   1.00
C386   C     0.72090   0.05233   0.46718   0.00000  Uiso   1.00
C387   C     0.76984   0.44794   0.53998   0.00000  Uiso   1.00
C388   C     0.77910   0.05233   0.53282   0.00000  Uiso   1.00
H389   H     0.53235   0.32106   0.52857   0.00000  Uiso   1.00
H390   H     0.78342   0.46572   0.57315   0.00000  Uiso   1.00
H391   H     0.80280   0.03446   0.55842   0.00000  Uiso   1.00
H392   H     0.71658   0.46572   0.42685   0.00000  Uiso   1.00
H393   H     0.65842   0.18534   0.38187   0.00000  Uiso   1.00
H394   H     0.84609   0.31598   0.61259   0.00000  Uiso   1.00
H395   H     0.84159   0.18534   0.61813   0.00000  Uiso   1.00
H396   H     0.65389   0.31599   0.38741   0.00000  Uiso   1.00
H397   H     0.97260   0.18037   0.52783   0.00000  Uiso   1.00
H398   H     0.96765   0.32106   0.47143   0.00000  Uiso   1.00
H399   H     0.52740   0.18037   0.47217   0.00000  Uiso   1.00
H400   H     0.61316   0.32100   0.52773   0.00000  Uiso   1.00
H401   H     0.89207   0.17879   0.52409   0.00000  Uiso   1.00
H402   H     0.88684   0.32100   0.47227   0.00000  Uiso   1.00
H403   H     0.60793   0.17879   0.47591   0.00000  Uiso   1.00
H404   H     0.69720   0.03446   0.44158   0.00000  Uiso   1.00
N405   N     0.75000   0.12624   0.50000   0.00000  Uiso   1.00
N406   N     0.75000   0.37377   0.50000   0.00000  Uiso   1.00
O407   O     0.68453   0.28974   0.50000   0.00000  Uiso   1.00
O408   O     0.66337   0.09055   0.38427   0.00000  Uiso   1.00
O409   O     0.66702   0.17413   0.41620   0.00000  Uiso   1.00
O410   O     0.83473   0.41133   0.61608   0.00000  Uiso   1.00
O411   O     0.77240   0.36052   0.62831   0.00000  Uiso   1.00
O412   O     0.83657   0.32975   0.57960   0.00000  Uiso   1.00
O413   O     0.76891   0.13434   0.62514   0.00000  Uiso   1.00
O414   O     0.83663   0.09055   0.61573   0.00000  Uiso   1.00
O415   O     0.83298   0.17413   0.58380   0.00000  Uiso   1.00
O416   O     0.66527   0.41133   0.38392   0.00000  Uiso   1.00
O417   O     0.72760   0.36052   0.37169   0.00000  Uiso   1.00
O418   O     0.81547   0.21026   0.50000   0.00000  Uiso   1.00
O419   O     0.66343   0.32975   0.42040   0.00000  Uiso   1.00
O420   O     0.81547   0.28974   0.50000   0.00000  Uiso   1.00
O421   O     0.68453   0.21026   0.50000   0.00000  Uiso   1.00
O422   O     0.75000   0.28973   0.42845   0.00000  Uiso   1.00
O423   O     0.75000   0.21027   0.57155   0.00000  Uiso   1.00
O424   O     0.75000   0.28973   0.57155   0.00000  Uiso   1.00
O425   O     0.75000   0.21027   0.42845   0.00000  Uiso   1.00
O426   O     0.73109   0.13434   0.37486   0.00000  Uiso   1.00
S427   S     0.69559   0.12514   0.40916   0.00000  Uiso   1.00
S428   S     0.80429   0.37489   0.59167   0.00000  Uiso   1.00
S429   S     0.80441   0.12514   0.59084   0.00000  Uiso   1.00
S430   S     0.69571   0.37489   0.40833   0.00000  Uiso   1.00
Zn431  Zn    0.75000   0.30307   0.50000   0.00000  Uiso   1.00
Zn432  Zn    0.75000   0.19693   0.50000   0.00000  Uiso   1.00
C433   C     0.16412   0.75001   0.50044   0.00000  Uiso   1.00
C434   C     0.23016   0.94794   0.46002   0.00000  Uiso   1.00
C435   C     0.24984   0.74999   0.40631   0.00000  Uiso   1.00
C436   C     0.25016   0.74999   0.59369   0.00000  Uiso   1.00
C437   C     0.25000   0.52661   0.50000   0.00000  Uiso   1.00
C438   C     0.25000   0.97368   0.50000   0.00000  Uiso   1.00
C439   C     0.24995   0.74996   0.35511   0.00000  Uiso   1.00
C440   C     0.25005   0.74996   0.64489   0.00000  Uiso   1.00
C441   C     0.04862   0.79032   0.51586   0.00000  Uiso   1.00
C442   C     0.45414   0.71095   0.51480   0.00000  Uiso   1.00
C443   C     0.45138   0.79032   0.48414   0.00000  Uiso   1.00
C444   C     0.33588   0.75001   0.49956   0.00000  Uiso   1.00
C445   C     0.04586   0.71095   0.48520   0.00000  Uiso   1.00
C446   C     0.09459   0.79015   0.51574   0.00000  Uiso   1.00
C447   C     0.40819   0.71029   0.51336   0.00000  Uiso   1.00
C448   C     0.40541   0.79015   0.48426   0.00000  Uiso   1.00
C449   C     0.09181   0.71029   0.48664   0.00000  Uiso   1.00
C450   C     0.11623   0.75011   0.50104   0.00000  Uiso   1.00
C451   C     0.38377   0.75011   0.49896   0.00000  Uiso   1.00
C452   C     0.02412   0.75082   0.50015   0.00000  Uiso   1.00
C453   C     0.47588   0.75082   0.49985   0.00000  Uiso   1.00
C454   C     0.22284   0.60119   0.46492   0.00000  Uiso   1.00
C455   C     0.27257   0.89907   0.53868   0.00000  Uiso   1.00
C456   C     0.27716   0.60119   0.53508   0.00000  Uiso   1.00
C457   C     0.22743   0.89907   0.46132   0.00000  Uiso   1.00
C458   C     0.22090   0.55233   0.46718   0.00000  Uiso   1.00
C459   C     0.26984   0.94794   0.53998   0.00000  Uiso   1.00
C460   C     0.27910   0.55233   0.53282   0.00000  Uiso   1.00
H461   H     0.03235   0.82106   0.52857   0.00000  Uiso   1.00
H462   H     0.28342   0.96572   0.57315   0.00000  Uiso   1.00
H463   H     0.30280   0.53446   0.55842   0.00000  Uiso   1.00
H464   H     0.21658   0.96572   0.42685   0.00000  Uiso   1.00
H465   H     0.15842   0.68534   0.38187   0.00000  Uiso   1.00
H466   H     0.34609   0.81598   0.61259   0.00000  Uiso   1.00
H467   H     0.34159   0.68534   0.61813   0.00000  Uiso   1.00
H468   H     0.15389   0.81599   0.38741   0.00000  Uiso   1.00
H469   H     0.47260   0.68037   0.52783   0.00000  Uiso   1.00
H470   H     0.46765   0.82106   0.47143   0.00000  Uiso   1.00
H471   H     0.02740   0.68037   0.47217   0.00000  Uiso   1.00
H472   H     0.11316   0.82100   0.52773   0.00000  Uiso   1.00
H473   H     0.39207   0.67879   0.52409   0.00000  Uiso   1.00
H474   H     0.38684   0.82100   0.47227   0.00000  Uiso   1.00
H475   H     0.10793   0.67879   0.47591   0.00000  Uiso   1.00
H476   H     0.19720   0.53446   0.44158   0.00000  Uiso   1.00
N477   N     0.25000   0.62624   0.50000   0.00000  Uiso   1.00
N478   N     0.25000   0.87377   0.50000   0.00000  Uiso   1.00
O479   O     0.18453   0.78974   0.50000   0.00000  Uiso   1.00
O480   O     0.16337   0.59055   0.38427   0.00000  Uiso   1.00
O481   O     0.16702   0.67413   0.41620   0.00000  Uiso   1.00
O482   O     0.33473   0.91133   0.61608   0.00000  Uiso   1.00
O483   O     0.27240   0.86052   0.62831   0.00000  Uiso   1.00
O484   O     0.33657   0.82975   0.57960   0.00000  Uiso   1.00
O485   O     0.26891   0.63434   0.62514   0.00000  Uiso   1.00
O486   O     0.33663   0.59055   0.61573   0.00000  Uiso   1.00
O487   O     0.33298   0.67413   0.58380   0.00000  Uiso   1.00
O488   O     0.16527   0.91133   0.38392   0.00000  Uiso   1.00
O489   O     0.22760   0.86052   0.37169   0.00000  Uiso   1.00
O490   O     0.31547   0.71026   0.50000   0.00000  Uiso   1.00
O491   O     0.16343   0.82975   0.42040   0.00000  Uiso   1.00
O492   O     0.31547   0.78974   0.50000   0.00000  Uiso   1.00
O493   O     0.18453   0.71026   0.50000   0.00000  Uiso   1.00
O494   O     0.25000   0.78973   0.42845   0.00000  Uiso   1.00
O495   O     0.25000   0.71027   0.57155   0.00000  Uiso   1.00
O496   O     0.25000   0.78973   0.57155   0.00000  Uiso   1.00
O497   O     0.25000   0.71027   0.42845   0.00000  Uiso   1.00
O498   O     0.23109   0.63434   0.37486   0.00000  Uiso   1.00
S499   S     0.19559   0.62514   0.40916   0.00000  Uiso   1.00
S500   S     0.30429   0.87489   0.59167   0.00000  Uiso   1.00
S501   S     0.30441   0.62514   0.59084   0.00000  Uiso   1.00
S502   S     0.19571   0.87489   0.40833   0.00000  Uiso   1.00
Zn503  Zn    0.25000   0.80307   0.50000   0.00000  Uiso   1.00
Zn504  Zn    0.25000   0.69693   0.50000   0.00000  Uiso   1.00
C505   C     0.66412   0.75001   0.50044   0.00000  Uiso   1.00
C506   C     0.73016   0.94794   0.46002   0.00000  Uiso   1.00
C507   C     0.74984   0.74999   0.40631   0.00000  Uiso   1.00
C508   C     0.75016   0.74999   0.59369   0.00000  Uiso   1.00
C509   C     0.75000   0.52661   0.50000   0.00000  Uiso   1.00
C510   C     0.75000   0.97368   0.50000   0.00000  Uiso   1.00
C511   C     0.74995   0.74996   0.35511   0.00000  Uiso   1.00
C512   C     0.75005   0.74996   0.64489   0.00000  Uiso   1.00
C513   C     0.54862   0.79032   0.51586   0.00000  Uiso   1.00
C514   C     0.95414   0.71095   0.51480   0.00000  Uiso   1.00
C515   C     0.95138   0.79032   0.48414   0.00000  Uiso   1.00
C516   C     0.83588   0.75001   0.49956   0.00000  Uiso   1.00
C517   C     0.54586   0.71095   0.48520   0.00000  Uiso   1.00
C518   C     0.59459   0.79015   0.51574   0.00000  Uiso   1.00
C519   C     0.90819   0.71029   0.51336   0.00000  Uiso   1.00
C520   C     0.90541   0.79015   0.48426   0.00000  Uiso   1.00
C521   C     0.59181   0.71029   0.48664   0.00000  Uiso   1.00
C522   C     0.61623   0.75011   0.50104   0.00000  Uiso   1.00
C523   C     0.88377   0.75011   0.49896   0.00000  Uiso   1.00
C524   C     0.52412   0.75082   0.50015   0.00000  Uiso   1.00
C525   C     0.97588   0.75082   0.49985   0.00000  Uiso   1.00
C526   C     0.72284   0.60119   0.46492   0.00000  Uiso   1.00
C527   C     0.77257   0.89907   0.53868   0.00000  Uiso   1.00
C528   C     0.77716   0.60119   0.53508   0.00000  Uiso   1.00
C529   C     0.72743   0.89907   0.46132   0.00000  Uiso   1.00
C530   C     0.72090   0.55233   0.46718   0.00000  Uiso   1.00
C531   C     0.76984   0.94794   0.53998   0.00000  Uiso   1.00
C532   C     0.77910   0.55233   0.53282   0.00000  Uiso   1.00
H533   H     0.53235   0.82106   0.52857   0.00000  Uiso   1.00
H534   H     0.78342   0.96572   0.57315   0.00000  Uiso   1.00
H535   H     0.80280   0.53446   0.55842   0.00000  Uiso   1.00
H536   H     0.71658   0.96572   0.42685   0.00000  Uiso   1.00
H537   H     0.65842   0.68534   0.38187   0.00000  Uiso   1.00
H538   H     0.84609   0.81598   0.61259   0.00000  Uiso   1.00
H539   H     0.84159   0.68534   0.61813   0.00000  Uiso   1.00
H540   H     0.65389   0.81599   0.38741   0.00000  Uiso   1.00
H541   H     0.97260   0.68037   0.52783   0.00000  Uiso   1.00
H542   H     0.96765   0.82106   0.47143   0.00000  Uiso   1.00
H543   H     0.52740   0.68037   0.47217   0.00000  Uiso   1.00
H544   H     0.61316   0.82100   0.52773   0.00000  Uiso   1.00
H545   H     0.89207   0.67879   0.52409   0.00000  Uiso   1.00
H546   H     0.88684   0.82100   0.47227   0.00000  Uiso   1.00
H547   H     0.60793   0.67879   0.47591   0.00000  Uiso   1.00
H548   H     0.69720   0.53446   0.44158   0.00000  Uiso   1.00
N549   N     0.75000   0.62624   0.50000   0.00000  Uiso   1.00
N550   N     0.75000   0.87377   0.50000   0.00000  Uiso   1.00
O551   O     0.68453   0.78974   0.50000   0.00000  Uiso   1.00
O552   O     0.66337   0.59055   0.38427   0.00000  Uiso   1.00
O553   O     0.66702   0.67413   0.41620   0.00000  Uiso   1.00
O554   O     0.83473   0.91133   0.61608   0.00000  Uiso   1.00
O555   O     0.77240   0.86052   0.62831   0.00000  Uiso   1.00
O556   O     0.83657   0.82975   0.57960   0.00000  Uiso   1.00
O557   O     0.76891   0.63434   0.62514   0.00000  Uiso   1.00
O558   O     0.83663   0.59055   0.61573   0.00000  Uiso   1.00
O559   O     0.83298   0.67413   0.58380   0.00000  Uiso   1.00
O560   O     0.66527   0.91133   0.38392   0.00000  Uiso   1.00
O561   O     0.72760   0.86052   0.37169   0.00000  Uiso   1.00
O562   O     0.81547   0.71026   0.50000   0.00000  Uiso   1.00
O563   O     0.66343   0.82975   0.42040   0.00000  Uiso   1.00
O564   O     0.81547   0.78974   0.50000   0.00000  Uiso   1.00
O565   O     0.68453   0.71026   0.50000   0.00000  Uiso   1.00
O566   O     0.75000   0.78973   0.42845   0.00000  Uiso   1.00
O567   O     0.75000   0.71027   0.57155   0.00000  Uiso   1.00
O568   O     0.75000   0.78973   0.57155   0.00000  Uiso   1.00
O569   O     0.75000   0.71027   0.42845   0.00000  Uiso   1.00
O570   O     0.73109   0.63434   0.37486   0.00000  Uiso   1.00
S571   S     0.69559   0.62514   0.40916   0.00000  Uiso   1.00
S572   S     0.80429   0.87489   0.59167   0.00000  Uiso   1.00
S573   S     0.80441   0.62514   0.59084   0.00000  Uiso   1.00
S574   S     0.69571   0.87489   0.40833   0.00000  Uiso   1.00
Zn575  Zn    0.75000   0.80307   0.50000   0.00000  Uiso   1.00
Zn576  Zn    0.75000   0.69693   0.50000   0.00000  Uiso   1.00
C577   C     0.16412   0.25001   0.83377   0.00000  Uiso   1.00
C578   C     0.23016   0.44794   0.79335   0.00000  Uiso   1.00
C579   C     0.24984   0.24999   0.73964   0.00000  Uiso   1.00
C580   C     0.25016   0.24999   0.92702   0.00000  Uiso   1.00
C581   C     0.25000   0.02661   0.83333   0.00000  Uiso   1.00
C582   C     0.25000   0.47368   0.83333   0.00000  Uiso   1.00
C583   C     0.24995   0.24996   0.68844   0.00000  Uiso   1.00
C584   C     0.25005   0.24996   0.97823   0.00000  Uiso   1.00
C585   C     0.04862   0.29032   0.84919   0.00000  Uiso   1.00
C586   C     0.45414   0.21095   0.84813   0.00000  Uiso   1.00
C587   C     0.45138   0.29032   0.81747   0.00000  Uiso   1.00
C588   C     0.33588   0.25001   0.83289   0.00000  Uiso   1.00
C589   C     0.04586   0.21095   0.81853   0.00000  Uiso   1.00
C590   C     0.09459   0.29015   0.84907   0.00000  Uiso   1.00
C591   C     0.40819   0.21029   0.84669   0.00000  Uiso   1.00
C592   C     0.40541   0.29015   0.81760   0.00000  Uiso   1.00
C593   C     0.09181   0.21029   0.81997   0.00000  Uiso   1.00
C594   C     0.11623   0.25011   0.83438   0.00000  Uiso   1.00
C595   C     0.38377   0.25011   0.83229   0.00000  Uiso   1.00
C596   C     0.02412   0.25082   0.83349   0.00000  Uiso   1.00
C597   C     0.47588   0.25082   0.83318   0.00000  Uiso   1.00
C598   C     0.22284   0.10119   0.79826   0.00000  Uiso   1.00
C599   C     0.27257   0.39907   0.87201   0.00000  Uiso   1.00
C600   C     0.27716   0.10119   0.86841   0.00000  Uiso   1.00
C601   C     0.22743   0.39907   0.79466   0.00000  Uiso   1.00
C602   C     0.22090   0.05233   0.80052   0.00000  Uiso   1.00
C603   C     0.26984   0.44794   0.87331   0.00000  Uiso   1.00
C604   C     0.27910   0.05233   0.86615   0.00000  Uiso   1.00
H605   H     0.03235   0.32106   0.86191   0.00000  Uiso   1.00
H606   H     0.28342   0.46572   0.90649   0.00000  Uiso   1.00
H607   H     0.30280   0.03446   0.89175   0.00000  Uiso   1.00
H608   H     0.21658   0.46572   0.76018   0.00000  Uiso   1.00
H609   H     0.15842   0.18534   0.71520   0.00000  Uiso   1.00
H610   H     0.34609   0.31598   0.94592   0.00000  Uiso   1.00
H611   H     0.34159   0.18534   0.95146   0.00000  Uiso   1.00
H612   H     0.15389   0.31599   0.72074   0.00000  Uiso   1.00
H613   H     0.47260   0.18037   0.86116   0.00000  Uiso   1.00
H614   H     0.46765   0.32106   0.80476   0.00000  Uiso   1.00
H615   H     0.02740   0.18037   0.80550   0.00000  Uiso   1.00
H616   H     0.11316   0.32100   0.86106   0.00000  Uiso   1.00
H617   H     0.39207   0.17879   0.85742   0.00000  Uiso   1.00
H618   H     0.38684   0.32100   0.80561   0.00000  Uiso   1.00
H619   H     0.10793   0.17879   0.80924   0.00000  Uiso   1.00
H620   H     0.19720   0.03446   0.77492   0.00000  Uiso   1.00
N621   N     0.25000   0.12624   0.83333   0.00000  Uiso   1.00
N622   N     0.25000   0.37377   0.83333   0.00000  Uiso   1.00
O623   O     0.18453   0.28974   0.83334   0.00000  Uiso   1.00
O624   O     0.16337   0.09055   0.71761   0.00000  Uiso   1.00
O625   O     0.16702   0.17413   0.74954   0.00000  Uiso   1.00
O626   O     0.33473   0.41133   0.94941   0.00000  Uiso   1.00
O627   O     0.27240   0.36052   0.96165   0.00000  Uiso   1.00
O628   O     0.33657   0.32975   0.91293   0.00000  Uiso   1.00
O629   O     0.26891   0.13434   0.95847   0.00000  Uiso   1.00
O630   O     0.33663   0.09055   0.94906   0.00000  Uiso   1.00
O631   O     0.33298   0.17413   0.91713   0.00000  Uiso   1.00
O632   O     0.16527   0.41133   0.71725   0.00000  Uiso   1.00
O633   O     0.22760   0.36052   0.70502   0.00000  Uiso   1.00
O634   O     0.31547   0.21026   0.83333   0.00000  Uiso   1.00
O635   O     0.16343   0.32975   0.75374   0.00000  Uiso   1.00
O636   O     0.31547   0.28974   0.83333   0.00000  Uiso   1.00
O637   O     0.18453   0.21026   0.83334   0.00000  Uiso   1.00
O638   O     0.25000   0.28973   0.76178   0.00000  Uiso   1.00
O639   O     0.25000   0.21027   0.90489   0.00000  Uiso   1.00
O640   O     0.25000   0.28973   0.90489   0.00000  Uiso   1.00
O641   O     0.25000   0.21027   0.76178   0.00000  Uiso   1.00
O642   O     0.23109   0.13434   0.70819   0.00000  Uiso   1.00
S643   S     0.19559   0.12514   0.74249   0.00000  Uiso   1.00
S644   S     0.30429   0.37489   0.92500   0.00000  Uiso   1.00
S645   S     0.30441   0.12514   0.92418   0.00000  Uiso   1.00
S646   S     0.19571   0.37489   0.74167   0.00000  Uiso   1.00
Zn647  Zn    0.25000   0.30307   0.83333   0.00000  Uiso   1.00
Zn648  Zn    0.25000   0.19693   0.83333   0.00000  Uiso   1.00
C649   C     0.66412   0.25001   0.83377   0.00000  Uiso   1.00
C650   C     0.73016   0.44794   0.79335   0.00000  Uiso   1.00
C651   C     0.74984   0.24999   0.73964   0.00000  Uiso   1.00
C652   C     0.75016   0.24999   0.92702   0.00000  Uiso   1.00
C653   C     0.75000   0.02661   0.83333   0.00000  Uiso   1.00
C654   C     0.75000   0.47368   0.83333   0.00000  Uiso   1.00
C655   C     0.74995   0.24996   0.68844   0.00000  Uiso   1.00
C656   C     0.75005   0.24996   0.97823   0.00000  Uiso   1.00
C657   C     0.54862   0.29032   0.84919   0.00000  Uiso   1.00
C658   C     0.95414   0.21095   0.84813   0.00000  Uiso   1.00
C659   C     0.95138   0.29032   0.81747   0.00000  Uiso   1.00
C660   C     0.83588   0.25001   0.83289   0.00000  Uiso   1.00
C661   C     0.54586   0.21095   0.81853   0.00000  Uiso   1.00
C662   C     0.59459   0.29015   0.84907   0.00000  Uiso   1.00
C663   C     0.90819   0.21029   0.84669   0.00000  Uiso   1.00
C664   C     0.90541   0.29015   0.81760   0.00000  Uiso   1.00
C665   C     0.59181   0.21029   0.81997   0.00000  Uiso   1.00
C666   C     0.61623   0.25011   0.83438   0.00000  Uiso   1.00
C667   C     0.88377   0.25011   0.83229   0.00000  Uiso   1.00
C668   C     0.52412   0.25082   0.83349   0.00000  Uiso   1.00
C669   C     0.97588   0.25082   0.83318   0.00000  Uiso   1.00
C670   C     0.72284   0.10119   0.79826   0.00000  Uiso   1.00
C671   C     0.77257   0.39907   0.87201   0.00000  Uiso   1.00
C672   C     0.77716   0.10119   0.86841   0.00000  Uiso   1.00
C673   C     0.72743   0.39907   0.79466   0.00000  Uiso   1.00
C674   C     0.72090   0.05233   0.80052   0.00000  Uiso   1.00
C675   C     0.76984   0.44794   0.87331   0.00000  Uiso   1.00
C676   C     0.77910   0.05233   0.86615   0.00000  Uiso   1.00
H677   H     0.53235   0.32106   0.86191   0.00000  Uiso   1.00
H678   H     0.78342   0.46572   0.90649   0.00000  Uiso   1.00
H679   H     0.80280   0.03446   0.89175   0.00000  Uiso   1.00
H680   H     0.71658   0.46572   0.76018   0.00000  Uiso   1.00
H681   H     0.65842   0.18534   0.71520   0.00000  Uiso   1.00
H682   H     0.84609   0.31598   0.94592   0.00000  Uiso   1.00
H683   H     0.84159   0.18534   0.95146   0.00000  Uiso   1.00
H684   H     0.65389   0.31599   0.72074   0.00000  Uiso   1.00
H685   H     0.97260   0.18037   0.86116   0.00000  Uiso   1.00
H686   H     0.96765   0.32106   0.80476   0.00000  Uiso   1.00
H687   H     0.52740   0.18037   0.80550   0.00000  Uiso   1.00
H688   H     0.61316   0.32100   0.86106   0.00000  Uiso   1.00
H689   H     0.89207   0.17879   0.85742   0.00000  Uiso   1.00
H690   H     0.88684   0.32100   0.80561   0.00000  Uiso   1.00
H691   H     0.60793   0.17879   0.80924   0.00000  Uiso   1.00
H692   H     0.69720   0.03446   0.77492   0.00000  Uiso   1.00
N693   N     0.75000   0.12624   0.83333   0.00000  Uiso   1.00
N694   N     0.75000   0.37377   0.83333   0.00000  Uiso   1.00
O695   O     0.68453   0.28974   0.83334   0.00000  Uiso   1.00
O696   O     0.66337   0.09055   0.71761   0.00000  Uiso   1.00
O697   O     0.66702   0.17413   0.74954   0.00000  Uiso   1.00
O698   O     0.83473   0.41133   0.94941   0.00000  Uiso   1.00
O699   O     0.77240   0.36052   0.96165   0.00000  Uiso   1.00
O700   O     0.83657   0.32975   0.91293   0.00000  Uiso   1.00
O701   O     0.76891   0.13434   0.95847   0.00000  Uiso   1.00
O702   O     0.83663   0.09055   0.94906   0.00000  Uiso   1.00
O703   O     0.83298   0.17413   0.91713   0.00000  Uiso   1.00
O704   O     0.66527   0.41133   0.71725   0.00000  Uiso   1.00
O705   O     0.72760   0.36052   0.70502   0.00000  Uiso   1.00
O706   O     0.81547   0.21026   0.83333   0.00000  Uiso   1.00
O707   O     0.66343   0.32975   0.75374   0.00000  Uiso   1.00
O708   O     0.81547   0.28974   0.83333   0.00000  Uiso   1.00
O709   O     0.68453   0.21026   0.83334   0.00000  Uiso   1.00
O710   O     0.75000   0.28973   0.76178   0.00000  Uiso   1.00
O711   O     0.75000   0.21027   0.90489   0.00000  Uiso   1.00
O712   O     0.75000   0.28973   0.90489   0.00000  Uiso   1.00
O713   O     0.75000   0.21027   0.76178   0.00000  Uiso   1.00
O714   O     0.73109   0.13434   0.70819   0.00000  Uiso   1.00
S715   S     0.69559   0.12514   0.74249   0.00000  Uiso   1.00
S716   S     0.80429   0.37489   0.92500   0.00000  Uiso   1.00
S717   S     0.80441   0.12514   0.92418   0.00000  Uiso   1.00
S718   S     0.69571   0.37489   0.74167   0.00000  Uiso   1.00
Zn719  Zn    0.75000   0.30307   0.83333   0.00000  Uiso   1.00
Zn720  Zn    0.75000   0.19693   0.83333   0.00000  Uiso   1.00
C721   C     0.16412   0.75001   0.83377   0.00000  Uiso   1.00
C722   C     0.23016   0.94794   0.79335   0.00000  Uiso   1.00
C723   C     0.24984   0.74999   0.73964   0.00000  Uiso   1.00
C724   C     0.25016   0.74999   0.92702   0.00000  Uiso   1.00
C725   C     0.25000   0.52661   0.83333   0.00000  Uiso   1.00
C726   C     0.25000   0.97368   0.83333   0.00000  Uiso   1.00
C727   C     0.24995   0.74996   0.68844   0.00000  Uiso   1.00
C728   C     0.25005   0.74996   0.97823   0.00000  Uiso   1.00
C729   C     0.04862   0.79032   0.84919   0.00000  Uiso   1.00
C730   C     0.45414   0.71095   0.84813   0.00000  Uiso   1.00
C731   C     0.45138   0.79032   0.81747   0.00000  Uiso   1.00
C732   C     0.33588   0.75001   0.83289   0.00000  Uiso   1.00
C733   C     0.04586   0.71095   0.81853   0.00000  Uiso   1.00
C734   C     0.09459   0.79015   0.84907   0.00000  Uiso   1.00
C735   C     0.40819   0.71029   0.84669   0.00000  Uiso   1.00
C736   C     0.40541   0.79015   0.81760   0.00000  Uiso   1.00
C737   C     0.09181   0.71029   0.81997   0.00000  Uiso   1.00
C738   C     0.11623   0.75011   0.83438   0.00000  Uiso   1.00
C739   C     0.38377   0.75011   0.83229   0.00000  Uiso   1.00
C740   C     0.02412   0.75082   0.83349   0.00000  Uiso   1.00
C741   C     0.47588   0.75082   0.83318   0.00000  Uiso   1.00
C742   C     0.22284   0.60119   0.79826   0.00000  Uiso   1.00
C743   C     0.27257   0.89907   0.87201   0.00000  Uiso   1.00
C744   C     0.27716   0.60119   0.86841   0.00000  Uiso   1.00
C745   C     0.22743   0.89907   0.79466   0.00000  Uiso   1.00
C746   C     0.22090   0.55233   0.80052   0.00000  Uiso   1.00
C747   C     0.26984   0.94794   0.87331   0.00000  Uiso   1.00
C748   C     0.27910   0.55233   0.86615   0.00000  Uiso   1.00
H749   H     0.03235   0.82106   0.86191   0.00000  Uiso   1.00
H750   H     0.28342   0.96572   0.90649   0.00000  Uiso   1.00
H751   H     0.30280   0.53446   0.89175   0.00000  Uiso   1.00
H752   H     0.21658   0.96572   0.76018   0.00000  Uiso   1.00
H753   H     0.15842   0.68534   0.71520   0.00000  Uiso   1.00
H754   H     0.34609   0.81598   0.94592   0.00000  Uiso   1.00
H755   H     0.34159   0.68534   0.95146   0.00000  Uiso   1.00
H756   H     0.15389   0.81599   0.72074   0.00000  Uiso   1.00
H757   H     0.47260   0.68037   0.86116   0.00000  Uiso   1.00
H758   H     0.46765   0.82106   0.80476   0.00000  Uiso   1.00
H759   H     0.02740   0.68037   0.80550   0.00000  Uiso   1.00
H760   H     0.11316   0.82100   0.86106   0.00000  Uiso   1.00
H761   H     0.39207   0.67879   0.85742   0.00000  Uiso   1.00
H762   H     0.38684   0.82100   0.80561   0.00000  Uiso   1.00
H763   H     0.10793   0.67879   0.80924   0.00000  Uiso   1.00
H764   H     0.19720   0.53446   0.77492   0.00000  Uiso   1.00
N765   N     0.25000   0.62624   0.83333   0.00000  Uiso   1.00
N766   N     0.25000   0.87377   0.83333   0.00000  Uiso   1.00
O767   O     0.18453   0.78974   0.83334   0.00000  Uiso   1.00
O768   O     0.16337   0.59055   0.71761   0.00000  Uiso   1.00
O769   O     0.16702   0.67413   0.74954   0.00000  Uiso   1.00
O770   O     0.33473   0.91133   0.94941   0.00000  Uiso   1.00
O771   O     0.27240   0.86052   0.96165   0.00000  Uiso   1.00
O772   O     0.33657   0.82975   0.91293   0.00000  Uiso   1.00
O773   O     0.26891   0.63434   0.95847   0.00000  Uiso   1.00
O774   O     0.33663   0.59055   0.94906   0.00000  Uiso   1.00
O775   O     0.33298   0.67413   0.91713   0.00000  Uiso   1.00
O776   O     0.16527   0.91133   0.71725   0.00000  Uiso   1.00
O777   O     0.22760   0.86052   0.70502   0.00000  Uiso   1.00
O778   O     0.31547   0.71026   0.83333   0.00000  Uiso   1.00
O779   O     0.16343   0.82975   0.75374   0.00000  Uiso   1.00
O780   O     0.31547   0.78974   0.83333   0.00000  Uiso   1.00
O781   O     0.18453   0.71026   0.83334   0.00000  Uiso   1.00
O782   O     0.25000   0.78973   0.76178   0.00000  Uiso   1.00
O783   O     0.25000   0.71027   0.90489   0.00000  Uiso   1.00
O784   O     0.25000   0.78973   0.90489   0.00000  Uiso   1.00
O785   O     0.25000   0.71027   0.76178   0.00000  Uiso   1.00
O786   O     0.23109   0.63434   0.70819   0.00000  Uiso   1.00
S787   S     0.19559   0.62514   0.74249   0.00000  Uiso   1.00
S788   S     0.30429   0.87489   0.92500   0.00000  Uiso   1.00
S789   S     0.30441   0.62514   0.92418   0.00000  Uiso   1.00
S790   S     0.19571   0.87489   0.74167   0.00000  Uiso   1.00
Zn791  Zn    0.25000   0.80307   0.83333   0.00000  Uiso   1.00
Zn792  Zn    0.25000   0.69693   0.83333   0.00000  Uiso   1.00
C793   C     0.66412   0.75001   0.83377   0.00000  Uiso   1.00
C794   C     0.73016   0.94794   0.79335   0.00000  Uiso   1.00
C795   C     0.74984   0.74999   0.73964   0.00000  Uiso   1.00
C796   C     0.75016   0.74999   0.92702   0.00000  Uiso   1.00
C797   C     0.75000   0.52661   0.83333   0.00000  Uiso   1.00
C798   C     0.75000   0.97368   0.83333   0.00000  Uiso   1.00
C799   C     0.74995   0.74996   0.68844   0.00000  Uiso   1.00
C800   C     0.75005   0.74996   0.97823   0.00000  Uiso   1.00
C801   C     0.54862   0.79032   0.84919   0.00000  Uiso   1.00
C802   C     0.95414   0.71095   0.84813   0.00000  Uiso   1.00
C803   C     0.95138   0.79032   0.81747   0.00000  Uiso   1.00
C804   C     0.83588   0.75001   0.83289   0.00000  Uiso   1.00
C805   C     0.54586   0.71095   0.81853   0.00000  Uiso   1.00
C806   C     0.59459   0.79015   0.84907   0.00000  Uiso   1.00
C807   C     0.90819   0.71029   0.84669   0.00000  Uiso   1.00
C808   C     0.90541   0.79015   0.81760   0.00000  Uiso   1.00
C809   C     0.59181   0.71029   0.81997   0.00000  Uiso   1.00
C810   C     0.61623   0.75011   0.83438   0.00000  Uiso   1.00
C811   C     0.88377   0.75011   0.83229   0.00000  Uiso   1.00
C812   C     0.52412   0.75082   0.83349   0.00000  Uiso   1.00
C813   C     0.97588   0.75082   0.83318   0.00000  Uiso   1.00
C814   C     0.72284   0.60119   0.79826   0.00000  Uiso   1.00
C815   C     0.77257   0.89907   0.87201   0.00000  Uiso   1.00
C816   C     0.77716   0.60119   0.86841   0.00000  Uiso   1.00
C817   C     0.72743   0.89907   0.79466   0.00000  Uiso   1.00
C818   C     0.72090   0.55233   0.80052   0.00000  Uiso   1.00
C819   C     0.76984   0.94794   0.87331   0.00000  Uiso   1.00
C820   C     0.77910   0.55233   0.86615   0.00000  Uiso   1.00
H821   H     0.53235   0.82106   0.86191   0.00000  Uiso   1.00
H822   H     0.78342   0.96572   0.90649   0.00000  Uiso   1.00
H823   H     0.80280   0.53446   0.89175   0.00000  Uiso   1.00
H824   H     0.71658   0.96572   0.76018   0.00000  Uiso   1.00
H825   H     0.65842   0.68534   0.71520   0.00000  Uiso   1.00
H826   H     0.84609   0.81598   0.94592   0.00000  Uiso   1.00
H827   H     0.84159   0.68534   0.95146   0.00000  Uiso   1.00
H828   H     0.65389   0.81599   0.72074   0.00000  Uiso   1.00
H829   H     0.97260   0.68037   0.86116   0.00000  Uiso   1.00
H830   H     0.96765   0.82106   0.80476   0.00000  Uiso   1.00
H831   H     0.52740   0.68037   0.80550   0.00000  Uiso   1.00
H832   H     0.61316   0.82100   0.86106   0.00000  Uiso   1.00
H833   H     0.89207   0.67879   0.85742   0.00000  Uiso   1.00
H834   H     0.88684   0.82100   0.80561   0.00000  Uiso   1.00
H835   H     0.60793   0.67879   0.80924   0.00000  Uiso   1.00
H836   H     0.69720   0.53446   0.77492   0.00000  Uiso   1.00
N837   N     0.75000   0.62624   0.83333   0.00000  Uiso   1.00
N838   N     0.75000   0.87377   0.83333   0.00000  Uiso   1.00
O839   O     0.68453   0.78974   0.83334   0.00000  Uiso   1.00
O840   O     0.66337   0.59055   0.71761   0.00000  Uiso   1.00
O841   O     0.66702   0.67413   0.74954   0.00000  Uiso   1.00
O842   O     0.83473   0.91133   0.94941   0.00000  Uiso   1.00
O843   O     0.77240   0.86052   0.96165   0.00000  Uiso   1.00
O844   O     0.83657   0.82975   0.91293   0.00000  Uiso   1.00
O845   O     0.76891   0.63434   0.95847   0.00000  Uiso   1.00
O846   O     0.83663   0.59055   0.94906   0.00000  Uiso   1.00
O847   O     0.83298   0.67413   0.91713   0.00000  Uiso   1.00
O848   O     0.66527   0.91133   0.71725   0.00000  Uiso   1.00
O849   O     0.72760   0.86052   0.70502   0.00000  Uiso   1.00
O850   O     0.81547   0.71026   0.83333   0.00000  Uiso   1.00
O851   O     0.66343   0.82975   0.75374   0.00000  Uiso   1.00
O852   O     0.81547   0.78974   0.83333   0.00000  Uiso   1.00
O853   O     0.68453   0.71026   0.83334   0.00000  Uiso   1.00
O854   O     0.75000   0.78973   0.76178   0.00000  Uiso   1.00
O855   O     0.75000   0.71027   0.90489   0.00000  Uiso   1.00
O856   O     0.75000   0.78973   0.90489   0.00000  Uiso   1.00
O857   O     0.75000   0.71027   0.76178   0.00000  Uiso   1.00
O858   O     0.73109   0.63434   0.70819   0.00000  Uiso   1.00
S859   S     0.69559   0.62514   0.74249   0.00000  Uiso   1.00
S860   S     0.80429   0.87489   0.92500   0.00000  Uiso   1.00
S861   S     0.80441   0.62514   0.92418   0.00000  Uiso   1.00
S862   S     0.69571   0.87489   0.74167   0.00000  Uiso   1.00
Zn863  Zn    0.75000   0.80307   0.83333   0.00000  Uiso   1.00
Zn864  Zn    0.75000   0.69693   0.83333   0.00000  Uiso   1.00
loop_
_geom_bond_atom_site_label_1
_geom_bond_atom_site_label_2
_geom_bond_distance
_geom_bond_site_symmetry_2
_ccdc_geom_bond_type
C1     C18     1.441   .     S
C1     O47     1.300   .     A
C1     O61     1.301   .     A
C2     C6      1.395   .     A
C2     C25     1.413   .     A
C2     H32     1.077   .     S
C3     O62     1.291   .     A
C3     C7      1.378   .     S
C3     O65     1.291   .     A
C4     C8      1.378   .     S
C4     O63     1.291   .     A
C4     O64     1.291   .     A
C5     C28     1.397   .     A
C5     C26     1.397   .     A
C5     C150    1.526   1_545 S
C6     C27     1.395   .     A
C6     C149    1.526   .     S
C7     C584    1.173   1_554 S
C8     C295    1.173   .     S
C9     C14     1.381   .     A
C9     C20     1.400   .     A
C9     H29     1.083   .     S
C10    C15     1.378   .     A
C10    C21     1.400   .     A
C10    H37     1.083   .     S
C11    H38     1.083   .     S
C11    C16     1.381   .     A
C11    C21     1.400   .     A
C12    O58     1.301   .     A
C12    C19     1.441   .     S
C12    O60     1.300   .     A
C13    C17     1.378   .     A
C13    H39     1.083   .     S
C13    C20     1.400   .     A
C14    C18     1.400   .     A
C14    H40     1.083   .     S
C15    C19     1.398   .     A
C15    H41     1.081   .     S
C16    C19     1.400   .     A
C16    H42     1.083   .     S
C17    H43     1.081   .     S
C17    C18     1.398   .     A
C20    C93     1.448   1_455 S
C21    C92     1.448   .     S
C22    N45     1.392   .     A
C22    C26     1.412   .     A
C22    S67     1.782   .     S
C23    S68     1.783   .     S
C23    N46     1.395   .     A
C23    C27     1.413   .     A
C24    S69     1.782   .     S
C24    N45     1.392   .     A
C24    C28     1.412   .     A
C25    S70     1.783   .     S
C25    N46     1.395   .     A
C26    H44     1.076   .     S
C27    H30     1.077   .     S
C28    H31     1.076   .     S
H33    O49     0.991   .     S
H34    O52     0.991   .     S
H35    O55     0.991   .     S
H36    O59     0.991   .     S
N45    Zn72    2.039   .     S
N46    Zn71    2.039   .     S
O47    Zn71    2.004   .     S
O48    S67     1.504   .     D
O49    S67     1.673   .     S
O50    S68     1.504   .     D
O51    S68     1.495   .     D
O52    S68     1.673   .     S
O53    S69     1.497   .     D
O54    S69     1.504   .     D
O55    S69     1.673   .     S
O56    S70     1.504   .     D
O57    S70     1.495   .     D
O58    Zn72    2.004   .     S
O59    S70     1.673   .     S
O60    Zn71    2.004   .     S
O61    Zn72    2.004   .     S
O62    Zn71    1.964   .     S
O63    Zn72    1.964   .     S
O64    Zn71    1.964   .     S
O65    Zn72    1.964   .     S
O66    S67     1.497   .     D
C73    C90     1.441   .     S
C73    O119    1.300   .     A
C73    O133    1.301   .     A
C74    C78     1.395   .     A
C74    C97     1.413   .     A
C74    H104    1.077   .     S
C75    O134    1.291   .     A
C75    C79     1.378   .     S
C75    O137    1.291   .     A
C76    C80     1.378   .     S
C76    O135    1.291   .     A
C76    O136    1.291   .     A
C77    C100    1.397   .     A
C77    C98     1.397   .     A
C77    C222    1.526   1_545 S
C78    C99     1.395   .     A
C78    C221    1.526   .     S
C79    C656    1.173   1_554 S
C80    C367    1.173   .     S
C81    C86     1.381   .     A
C81    C92     1.400   .     A
C81    H101    1.083   .     S
C82    C87     1.378   .     A
C82    C93     1.400   .     A
C82    H109    1.083   .     S
C83    H110    1.083   .     S
C83    C88     1.381   .     A
C83    C93     1.400   .     A
C84    O130    1.301   .     A
C84    C91     1.441   .     S
C84    O132    1.300   .     A
C85    C89     1.378   .     A
C85    H111    1.083   .     S
C85    C92     1.400   .     A
C86    C90     1.400   .     A
C86    H112    1.083   .     S
C87    C91     1.398   .     A
C87    H113    1.081   .     S
C88    C91     1.400   .     A
C88    H114    1.083   .     S
C89    H115    1.081   .     S
C89    C90     1.398   .     A
C93    C20     1.448   1_655 S
C94    N117    1.392   .     A
C94    C98     1.412   .     A
C94    S139    1.782   .     S
C95    S140    1.783   .     S
C95    N118    1.395   .     A
C95    C99     1.413   .     A
C96    S141    1.782   .     S
C96    N117    1.392   .     A
C96    C100    1.412   .     A
C97    S142    1.783   .     S
C97    N118    1.395   .     A
C98    H116    1.076   .     S
C99    H102    1.077   .     S
C100   H103    1.076   .     S
H105   O121    0.991   .     S
H106   O124    0.991   .     S
H107   O127    0.991   .     S
H108   O131    0.991   .     S
N117   Zn144   2.039   .     S
N118   Zn143   2.039   .     S
O119   Zn143   2.004   .     S
O120   S139    1.504   .     D
O121   S139    1.673   .     S
O122   S140    1.504   .     D
O123   S140    1.495   .     D
O124   S140    1.673   .     S
O125   S141    1.497   .     D
O126   S141    1.504   .     D
O127   S141    1.673   .     S
O128   S142    1.504   .     D
O129   S142    1.495   .     D
O130   Zn144   2.004   .     S
O131   S142    1.673   .     S
O132   Zn143   2.004   .     S
O133   Zn144   2.004   .     S
O134   Zn143   1.964   .     S
O135   Zn144   1.964   .     S
O136   Zn143   1.964   .     S
O137   Zn144   1.964   .     S
O138   S139    1.497   .     D
C145   C162    1.441   .     S
C145   O191    1.300   .     A
C145   O205    1.301   .     A
C146   C150    1.395   .     A
C146   C169    1.413   .     A
C146   H176    1.077   .     S
C147   O206    1.291   .     A
C147   C151    1.378   .     S
C147   O209    1.291   .     A
C148   C152    1.378   .     S
C148   O207    1.291   .     A
C148   O208    1.291   .     A
C149   C172    1.397   .     A
C149   C170    1.397   .     A
C150   C171    1.395   .     A
C150   C5      1.526   1_565 S
C151   C728    1.173   1_554 S
C152   C439    1.173   .     S
C153   C158    1.381   .     A
C153   C164    1.400   .     A
C153   H173    1.083   .     S
C154   C159    1.378   .     A
C154   C165    1.400   .     A
C154   H181    1.083   .     S
C155   H182    1.083   .     S
C155   C160    1.381   .     A
C155   C165    1.400   .     A
C156   O202    1.301   .     A
C156   C163    1.441   .     S
C156   O204    1.300   .     A
C157   C161    1.378   .     A
C157   H183    1.083   .     S
C157   C164    1.400   .     A
C158   C162    1.400   .     A
C158   H184    1.083   .     S
C159   C163    1.398   .     A
C159   H185    1.081   .     S
C160   C163    1.400   .     A
C160   H186    1.083   .     S
C161   H187    1.081   .     S
C161   C162    1.398   .     A
C164   C237    1.448   1_455 S
C165   C236    1.448   .     S
C166   N189    1.392   .     A
C166   C170    1.412   .     A
C166   S211    1.782   .     S
C167   S212    1.783   .     S
C167   N190    1.395   .     A
C167   C171    1.413   .     A
C168   S213    1.782   .     S
C168   N189    1.392   .     A
C168   C172    1.412   .     A
C169   S214    1.783   .     S
C169   N190    1.395   .     A
C170   H188    1.076   .     S
C171   H174    1.077   .     S
C172   H175    1.076   .     S
H177   O193    0.991   .     S
H178   O196    0.991   .     S
H179   O199    0.991   .     S
H180   O203    0.991   .     S
N189   Zn216   2.039   .     S
N190   Zn215   2.039   .     S
O191   Zn215   2.004   .     S
O192   S211    1.504   .     D
O193   S211    1.673   .     S
O194   S212    1.504   .     D
O195   S212    1.495   .     D
O196   S212    1.673   .     S
O197   S213    1.497   .     D
O198   S213    1.504   .     D
O199   S213    1.673   .     S
O200   S214    1.504   .     D
O201   S214    1.495   .     D
O202   Zn216   2.004   .     S
O203   S214    1.673   .     S
O204   Zn215   2.004   .     S
O205   Zn216   2.004   .     S
O206   Zn215   1.964   .     S
O207   Zn216   1.964   .     S
O208   Zn215   1.964   .     S
O209   Zn216   1.964   .     S
O210   S211    1.497   .     D
C217   C234    1.441   .     S
C217   O263    1.300   .     A
C217   O277    1.301   .     A
C218   C222    1.395   .     A
C218   C241    1.413   .     A
C218   H248    1.077   .     S
C219   O278    1.291   .     A
C219   C223    1.378   .     S
C219   O281    1.291   .     A
C220   C224    1.378   .     S
C220   O279    1.291   .     A
C220   O280    1.291   .     A
C221   C244    1.397   .     A
C221   C242    1.397   .     A
C222   C243    1.395   .     A
C222   C77     1.526   1_565 S
C223   C800    1.173   1_554 S
C224   C511    1.173   .     S
C225   C230    1.381   .     A
C225   C236    1.400   .     A
C225   H245    1.083   .     S
C226   C231    1.378   .     A
C226   C237    1.400   .     A
C226   H253    1.083   .     S
C227   H254    1.083   .     S
C227   C232    1.381   .     A
C227   C237    1.400   .     A
C228   O274    1.301   .     A
C228   C235    1.441   .     S
C228   O276    1.300   .     A
C229   C233    1.378   .     A
C229   H255    1.083   .     S
C229   C236    1.400   .     A
C230   C234    1.400   .     A
C230   H256    1.083   .     S
C231   C235    1.398   .     A
C231   H257    1.081   .     S
C232   C235    1.400   .     A
C232   H258    1.083   .     S
C233   H259    1.081   .     S
C233   C234    1.398   .     A
C237   C164    1.448   1_655 S
C238   N261    1.392   .     A
C238   C242    1.412   .     A
C238   S283    1.782   .     S
C239   S284    1.783   .     S
C239   N262    1.395   .     A
C239   C243    1.413   .     A
C240   S285    1.782   .     S
C240   N261    1.392   .     A
C240   C244    1.412   .     A
C241   S286    1.783   .     S
C241   N262    1.395   .     A
C242   H260    1.076   .     S
C243   H246    1.077   .     S
C244   H247    1.076   .     S
H249   O265    0.991   .     S
H250   O268    0.991   .     S
H251   O271    0.991   .     S
H252   O275    0.991   .     S
N261   Zn288   2.039   .     S
N262   Zn287   2.039   .     S
O263   Zn287   2.004   .     S
O264   S283    1.504   .     D
O265   S283    1.673   .     S
O266   S284    1.504   .     D
O267   S284    1.495   .     D
O268   S284    1.673   .     S
O269   S285    1.497   .     D
O270   S285    1.504   .     D
O271   S285    1.673   .     S
O272   S286    1.504   .     D
O273   S286    1.495   .     D
O274   Zn288   2.004   .     S
O275   S286    1.673   .     S
O276   Zn287   2.004   .     S
O277   Zn288   2.004   .     S
O278   Zn287   1.964   .     S
O279   Zn288   1.964   .     S
O280   Zn287   1.964   .     S
O281   Zn288   1.964   .     S
O282   S283    1.497   .     D
C289   C306    1.441   .     S
C289   O335    1.300   .     A
C289   O349    1.301   .     A
C290   C294    1.395   .     A
C290   C313    1.413   .     A
C290   H320    1.077   .     S
C291   O350    1.291   .     A
C291   C295    1.378   .     S
C291   O353    1.291   .     A
C292   C296    1.378   .     S
C292   O351    1.291   .     A
C292   O352    1.291   .     A
C293   C316    1.397   .     A
C293   C314    1.397   .     A
C293   C438    1.526   1_545 S
C294   C315    1.395   .     A
C294   C437    1.526   .     S
C296   C583    1.173   .     S
C297   C302    1.381   .     A
C297   C308    1.400   .     A
C297   H317    1.083   .     S
C298   C303    1.378   .     A
C298   C309    1.400   .     A
C298   H325    1.083   .     S
C299   H326    1.083   .     S
C299   C304    1.381   .     A
C299   C309    1.400   .     A
C300   O346    1.301   .     A
C300   C307    1.441   .     S
C300   O348    1.300   .     A
C301   C305    1.378   .     A
C301   H327    1.083   .     S
C301   C308    1.400   .     A
C302   C306    1.400   .     A
C302   H328    1.083   .     S
C303   C307    1.398   .     A
C303   H329    1.081   .     S
C304   C307    1.400   .     A
C304   H330    1.083   .     S
C305   H331    1.081   .     S
C305   C306    1.398   .     A
C308   C381    1.448   1_455 S
C309   C380    1.448   .     S
C310   N333    1.392   .     A
C310   C314    1.412   .     A
C310   S355    1.782   .     S
C311   S356    1.783   .     S
C311   N334    1.395   .     A
C311   C315    1.413   .     A
C312   S357    1.782   .     S
C312   N333    1.392   .     A
C312   C316    1.412   .     A
C313   S358    1.783   .     S
C313   N334    1.395   .     A
C314   H332    1.076   .     S
C315   H318    1.077   .     S
C316   H319    1.076   .     S
H321   O337    0.991   .     S
H322   O340    0.991   .     S
H323   O343    0.991   .     S
H324   O347    0.991   .     S
N333   Zn360   2.039   .     S
N334   Zn359   2.039   .     S
O335   Zn359   2.004   .     S
O336   S355    1.504   .     D
O337   S355    1.673   .     S
O338   S356    1.504   .     D
O339   S356    1.495   .     D
O340   S356    1.673   .     S
O341   S357    1.497   .     D
O342   S357    1.504   .     D
O343   S357    1.673   .     S
O344   S358    1.504   .     D
O345   S358    1.495   .     D
O346   Zn360   2.004   .     S
O347   S358    1.673   .     S
O348   Zn359   2.004   .     S
O349   Zn360   2.004   .     S
O350   Zn359   1.964   .     S
O351   Zn360   1.964   .     S
O352   Zn359   1.964   .     S
O353   Zn360   1.964   .     S
O354   S355    1.497   .     D
C361   C378    1.441   .     S
C361   O407    1.300   .     A
C361   O421    1.301   .     A
C362   C366    1.395   .     A
C362   C385    1.413   .     A
C362   H392    1.077   .     S
C363   O422    1.291   .     A
C363   C367    1.378   .     S
C363   O425    1.291   .     A
C364   C368    1.378   .     S
C364   O423    1.291   .     A
C364   O424    1.291   .     A
C365   C388    1.397   .     A
C365   C386    1.397   .     A
C365   C510    1.526   1_545 S
C366   C387    1.395   .     A
C366   C509    1.526   .     S
C368   C655    1.173   .     S
C369   C374    1.381   .     A
C369   C380    1.400   .     A
C369   H389    1.083   .     S
C370   C375    1.378   .     A
C370   C381    1.400   .     A
C370   H397    1.083   .     S
C371   H398    1.083   .     S
C371   C376    1.381   .     A
C371   C381    1.400   .     A
C372   O418    1.301   .     A
C372   C379    1.441   .     S
C372   O420    1.300   .     A
C373   C377    1.378   .     A
C373   H399    1.083   .     S
C373   C380    1.400   .     A
C374   C378    1.400   .     A
C374   H400    1.083   .     S
C375   C379    1.398   .     A
C375   H401    1.081   .     S
C376   C379    1.400   .     A
C376   H402    1.083   .     S
C377   H403    1.081   .     S
C377   C378    1.398   .     A
C381   C308    1.448   1_655 S
C382   N405    1.392   .     A
C382   C386    1.412   .     A
C382   S427    1.782   .     S
C383   S428    1.783   .     S
C383   N406    1.395   .     A
C383   C387    1.413   .     A
C384   S429    1.782   .     S
C384   N405    1.392   .     A
C384   C388    1.412   .     A
C385   S430    1.783   .     S
C385   N406    1.395   .     A
C386   H404    1.076   .     S
C387   H390    1.077   .     S
C388   H391    1.076   .     S
H393   O409    0.991   .     S
H394   O412    0.991   .     S
H395   O415    0.991   .     S
H396   O419    0.991   .     S
N405   Zn432   2.039   .     S
N406   Zn431   2.039   .     S
O407   Zn431   2.004   .     S
O408   S427    1.504   .     D
O409   S427    1.673   .     S
O410   S428    1.504   .     D
O411   S428    1.495   .     D
O412   S428    1.673   .     S
O413   S429    1.497   .     D
O414   S429    1.504   .     D
O415   S429    1.673   .     S
O416   S430    1.504   .     D
O417   S430    1.495   .     D
O418   Zn432   2.004   .     S
O419   S430    1.673   .     S
O420   Zn431   2.004   .     S
O421   Zn432   2.004   .     S
O422   Zn431   1.964   .     S
O423   Zn432   1.964   .     S
O424   Zn431   1.964   .     S
O425   Zn432   1.964   .     S
O426   S427    1.497   .     D
C433   C450    1.441   .     S
C433   O479    1.300   .     A
C433   O493    1.301   .     A
C434   C438    1.395   .     A
C434   C457    1.413   .     A
C434   H464    1.077   .     S
C435   O494    1.291   .     A
C435   C439    1.378   .     S
C435   O497    1.291   .     A
C436   C440    1.378   .     S
C436   O495    1.291   .     A
C436   O496    1.291   .     A
C437   C460    1.397   .     A
C437   C458    1.397   .     A
C438   C459    1.395   .     A
C438   C293    1.526   1_565 S
C440   C727    1.173   .     S
C441   C446    1.381   .     A
C441   C452    1.400   .     A
C441   H461    1.083   .     S
C442   C447    1.378   .     A
C442   C453    1.400   .     A
C442   H469    1.083   .     S
C443   H470    1.083   .     S
C443   C448    1.381   .     A
C443   C453    1.400   .     A
C444   O490    1.301   .     A
C444   C451    1.441   .     S
C444   O492    1.300   .     A
C445   C449    1.378   .     A
C445   H471    1.083   .     S
C445   C452    1.400   .     A
C446   C450    1.400   .     A
C446   H472    1.083   .     S
C447   C451    1.398   .     A
C447   H473    1.081   .     S
C448   C451    1.400   .     A
C448   H474    1.083   .     S
C449   H475    1.081   .     S
C449   C450    1.398   .     A
C452   C525    1.448   1_455 S
C453   C524    1.448   .     S
C454   N477    1.392   .     A
C454   C458    1.412   .     A
C454   S499    1.782   .     S
C455   S500    1.783   .     S
C455   N478    1.395   .     A
C455   C459    1.413   .     A
C456   S501    1.782   .     S
C456   N477    1.392   .     A
C456   C460    1.412   .     A
C457   S502    1.783   .     S
C457   N478    1.395   .     A
C458   H476    1.076   .     S
C459   H462    1.077   .     S
C460   H463    1.076   .     S
H465   O481    0.991   .     S
H466   O484    0.991   .     S
H467   O487    0.991   .     S
H468   O491    0.991   .     S
N477   Zn504   2.039   .     S
N478   Zn503   2.039   .     S
O479   Zn503   2.004   .     S
O480   S499    1.504   .     D
O481   S499    1.673   .     S
O482   S500    1.504   .     D
O483   S500    1.495   .     D
O484   S500    1.673   .     S
O485   S501    1.497   .     D
O486   S501    1.504   .     D
O487   S501    1.673   .     S
O488   S502    1.504   .     D
O489   S502    1.495   .     D
O490   Zn504   2.004   .     S
O491   S502    1.673   .     S
O492   Zn503   2.004   .     S
O493   Zn504   2.004   .     S
O494   Zn503   1.964   .     S
O495   Zn504   1.964   .     S
O496   Zn503   1.964   .     S
O497   Zn504   1.964   .     S
O498   S499    1.497   .     D
C505   C522    1.441   .     S
C505   O551    1.300   .     A
C505   O565    1.301   .     A
C506   C510    1.395   .     A
C506   C529    1.413   .     A
C506   H536    1.077   .     S
C507   O566    1.291   .     A
C507   C511    1.378   .     S
C507   O569    1.291   .     A
C508   C512    1.378   .     S
C508   O567    1.291   .     A
C508   O568    1.291   .     A
C509   C532    1.397   .     A
C509   C530    1.397   .     A
C510   C531    1.395   .     A
C510   C365    1.526   1_565 S
C512   C799    1.173   .     S
C513   C518    1.381   .     A
C513   C524    1.400   .     A
C513   H533    1.083   .     S
C514   C519    1.378   .     A
C514   C525    1.400   .     A
C514   H541    1.083   .     S
C515   H542    1.083   .     S
C515   C520    1.381   .     A
C515   C525    1.400   .     A
C516   O562    1.301   .     A
C516   C523    1.441   .     S
C516   O564    1.300   .     A
C517   C521    1.378   .     A
C517   H543    1.083   .     S
C517   C524    1.400   .     A
C518   C522    1.400   .     A
C518   H544    1.083   .     S
C519   C523    1.398   .     A
C519   H545    1.081   .     S
C520   C523    1.400   .     A
C520   H546    1.083   .     S
C521   H547    1.081   .     S
C521   C522    1.398   .     A
C525   C452    1.448   1_655 S
C526   N549    1.392   .     A
C526   C530    1.412   .     A
C526   S571    1.782   .     S
C527   S572    1.783   .     S
C527   N550    1.395   .     A
C527   C531    1.413   .     A
C528   S573    1.782   .     S
C528   N549    1.392   .     A
C528   C532    1.412   .     A
C529   S574    1.783   .     S
C529   N550    1.395   .     A
C530   H548    1.076   .     S
C531   H534    1.077   .     S
C532   H535    1.076   .     S
H537   O553    0.991   .     S
H538   O556    0.991   .     S
H539   O559    0.991   .     S
H540   O563    0.991   .     S
N549   Zn576   2.039   .     S
N550   Zn575   2.039   .     S
O551   Zn575   2.004   .     S
O552   S571    1.504   .     D
O553   S571    1.673   .     S
O554   S572    1.504   .     D
O555   S572    1.495   .     D
O556   S572    1.673   .     S
O557   S573    1.497   .     D
O558   S573    1.504   .     D
O559   S573    1.673   .     S
O560   S574    1.504   .     D
O561   S574    1.495   .     D
O562   Zn576   2.004   .     S
O563   S574    1.673   .     S
O564   Zn575   2.004   .     S
O565   Zn576   2.004   .     S
O566   Zn575   1.964   .     S
O567   Zn576   1.964   .     S
O568   Zn575   1.964   .     S
O569   Zn576   1.964   .     S
O570   S571    1.497   .     D
C577   C594    1.441   .     S
C577   O623    1.300   .     A
C577   O637    1.301   .     A
C578   C582    1.395   .     A
C578   C601    1.413   .     A
C578   H608    1.077   .     S
C579   O638    1.291   .     A
C579   C583    1.378   .     S
C579   O641    1.291   .     A
C580   C584    1.378   .     S
C580   O639    1.291   .     A
C580   O640    1.291   .     A
C581   C604    1.397   .     A
C581   C602    1.397   .     A
C581   C726    1.526   1_545 S
C582   C603    1.395   .     A
C582   C725    1.526   .     S
C584   C7      1.173   1_556 S
C585   C590    1.381   .     A
C585   C596    1.400   .     A
C585   H605    1.083   .     S
C586   C591    1.378   .     A
C586   C597    1.400   .     A
C586   H613    1.083   .     S
C587   H614    1.083   .     S
C587   C592    1.381   .     A
C587   C597    1.400   .     A
C588   O634    1.301   .     A
C588   C595    1.441   .     S
C588   O636    1.300   .     A
C589   C593    1.378   .     A
C589   H615    1.083   .     S
C589   C596    1.400   .     A
C590   C594    1.400   .     A
C590   H616    1.083   .     S
C591   C595    1.398   .     A
C591   H617    1.081   .     S
C592   C595    1.400   .     A
C592   H618    1.083   .     S
C593   H619    1.081   .     S
C593   C594    1.398   .     A
C596   C669    1.448   1_455 S
C597   C668    1.448   .     S
C598   N621    1.392   .     A
C598   C602    1.412   .     A
C598   S643    1.782   .     S
C599   S644    1.783   .     S
C599   N622    1.395   .     A
C599   C603    1.413   .     A
C600   S645    1.782   .     S
C600   N621    1.392   .     A
C600   C604    1.412   .     A
C601   S646    1.783   .     S
C601   N622    1.395   .     A
C602   H620    1.076   .     S
C603   H606    1.077   .     S
C604   H607    1.076   .     S
H609   O625    0.991   .     S
H610   O628    0.991   .     S
H611   O631    0.991   .     S
H612   O635    0.991   .     S
N621   Zn648   2.039   .     S
N622   Zn647   2.039   .     S
O623   Zn647   2.004   .     S
O624   S643    1.504   .     D
O625   S643    1.673   .     S
O626   S644    1.504   .     D
O627   S644    1.495   .     D
O628   S644    1.673   .     S
O629   S645    1.497   .     D
O630   S645    1.504   .     D
O631   S645    1.673   .     S
O632   S646    1.504   .     D
O633   S646    1.495   .     D
O634   Zn648   2.004   .     S
O635   S646    1.673   .     S
O636   Zn647   2.004   .     S
O637   Zn648   2.004   .     S
O638   Zn647   1.964   .     S
O639   Zn648   1.964   .     S
O640   Zn647   1.964   .     S
O641   Zn648   1.964   .     S
O642   S643    1.497   .     D
C649   C666    1.441   .     S
C649   O695    1.300   .     A
C649   O709    1.301   .     A
C650   C654    1.395   .     A
C650   C673    1.413   .     A
C650   H680    1.077   .     S
C651   O710    1.291   .     A
C651   C655    1.378   .     S
C651   O713    1.291   .     A
C652   C656    1.378   .     S
C652   O711    1.291   .     A
C652   O712    1.291   .     A
C653   C676    1.397   .     A
C653   C674    1.397   .     A
C653   C798    1.526   1_545 S
C654   C675    1.395   .     A
C654   C797    1.526   .     S
C656   C79     1.173   1_556 S
C657   C662    1.381   .     A
C657   C668    1.400   .     A
C657   H677    1.083   .     S
C658   C663    1.378   .     A
C658   C669    1.400   .     A
C658   H685    1.083   .     S
C659   H686    1.083   .     S
C659   C664    1.381   .     A
C659   C669    1.400   .     A
C660   O706    1.301   .     A
C660   C667    1.441   .     S
C660   O708    1.300   .     A
C661   C665    1.378   .     A
C661   H687    1.083   .     S
C661   C668    1.400   .     A
C662   C666    1.400   .     A
C662   H688    1.083   .     S
C663   C667    1.398   .     A
C663   H689    1.081   .     S
C664   C667    1.400   .     A
C664   H690    1.083   .     S
C665   H691    1.081   .     S
C665   C666    1.398   .     A
C669   C596    1.448   1_655 S
C670   N693    1.392   .     A
C670   C674    1.412   .     A
C670   S715    1.782   .     S
C671   S716    1.783   .     S
C671   N694    1.395   .     A
C671   C675    1.413   .     A
C672   S717    1.782   .     S
C672   N693    1.392   .     A
C672   C676    1.412   .     A
C673   S718    1.783   .     S
C673   N694    1.395   .     A
C674   H692    1.076   .     S
C675   H678    1.077   .     S
C676   H679    1.076   .     S
H681   O697    0.991   .     S
H682   O700    0.991   .     S
H683   O703    0.991   .     S
H684   O707    0.991   .     S
N693   Zn720   2.039   .     S
N694   Zn719   2.039   .     S
O695   Zn719   2.004   .     S
O696   S715    1.504   .     D
O697   S715    1.673   .     S
O698   S716    1.504   .     D
O699   S716    1.495   .     D
O700   S716    1.673   .     S
O701   S717    1.497   .     D
O702   S717    1.504   .     D
O703   S717    1.673   .     S
O704   S718    1.504   .     D
O705   S718    1.495   .     D
O706   Zn720   2.004   .     S
O707   S718    1.673   .     S
O708   Zn719   2.004   .     S
O709   Zn720   2.004   .     S
O710   Zn719   1.964   .     S
O711   Zn720   1.964   .     S
O712   Zn719   1.964   .     S
O713   Zn720   1.964   .     S
O714   S715    1.497   .     D
C721   C738    1.441   .     S
C721   O767    1.300   .     A
C721   O781    1.301   .     A
C722   C726    1.395   .     A
C722   C745    1.413   .     A
C722   H752    1.077   .     S
C723   O782    1.291   .     A
C723   C727    1.378   .     S
C723   O785    1.291   .     A
C724   C728    1.378   .     S
C724   O783    1.291   .     A
C724   O784    1.291   .     A
C725   C748    1.397   .     A
C725   C746    1.397   .     A
C726   C747    1.395   .     A
C726   C581    1.526   1_565 S
C728   C151    1.173   1_556 S
C729   C734    1.381   .     A
C729   C740    1.400   .     A
C729   H749    1.083   .     S
C730   C735    1.378   .     A
C730   C741    1.400   .     A
C730   H757    1.083   .     S
C731   H758    1.083   .     S
C731   C736    1.381   .     A
C731   C741    1.400   .     A
C732   O778    1.301   .     A
C732   C739    1.441   .     S
C732   O780    1.300   .     A
C733   C737    1.378   .     A
C733   H759    1.083   .     S
C733   C740    1.400   .     A
C734   C738    1.400   .     A
C734   H760    1.083   .     S
C735   C739    1.398   .     A
C735   H761    1.081   .     S
C736   C739    1.400   .     A
C736   H762    1.083   .     S
C737   H763    1.081   .     S
C737   C738    1.398   .     A
C740   C813    1.448   1_455 S
C741   C812    1.448   .     S
C742   N765    1.392   .     A
C742   C746    1.412   .     A
C742   S787    1.782   .     S
C743   S788    1.783   .     S
C743   N766    1.395   .     A
C743   C747    1.413   .     A
C744   S789    1.782   .     S
C744   N765    1.392   .     A
C744   C748    1.412   .     A
C745   S790    1.783   .     S
C745   N766    1.395   .     A
C746   H764    1.076   .     S
C747   H750    1.077   .     S
C748   H751    1.076   .     S
H753   O769    0.991   .     S
H754   O772    0.991   .     S
H755   O775    0.991   .     S
H756   O779    0.991   .     S
N765   Zn792   2.039   .     S
N766   Zn791   2.039   .     S
O767   Zn791   2.004   .     S
O768   S787    1.504   .     D
O769   S787    1.673   .     S
O770   S788    1.504   .     D
O771   S788    1.495   .     D
O772   S788    1.673   .     S
O773   S789    1.497   .     D
O774   S789    1.504   .     D
O775   S789    1.673   .     S
O776   S790    1.504   .     D
O777   S790    1.495   .     D
O778   Zn792   2.004   .     S
O779   S790    1.673   .     S
O780   Zn791   2.004   .     S
O781   Zn792   2.004   .     S
O782   Zn791   1.964   .     S
O783   Zn792   1.964   .     S
O784   Zn791   1.964   .     S
O785   Zn792   1.964   .     S
O786   S787    1.497   .     D
C793   C810    1.441   .     S
C793   O839    1.300   .     A
C793   O853    1.301   .     A
C794   C798    1.395   .     A
C794   C817    1.413   .     A
C794   H824    1.077   .     S
C795   O854    1.291   .     A
C795   C799    1.378   .     S
C795   O857    1.291   .     A
C796   C800    1.378   .     S
C796   O855    1.291   .     A
C796   O856    1.291   .     A
C797   C820    1.397   .     A
C797   C818    1.397   .     A
C798   C819    1.395   .     A
C798   C653    1.526   1_565 S
C800   C223    1.173   1_556 S
C801   C806    1.381   .     A
C801   C812    1.400   .     A
C801   H821    1.083   .     S
C802   C807    1.378   .     A
C802   C813    1.400   .     A
C802   H829    1.083   .     S
C803   H830    1.083   .     S
C803   C808    1.381   .     A
C803   C813    1.400   .     A
C804   O850    1.301   .     A
C804   C811    1.441   .     S
C804   O852    1.300   .     A
C805   C809    1.378   .     A
C805   H831    1.083   .     S
C805   C812    1.400   .     A
C806   C810    1.400   .     A
C806   H832    1.083   .     S
C807   C811    1.398   .     A
C807   H833    1.081   .     S
C808   C811    1.400   .     A
C808   H834    1.083   .     S
C809   H835    1.081   .     S
C809   C810    1.398   .     A
C813   C740    1.448   1_655 S
C814   N837    1.392   .     A
C814   C818    1.412   .     A
C814   S859    1.782   .     S
C815   S860    1.783   .     S
C815   N838    1.395   .     A
C815   C819    1.413   .     A
C816   S861    1.782   .     S
C816   N837    1.392   .     A
C816   C820    1.412   .     A
C817   S862    1.783   .     S
C817   N838    1.395   .     A
C818   H836    1.076   .     S
C819   H822    1.077   .     S
C820   H823    1.076   .     S
H825   O841    0.991   .     S
H826   O844    0.991   .     S
H827   O847    0.991   .     S
H828   O851    0.991   .     S
N837   Zn864   2.039   .     S
N838   Zn863   2.039   .     S
O839   Zn863   2.004   .     S
O840   S859    1.504   .     D
O841   S859    1.673   .     S
O842   S860    1.504   .     D
O843   S860    1.495   .     D
O844   S860    1.673   .     S
O845   S861    1.497   .     D
O846   S861    1.504   .     D
O847   S861    1.673   .     S
O848   S862    1.504   .     D
O849   S862    1.495   .     D
O850   Zn864   2.004   .     S
O851   S862    1.673   .     S
O852   Zn863   2.004   .     S
O853   Zn864   2.004   .     S
O854   Zn863   1.964   .     S
O855   Zn864   1.964   .     S
O856   Zn863   1.964   .     S
O857   Zn864   1.964   .     S
O858   S859    1.497   .     D
