data_str_m3_o1_o18_pcu_sym.151
_audit_creation_date              2020-01-03
_audit_creation_method            'Materials Studio'
_symmetry_space_group_name_H-M    'P1'
_symmetry_Int_Tables_number       1
_symmetry_cell_setting            triclinic
loop_
_symmetry_equiv_pos_as_xyz
  x,y,z
_cell_length_a                    29.6060
_cell_length_b                    31.9744
_cell_length_c                    30.5222
_cell_angle_alpha                 89.9722
_cell_angle_beta                  66.7776
_cell_angle_gamma                 89.6990
loop_
_atom_site_label
_atom_site_type_symbol
_atom_site_fract_x
_atom_site_fract_y
_atom_site_fract_z
_atom_site_U_iso_or_equiv
_atom_site_adp_type
_atom_site_occupancy
C1     C     0.16585   0.24656   0.25171   0.00000  Uiso   1.00
C2     C     0.16750   0.08677   0.24820   0.00000  Uiso   1.00
C3     C     0.10028   0.16599   0.06093   0.00000  Uiso   1.00
C4     C     0.19226   0.10154   0.46545   0.00000  Uiso   1.00
C5     C     0.06796   0.17645   0.03928   0.00000  Uiso   1.00
C6     C     0.22630   0.09306   0.48566   0.00000  Uiso   1.00
C7     C     0.18194   0.31299   0.28319   0.00000  Uiso   1.00
C8     C     0.15105   0.02032   0.21691   0.00000  Uiso   1.00
C9     C     0.18429   0.02257   0.27899   0.00000  Uiso   1.00
C10    C     0.14890   0.31074   0.22099   0.00000  Uiso   1.00
C11    C     0.16849   0.04257   0.24685   0.00000  Uiso   1.00
C12    C     0.16478   0.29076   0.25307   0.00000  Uiso   1.00
C13    C     0.31385   0.13110   0.23963   0.00000  Uiso   1.00
C14    C     0.01924   0.20210   0.26103   0.00000  Uiso   1.00
C15    C     0.02846   0.13116   0.23934   0.00000  Uiso   1.00
C16    C     0.30476   0.20211   0.26095   0.00000  Uiso   1.00
C17    C     0.13543   0.16706   0.33873   0.00000  Uiso   1.00
C18    C     0.19780   0.16512   0.16133   0.00000  Uiso   1.00
C19    C     0.11386   0.16664   0.39117   0.00000  Uiso   1.00
C20    C     0.21734   0.15464   0.11022   0.00000  Uiso   1.00
C21    C     0.05105   0.18498   0.46850   0.00000  Uiso   1.00
C22    C     0.25819   0.10510   0.04623   0.00000  Uiso   1.00
C23    C     0.06628   0.18243   0.41898   0.00000  Uiso   1.00
C24    C     0.25375   0.12332   0.08951   0.00000  Uiso   1.00
C25    C     0.14302   0.15090   0.41390   0.00000  Uiso   1.00
C26    C     0.18801   0.16715   0.08630   0.00000  Uiso   1.00
C27    C     0.12607   0.14970   0.46361   0.00000  Uiso   1.00
C28    C     0.18569   0.14312   0.04896   0.00000  Uiso   1.00
C29    C     0.08143   0.17026   0.49062   0.00000  Uiso   1.00
C30    C     0.22397   0.11420   0.02637   0.00000  Uiso   1.00
C31    C     0.15526   0.13272   0.48658   0.00000  Uiso   1.00
C32    C     0.14709   0.14785   0.03281   0.00000  Uiso   1.00
H33    H     0.03240   0.19024   0.06030   0.00000  Uiso   1.00
H34    H     0.25427   0.06919   0.47017   0.00000  Uiso   1.00
H35    H     0.16397   0.19384   0.09999   0.00000  Uiso   1.00
H36    H     0.18021   0.14113   0.39232   0.00000  Uiso   1.00
H37    H     0.01576   0.19915   0.48970   0.00000  Uiso   1.00
H38    H     0.28663   0.08183   0.02953   0.00000  Uiso   1.00
H39    H     0.19628   0.04079   0.30241   0.00000  Uiso   1.00
H40    H     0.13686   0.29250   0.19763   0.00000  Uiso   1.00
H41    H     0.29948   0.10255   0.23127   0.00000  Uiso   1.00
H42    H     0.03337   0.23050   0.27000   0.00000  Uiso   1.00
H43    H     0.05011   0.10273   0.23051   0.00000  Uiso   1.00
H44    H     0.28308   0.23053   0.26984   0.00000  Uiso   1.00
N45    N     0.04759   0.16668   0.25001   0.00000  Uiso   1.00
N46    N     0.28574   0.16666   0.24999   0.00000  Uiso   1.00
O47    O     0.12846   0.22775   0.25001   0.00000  Uiso   1.00
O48    O     0.20488   0.10558   0.25000   0.00000  Uiso   1.00
O49    O     0.20490   0.22774   0.25000   0.00000  Uiso   1.00
O50    O     0.12843   0.10559   0.25000   0.00000  Uiso   1.00
O51    O     0.10661   0.16667   0.31613   0.00000  Uiso   1.00
O52    O     0.22672   0.16666   0.18388   0.00000  Uiso   1.00
O53    O     0.18305   0.16666   0.31612   0.00000  Uiso   1.00
O54    O     0.15028   0.16667   0.18388   0.00000  Uiso   1.00
Zn55   Zn    0.11562   0.16667   0.25000   0.00000  Uiso   1.00
Zn56   Zn    0.21771   0.16666   0.25000   0.00000  Uiso   1.00
C57    C     0.28499   0.10620   0.11299   0.00000  Uiso   1.00
O58    O     0.28951   0.06831   0.11534   0.00000  Uiso   1.00
O59    O     0.31113   0.13295   0.13035   0.00000  Uiso   1.00
H60    H     0.33248   0.11700   0.14371   0.00000  Uiso   1.00
C61    C     0.03264   0.19889   0.39778   0.00000  Uiso   1.00
O62    O     0.02499   0.23647   0.39835   0.00000  Uiso   1.00
O63    O     0.00823   0.17201   0.37843   0.00000  Uiso   1.00
H64    H     0.01599   0.14147   0.38135   0.00000  Uiso   1.00
C65    C     0.08099   0.16874   0.11371   0.00000  Uiso   1.00
H66    H     0.09395   0.14709   0.13363   0.00000  Uiso   1.00
O67    O     0.05021   0.19499   0.13551   0.00000  Uiso   1.00
C68    C     0.19152   0.07293   0.42730   0.00000  Uiso   1.00
H69    H     0.15842   0.06969   0.42046   0.00000  Uiso   1.00
O70    O     0.22768   0.05225   0.40344   0.00000  Uiso   1.00
C71    C     0.19531   0.29310   0.32054   0.00000  Uiso   1.00
O72    O     0.17427   0.26156   0.34101   0.00000  Uiso   1.00
O73    O     0.23109   0.31143   0.33344   0.00000  Uiso   1.00
H74    H     0.23679   0.29530   0.35943   0.00000  Uiso   1.00
C75    C     0.13691   0.04016   0.18000   0.00000  Uiso   1.00
O76    O     0.15725   0.07198   0.15972   0.00000  Uiso   1.00
O77    O     0.10116   0.02150   0.16731   0.00000  Uiso   1.00
H78    H     0.09481   0.03773   0.14173   0.00000  Uiso   1.00
C79    C     0.49919   0.24656   0.25171   0.00000  Uiso   1.00
C80    C     0.50083   0.08677   0.24820   0.00000  Uiso   1.00
C81    C     0.43361   0.16599   0.06093   0.00000  Uiso   1.00
C82    C     0.52559   0.10154   0.46545   0.00000  Uiso   1.00
C83    C     0.40129   0.17645   0.03928   0.00000  Uiso   1.00
C84    C     0.55963   0.09306   0.48566   0.00000  Uiso   1.00
C85    C     0.51527   0.31299   0.28319   0.00000  Uiso   1.00
C86    C     0.48438   0.02032   0.21691   0.00000  Uiso   1.00
C87    C     0.51763   0.02257   0.27899   0.00000  Uiso   1.00
C88    C     0.48224   0.31074   0.22099   0.00000  Uiso   1.00
C89    C     0.50182   0.04257   0.24685   0.00000  Uiso   1.00
C90    C     0.49811   0.29076   0.25307   0.00000  Uiso   1.00
C91    C     0.64718   0.13110   0.23963   0.00000  Uiso   1.00
C92    C     0.35258   0.20210   0.26103   0.00000  Uiso   1.00
C93    C     0.36179   0.13116   0.23934   0.00000  Uiso   1.00
C94    C     0.63809   0.20211   0.26095   0.00000  Uiso   1.00
C95    C     0.46877   0.16706   0.33873   0.00000  Uiso   1.00
C96    C     0.53114   0.16512   0.16133   0.00000  Uiso   1.00
C97    C     0.44719   0.16664   0.39117   0.00000  Uiso   1.00
C98    C     0.55068   0.15464   0.11022   0.00000  Uiso   1.00
C99    C     0.38438   0.18498   0.46850   0.00000  Uiso   1.00
C100   C     0.59152   0.10510   0.04623   0.00000  Uiso   1.00
C101   C     0.39962   0.18243   0.41898   0.00000  Uiso   1.00
C102   C     0.58708   0.12332   0.08951   0.00000  Uiso   1.00
C103   C     0.47635   0.15090   0.41390   0.00000  Uiso   1.00
C104   C     0.52134   0.16715   0.08630   0.00000  Uiso   1.00
C105   C     0.45940   0.14970   0.46361   0.00000  Uiso   1.00
C106   C     0.51902   0.14312   0.04896   0.00000  Uiso   1.00
C107   C     0.41476   0.17026   0.49062   0.00000  Uiso   1.00
C108   C     0.55731   0.11420   0.02637   0.00000  Uiso   1.00
C109   C     0.48860   0.13272   0.48658   0.00000  Uiso   1.00
C110   C     0.48042   0.14785   0.03281   0.00000  Uiso   1.00
H111   H     0.36574   0.19024   0.06030   0.00000  Uiso   1.00
H112   H     0.58760   0.06919   0.47017   0.00000  Uiso   1.00
H113   H     0.49730   0.19384   0.09999   0.00000  Uiso   1.00
H114   H     0.51355   0.14113   0.39232   0.00000  Uiso   1.00
H115   H     0.34910   0.19915   0.48970   0.00000  Uiso   1.00
H116   H     0.61997   0.08183   0.02953   0.00000  Uiso   1.00
H117   H     0.52961   0.04079   0.30241   0.00000  Uiso   1.00
H118   H     0.47019   0.29250   0.19763   0.00000  Uiso   1.00
H119   H     0.63282   0.10255   0.23127   0.00000  Uiso   1.00
H120   H     0.36671   0.23050   0.27000   0.00000  Uiso   1.00
H121   H     0.38345   0.10273   0.23051   0.00000  Uiso   1.00
H122   H     0.61641   0.23053   0.26984   0.00000  Uiso   1.00
N123   N     0.38093   0.16668   0.25001   0.00000  Uiso   1.00
N124   N     0.61907   0.16666   0.24999   0.00000  Uiso   1.00
O125   O     0.46179   0.22775   0.25001   0.00000  Uiso   1.00
O126   O     0.53821   0.10558   0.25000   0.00000  Uiso   1.00
O127   O     0.53823   0.22774   0.25000   0.00000  Uiso   1.00
O128   O     0.46177   0.10559   0.25000   0.00000  Uiso   1.00
O129   O     0.43994   0.16667   0.31613   0.00000  Uiso   1.00
O130   O     0.56006   0.16666   0.18388   0.00000  Uiso   1.00
O131   O     0.51639   0.16666   0.31612   0.00000  Uiso   1.00
O132   O     0.48361   0.16667   0.18388   0.00000  Uiso   1.00
Zn133  Zn    0.44896   0.16667   0.25000   0.00000  Uiso   1.00
Zn134  Zn    0.55104   0.16666   0.25000   0.00000  Uiso   1.00
C135   C     0.61832   0.10620   0.11299   0.00000  Uiso   1.00
O136   O     0.62285   0.06831   0.11534   0.00000  Uiso   1.00
O137   O     0.64447   0.13295   0.13035   0.00000  Uiso   1.00
H138   H     0.66582   0.11700   0.14371   0.00000  Uiso   1.00
C139   C     0.36598   0.19889   0.39778   0.00000  Uiso   1.00
O140   O     0.35832   0.23647   0.39835   0.00000  Uiso   1.00
O141   O     0.34157   0.17201   0.37843   0.00000  Uiso   1.00
H142   H     0.34933   0.14147   0.38135   0.00000  Uiso   1.00
C143   C     0.41432   0.16874   0.11371   0.00000  Uiso   1.00
H144   H     0.42729   0.14709   0.13363   0.00000  Uiso   1.00
O145   O     0.38355   0.19499   0.13551   0.00000  Uiso   1.00
C146   C     0.52485   0.07293   0.42730   0.00000  Uiso   1.00
H147   H     0.49175   0.06969   0.42046   0.00000  Uiso   1.00
O148   O     0.56101   0.05225   0.40344   0.00000  Uiso   1.00
C149   C     0.52865   0.29310   0.32054   0.00000  Uiso   1.00
O150   O     0.50760   0.26156   0.34101   0.00000  Uiso   1.00
O151   O     0.56442   0.31143   0.33344   0.00000  Uiso   1.00
H152   H     0.57013   0.29530   0.35943   0.00000  Uiso   1.00
C153   C     0.47024   0.04016   0.18000   0.00000  Uiso   1.00
O154   O     0.49058   0.07198   0.15972   0.00000  Uiso   1.00
O155   O     0.43449   0.02150   0.16731   0.00000  Uiso   1.00
H156   H     0.42814   0.03773   0.14173   0.00000  Uiso   1.00
C157   C     0.83252   0.24656   0.25171   0.00000  Uiso   1.00
C158   C     0.83417   0.08677   0.24820   0.00000  Uiso   1.00
C159   C     0.76694   0.16599   0.06093   0.00000  Uiso   1.00
C160   C     0.85893   0.10154   0.46545   0.00000  Uiso   1.00
C161   C     0.73462   0.17645   0.03928   0.00000  Uiso   1.00
C162   C     0.89296   0.09306   0.48566   0.00000  Uiso   1.00
C163   C     0.84860   0.31299   0.28319   0.00000  Uiso   1.00
C164   C     0.81772   0.02032   0.21691   0.00000  Uiso   1.00
C165   C     0.85096   0.02257   0.27899   0.00000  Uiso   1.00
C166   C     0.81557   0.31074   0.22099   0.00000  Uiso   1.00
C167   C     0.83516   0.04257   0.24685   0.00000  Uiso   1.00
C168   C     0.83145   0.29076   0.25307   0.00000  Uiso   1.00
C169   C     0.98051   0.13110   0.23963   0.00000  Uiso   1.00
C170   C     0.68591   0.20210   0.26103   0.00000  Uiso   1.00
C171   C     0.69513   0.13116   0.23934   0.00000  Uiso   1.00
C172   C     0.97143   0.20211   0.26095   0.00000  Uiso   1.00
C173   C     0.80210   0.16706   0.33873   0.00000  Uiso   1.00
C174   C     0.86447   0.16512   0.16133   0.00000  Uiso   1.00
C175   C     0.78053   0.16664   0.39117   0.00000  Uiso   1.00
C176   C     0.88401   0.15464   0.11022   0.00000  Uiso   1.00
C177   C     0.71771   0.18498   0.46850   0.00000  Uiso   1.00
C178   C     0.92485   0.10510   0.04623   0.00000  Uiso   1.00
C179   C     0.73295   0.18243   0.41898   0.00000  Uiso   1.00
C180   C     0.92041   0.12332   0.08951   0.00000  Uiso   1.00
C181   C     0.80968   0.15090   0.41390   0.00000  Uiso   1.00
C182   C     0.85467   0.16715   0.08630   0.00000  Uiso   1.00
C183   C     0.79273   0.14970   0.46361   0.00000  Uiso   1.00
C184   C     0.85236   0.14312   0.04896   0.00000  Uiso   1.00
C185   C     0.74810   0.17026   0.49062   0.00000  Uiso   1.00
C186   C     0.89064   0.11420   0.02637   0.00000  Uiso   1.00
C187   C     0.82193   0.13272   0.48658   0.00000  Uiso   1.00
C188   C     0.81375   0.14785   0.03281   0.00000  Uiso   1.00
H189   H     0.69907   0.19024   0.06030   0.00000  Uiso   1.00
H190   H     0.92093   0.06919   0.47017   0.00000  Uiso   1.00
H191   H     0.83064   0.19384   0.09999   0.00000  Uiso   1.00
H192   H     0.84688   0.14113   0.39232   0.00000  Uiso   1.00
H193   H     0.68243   0.19915   0.48970   0.00000  Uiso   1.00
H194   H     0.95330   0.08183   0.02953   0.00000  Uiso   1.00
H195   H     0.86295   0.04079   0.30241   0.00000  Uiso   1.00
H196   H     0.80353   0.29250   0.19763   0.00000  Uiso   1.00
H197   H     0.96615   0.10255   0.23127   0.00000  Uiso   1.00
H198   H     0.70004   0.23050   0.27000   0.00000  Uiso   1.00
H199   H     0.71678   0.10273   0.23051   0.00000  Uiso   1.00
H200   H     0.94974   0.23053   0.26984   0.00000  Uiso   1.00
N201   N     0.71426   0.16668   0.25001   0.00000  Uiso   1.00
N202   N     0.95241   0.16666   0.24999   0.00000  Uiso   1.00
O203   O     0.79512   0.22775   0.25001   0.00000  Uiso   1.00
O204   O     0.87154   0.10558   0.25000   0.00000  Uiso   1.00
O205   O     0.87157   0.22774   0.25000   0.00000  Uiso   1.00
O206   O     0.79510   0.10559   0.25000   0.00000  Uiso   1.00
O207   O     0.77328   0.16667   0.31613   0.00000  Uiso   1.00
O208   O     0.89339   0.16666   0.18388   0.00000  Uiso   1.00
O209   O     0.84972   0.16666   0.31612   0.00000  Uiso   1.00
O210   O     0.81695   0.16667   0.18388   0.00000  Uiso   1.00
Zn211  Zn    0.78229   0.16667   0.25000   0.00000  Uiso   1.00
Zn212  Zn    0.88438   0.16666   0.25000   0.00000  Uiso   1.00
C213   C     0.95166   0.10620   0.11299   0.00000  Uiso   1.00
O214   O     0.95618   0.06831   0.11534   0.00000  Uiso   1.00
O215   O     0.97780   0.13295   0.13035   0.00000  Uiso   1.00
H216   H     0.99915   0.11700   0.14371   0.00000  Uiso   1.00
C217   C     0.69931   0.19889   0.39778   0.00000  Uiso   1.00
O218   O     0.69166   0.23647   0.39835   0.00000  Uiso   1.00
O219   O     0.67490   0.17201   0.37843   0.00000  Uiso   1.00
H220   H     0.68266   0.14147   0.38135   0.00000  Uiso   1.00
C221   C     0.74766   0.16874   0.11371   0.00000  Uiso   1.00
H222   H     0.76062   0.14709   0.13363   0.00000  Uiso   1.00
O223   O     0.71688   0.19499   0.13551   0.00000  Uiso   1.00
C224   C     0.85818   0.07293   0.42730   0.00000  Uiso   1.00
H225   H     0.82508   0.06969   0.42046   0.00000  Uiso   1.00
O226   O     0.89434   0.05225   0.40344   0.00000  Uiso   1.00
C227   C     0.86198   0.29310   0.32054   0.00000  Uiso   1.00
O228   O     0.84093   0.26156   0.34101   0.00000  Uiso   1.00
O229   O     0.89775   0.31143   0.33344   0.00000  Uiso   1.00
H230   H     0.90346   0.29530   0.35943   0.00000  Uiso   1.00
C231   C     0.80357   0.04016   0.18000   0.00000  Uiso   1.00
O232   O     0.82391   0.07198   0.15972   0.00000  Uiso   1.00
O233   O     0.76782   0.02150   0.16731   0.00000  Uiso   1.00
H234   H     0.76147   0.03773   0.14173   0.00000  Uiso   1.00
C235   C     0.16585   0.57990   0.25171   0.00000  Uiso   1.00
C236   C     0.16750   0.42010   0.24820   0.00000  Uiso   1.00
C237   C     0.10028   0.49932   0.06093   0.00000  Uiso   1.00
C238   C     0.19226   0.43488   0.46545   0.00000  Uiso   1.00
C239   C     0.06796   0.50978   0.03928   0.00000  Uiso   1.00
C240   C     0.22630   0.42639   0.48566   0.00000  Uiso   1.00
C241   C     0.18194   0.64633   0.28319   0.00000  Uiso   1.00
C242   C     0.15105   0.35366   0.21691   0.00000  Uiso   1.00
C243   C     0.18429   0.35591   0.27899   0.00000  Uiso   1.00
C244   C     0.14890   0.64407   0.22099   0.00000  Uiso   1.00
C245   C     0.16849   0.37590   0.24685   0.00000  Uiso   1.00
C246   C     0.16478   0.62409   0.25307   0.00000  Uiso   1.00
C247   C     0.31385   0.46443   0.23963   0.00000  Uiso   1.00
C248   C     0.01924   0.53543   0.26103   0.00000  Uiso   1.00
C249   C     0.02846   0.46450   0.23934   0.00000  Uiso   1.00
C250   C     0.30476   0.53544   0.26095   0.00000  Uiso   1.00
C251   C     0.13543   0.50039   0.33873   0.00000  Uiso   1.00
C252   C     0.19780   0.49845   0.16133   0.00000  Uiso   1.00
C253   C     0.11386   0.49997   0.39117   0.00000  Uiso   1.00
C254   C     0.21734   0.48797   0.11022   0.00000  Uiso   1.00
C255   C     0.05105   0.51831   0.46850   0.00000  Uiso   1.00
C256   C     0.25819   0.43843   0.04623   0.00000  Uiso   1.00
C257   C     0.06628   0.51577   0.41898   0.00000  Uiso   1.00
C258   C     0.25375   0.45665   0.08951   0.00000  Uiso   1.00
C259   C     0.14302   0.48423   0.41390   0.00000  Uiso   1.00
C260   C     0.18801   0.50048   0.08630   0.00000  Uiso   1.00
C261   C     0.12607   0.48303   0.46361   0.00000  Uiso   1.00
C262   C     0.18569   0.47645   0.04896   0.00000  Uiso   1.00
C263   C     0.08143   0.50359   0.49062   0.00000  Uiso   1.00
C264   C     0.22397   0.44753   0.02637   0.00000  Uiso   1.00
C265   C     0.15526   0.46605   0.48658   0.00000  Uiso   1.00
C266   C     0.14709   0.48118   0.03281   0.00000  Uiso   1.00
H267   H     0.03240   0.52358   0.06030   0.00000  Uiso   1.00
H268   H     0.25427   0.40252   0.47017   0.00000  Uiso   1.00
H269   H     0.16397   0.52717   0.09999   0.00000  Uiso   1.00
H270   H     0.18021   0.47446   0.39232   0.00000  Uiso   1.00
H271   H     0.01576   0.53249   0.48970   0.00000  Uiso   1.00
H272   H     0.28663   0.41517   0.02953   0.00000  Uiso   1.00
H273   H     0.19628   0.37412   0.30241   0.00000  Uiso   1.00
H274   H     0.13686   0.62584   0.19763   0.00000  Uiso   1.00
H275   H     0.29948   0.43588   0.23127   0.00000  Uiso   1.00
H276   H     0.03337   0.56383   0.27000   0.00000  Uiso   1.00
H277   H     0.05011   0.43606   0.23051   0.00000  Uiso   1.00
H278   H     0.28308   0.56386   0.26984   0.00000  Uiso   1.00
N279   N     0.04759   0.50001   0.25001   0.00000  Uiso   1.00
N280   N     0.28574   0.49999   0.24999   0.00000  Uiso   1.00
O281   O     0.12846   0.56108   0.25001   0.00000  Uiso   1.00
O282   O     0.20488   0.43892   0.25000   0.00000  Uiso   1.00
O283   O     0.20490   0.56107   0.25000   0.00000  Uiso   1.00
O284   O     0.12843   0.43893   0.25000   0.00000  Uiso   1.00
O285   O     0.10661   0.50001   0.31613   0.00000  Uiso   1.00
O286   O     0.22672   0.49999   0.18388   0.00000  Uiso   1.00
O287   O     0.18305   0.50000   0.31612   0.00000  Uiso   1.00
O288   O     0.15028   0.50000   0.18388   0.00000  Uiso   1.00
Zn289  Zn    0.11562   0.50001   0.25000   0.00000  Uiso   1.00
Zn290  Zn    0.21771   0.49999   0.25000   0.00000  Uiso   1.00
C291   C     0.28499   0.43953   0.11299   0.00000  Uiso   1.00
O292   O     0.28951   0.40164   0.11534   0.00000  Uiso   1.00
O293   O     0.31113   0.46628   0.13035   0.00000  Uiso   1.00
H294   H     0.33248   0.45033   0.14371   0.00000  Uiso   1.00
C295   C     0.03264   0.53223   0.39778   0.00000  Uiso   1.00
O296   O     0.02499   0.56980   0.39835   0.00000  Uiso   1.00
O297   O     0.00823   0.50534   0.37843   0.00000  Uiso   1.00
H298   H     0.01599   0.47481   0.38135   0.00000  Uiso   1.00
C299   C     0.08099   0.50207   0.11371   0.00000  Uiso   1.00
H300   H     0.09395   0.48043   0.13363   0.00000  Uiso   1.00
O301   O     0.05021   0.52833   0.13551   0.00000  Uiso   1.00
C302   C     0.19152   0.40627   0.42730   0.00000  Uiso   1.00
H303   H     0.15842   0.40302   0.42046   0.00000  Uiso   1.00
O304   O     0.22768   0.38558   0.40344   0.00000  Uiso   1.00
C305   C     0.19531   0.62644   0.32054   0.00000  Uiso   1.00
O306   O     0.17427   0.59490   0.34101   0.00000  Uiso   1.00
O307   O     0.23109   0.64476   0.33344   0.00000  Uiso   1.00
H308   H     0.23679   0.62863   0.35943   0.00000  Uiso   1.00
C309   C     0.13691   0.37349   0.18000   0.00000  Uiso   1.00
O310   O     0.15725   0.40531   0.15972   0.00000  Uiso   1.00
O311   O     0.10116   0.35483   0.16731   0.00000  Uiso   1.00
H312   H     0.09481   0.37107   0.14173   0.00000  Uiso   1.00
C313   C     0.49919   0.57990   0.25171   0.00000  Uiso   1.00
C314   C     0.50083   0.42010   0.24820   0.00000  Uiso   1.00
C315   C     0.43361   0.49932   0.06093   0.00000  Uiso   1.00
C316   C     0.52559   0.43488   0.46545   0.00000  Uiso   1.00
C317   C     0.40129   0.50978   0.03928   0.00000  Uiso   1.00
C318   C     0.55963   0.42639   0.48566   0.00000  Uiso   1.00
C319   C     0.51527   0.64633   0.28319   0.00000  Uiso   1.00
C320   C     0.48438   0.35366   0.21691   0.00000  Uiso   1.00
C321   C     0.51763   0.35591   0.27899   0.00000  Uiso   1.00
C322   C     0.48224   0.64407   0.22099   0.00000  Uiso   1.00
C323   C     0.50182   0.37590   0.24685   0.00000  Uiso   1.00
C324   C     0.49811   0.62409   0.25307   0.00000  Uiso   1.00
C325   C     0.64718   0.46443   0.23963   0.00000  Uiso   1.00
C326   C     0.35258   0.53543   0.26103   0.00000  Uiso   1.00
C327   C     0.36179   0.46450   0.23934   0.00000  Uiso   1.00
C328   C     0.63809   0.53544   0.26095   0.00000  Uiso   1.00
C329   C     0.46877   0.50039   0.33873   0.00000  Uiso   1.00
C330   C     0.53114   0.49845   0.16133   0.00000  Uiso   1.00
C331   C     0.44719   0.49997   0.39117   0.00000  Uiso   1.00
C332   C     0.55068   0.48797   0.11022   0.00000  Uiso   1.00
C333   C     0.38438   0.51831   0.46850   0.00000  Uiso   1.00
C334   C     0.59152   0.43843   0.04623   0.00000  Uiso   1.00
C335   C     0.39962   0.51577   0.41898   0.00000  Uiso   1.00
C336   C     0.58708   0.45665   0.08951   0.00000  Uiso   1.00
C337   C     0.47635   0.48423   0.41390   0.00000  Uiso   1.00
C338   C     0.52134   0.50048   0.08630   0.00000  Uiso   1.00
C339   C     0.45940   0.48303   0.46361   0.00000  Uiso   1.00
C340   C     0.51902   0.47645   0.04896   0.00000  Uiso   1.00
C341   C     0.41476   0.50359   0.49062   0.00000  Uiso   1.00
C342   C     0.55731   0.44753   0.02637   0.00000  Uiso   1.00
C343   C     0.48860   0.46605   0.48658   0.00000  Uiso   1.00
C344   C     0.48042   0.48118   0.03281   0.00000  Uiso   1.00
H345   H     0.36574   0.52358   0.06030   0.00000  Uiso   1.00
H346   H     0.58760   0.40252   0.47017   0.00000  Uiso   1.00
H347   H     0.49730   0.52717   0.09999   0.00000  Uiso   1.00
H348   H     0.51355   0.47446   0.39232   0.00000  Uiso   1.00
H349   H     0.34910   0.53249   0.48970   0.00000  Uiso   1.00
H350   H     0.61997   0.41517   0.02953   0.00000  Uiso   1.00
H351   H     0.52961   0.37412   0.30241   0.00000  Uiso   1.00
H352   H     0.47019   0.62584   0.19763   0.00000  Uiso   1.00
H353   H     0.63282   0.43588   0.23127   0.00000  Uiso   1.00
H354   H     0.36671   0.56383   0.27000   0.00000  Uiso   1.00
H355   H     0.38345   0.43606   0.23051   0.00000  Uiso   1.00
H356   H     0.61641   0.56386   0.26984   0.00000  Uiso   1.00
N357   N     0.38093   0.50001   0.25001   0.00000  Uiso   1.00
N358   N     0.61907   0.49999   0.24999   0.00000  Uiso   1.00
O359   O     0.46179   0.56108   0.25001   0.00000  Uiso   1.00
O360   O     0.53821   0.43892   0.25000   0.00000  Uiso   1.00
O361   O     0.53823   0.56107   0.25000   0.00000  Uiso   1.00
O362   O     0.46177   0.43893   0.25000   0.00000  Uiso   1.00
O363   O     0.43994   0.50001   0.31613   0.00000  Uiso   1.00
O364   O     0.56006   0.49999   0.18388   0.00000  Uiso   1.00
O365   O     0.51639   0.50000   0.31612   0.00000  Uiso   1.00
O366   O     0.48361   0.50000   0.18388   0.00000  Uiso   1.00
Zn367  Zn    0.44896   0.50001   0.25000   0.00000  Uiso   1.00
Zn368  Zn    0.55104   0.49999   0.25000   0.00000  Uiso   1.00
C369   C     0.61832   0.43953   0.11299   0.00000  Uiso   1.00
O370   O     0.62285   0.40164   0.11534   0.00000  Uiso   1.00
O371   O     0.64447   0.46628   0.13035   0.00000  Uiso   1.00
H372   H     0.66582   0.45033   0.14371   0.00000  Uiso   1.00
C373   C     0.36598   0.53223   0.39778   0.00000  Uiso   1.00
O374   O     0.35832   0.56980   0.39835   0.00000  Uiso   1.00
O375   O     0.34157   0.50534   0.37843   0.00000  Uiso   1.00
H376   H     0.34933   0.47481   0.38135   0.00000  Uiso   1.00
C377   C     0.41432   0.50207   0.11371   0.00000  Uiso   1.00
H378   H     0.42729   0.48043   0.13363   0.00000  Uiso   1.00
O379   O     0.38355   0.52833   0.13551   0.00000  Uiso   1.00
C380   C     0.52485   0.40627   0.42730   0.00000  Uiso   1.00
H381   H     0.49175   0.40302   0.42046   0.00000  Uiso   1.00
O382   O     0.56101   0.38558   0.40344   0.00000  Uiso   1.00
C383   C     0.52865   0.62644   0.32054   0.00000  Uiso   1.00
O384   O     0.50760   0.59490   0.34101   0.00000  Uiso   1.00
O385   O     0.56442   0.64476   0.33344   0.00000  Uiso   1.00
H386   H     0.57013   0.62863   0.35943   0.00000  Uiso   1.00
C387   C     0.47024   0.37349   0.18000   0.00000  Uiso   1.00
O388   O     0.49058   0.40531   0.15972   0.00000  Uiso   1.00
O389   O     0.43449   0.35483   0.16731   0.00000  Uiso   1.00
H390   H     0.42814   0.37107   0.14173   0.00000  Uiso   1.00
C391   C     0.83252   0.57990   0.25171   0.00000  Uiso   1.00
C392   C     0.83417   0.42010   0.24820   0.00000  Uiso   1.00
C393   C     0.76694   0.49932   0.06093   0.00000  Uiso   1.00
C394   C     0.85893   0.43488   0.46545   0.00000  Uiso   1.00
C395   C     0.73462   0.50978   0.03928   0.00000  Uiso   1.00
C396   C     0.89296   0.42639   0.48566   0.00000  Uiso   1.00
C397   C     0.84860   0.64633   0.28319   0.00000  Uiso   1.00
C398   C     0.81772   0.35366   0.21691   0.00000  Uiso   1.00
C399   C     0.85096   0.35591   0.27899   0.00000  Uiso   1.00
C400   C     0.81557   0.64407   0.22099   0.00000  Uiso   1.00
C401   C     0.83516   0.37590   0.24685   0.00000  Uiso   1.00
C402   C     0.83145   0.62409   0.25307   0.00000  Uiso   1.00
C403   C     0.98051   0.46443   0.23963   0.00000  Uiso   1.00
C404   C     0.68591   0.53543   0.26103   0.00000  Uiso   1.00
C405   C     0.69513   0.46450   0.23934   0.00000  Uiso   1.00
C406   C     0.97143   0.53544   0.26095   0.00000  Uiso   1.00
C407   C     0.80210   0.50039   0.33873   0.00000  Uiso   1.00
C408   C     0.86447   0.49845   0.16133   0.00000  Uiso   1.00
C409   C     0.78053   0.49997   0.39117   0.00000  Uiso   1.00
C410   C     0.88401   0.48797   0.11022   0.00000  Uiso   1.00
C411   C     0.71771   0.51831   0.46850   0.00000  Uiso   1.00
C412   C     0.92485   0.43843   0.04623   0.00000  Uiso   1.00
C413   C     0.73295   0.51577   0.41898   0.00000  Uiso   1.00
C414   C     0.92041   0.45665   0.08951   0.00000  Uiso   1.00
C415   C     0.80968   0.48423   0.41390   0.00000  Uiso   1.00
C416   C     0.85467   0.50048   0.08630   0.00000  Uiso   1.00
C417   C     0.79273   0.48303   0.46361   0.00000  Uiso   1.00
C418   C     0.85236   0.47645   0.04896   0.00000  Uiso   1.00
C419   C     0.74810   0.50359   0.49062   0.00000  Uiso   1.00
C420   C     0.89064   0.44753   0.02637   0.00000  Uiso   1.00
C421   C     0.82193   0.46605   0.48658   0.00000  Uiso   1.00
C422   C     0.81375   0.48118   0.03281   0.00000  Uiso   1.00
H423   H     0.69907   0.52358   0.06030   0.00000  Uiso   1.00
H424   H     0.92093   0.40252   0.47017   0.00000  Uiso   1.00
H425   H     0.83064   0.52717   0.09999   0.00000  Uiso   1.00
H426   H     0.84688   0.47446   0.39232   0.00000  Uiso   1.00
H427   H     0.68243   0.53249   0.48970   0.00000  Uiso   1.00
H428   H     0.95330   0.41517   0.02953   0.00000  Uiso   1.00
H429   H     0.86295   0.37412   0.30241   0.00000  Uiso   1.00
H430   H     0.80353   0.62584   0.19763   0.00000  Uiso   1.00
H431   H     0.96615   0.43588   0.23127   0.00000  Uiso   1.00
H432   H     0.70004   0.56383   0.27000   0.00000  Uiso   1.00
H433   H     0.71678   0.43606   0.23051   0.00000  Uiso   1.00
H434   H     0.94974   0.56386   0.26984   0.00000  Uiso   1.00
N435   N     0.71426   0.50001   0.25001   0.00000  Uiso   1.00
N436   N     0.95241   0.49999   0.24999   0.00000  Uiso   1.00
O437   O     0.79512   0.56108   0.25001   0.00000  Uiso   1.00
O438   O     0.87154   0.43892   0.25000   0.00000  Uiso   1.00
O439   O     0.87157   0.56107   0.25000   0.00000  Uiso   1.00
O440   O     0.79510   0.43893   0.25000   0.00000  Uiso   1.00
O441   O     0.77328   0.50001   0.31613   0.00000  Uiso   1.00
O442   O     0.89339   0.49999   0.18388   0.00000  Uiso   1.00
O443   O     0.84972   0.50000   0.31612   0.00000  Uiso   1.00
O444   O     0.81695   0.50000   0.18388   0.00000  Uiso   1.00
Zn445  Zn    0.78229   0.50001   0.25000   0.00000  Uiso   1.00
Zn446  Zn    0.88438   0.49999   0.25000   0.00000  Uiso   1.00
C447   C     0.95166   0.43953   0.11299   0.00000  Uiso   1.00
O448   O     0.95618   0.40164   0.11534   0.00000  Uiso   1.00
O449   O     0.97780   0.46628   0.13035   0.00000  Uiso   1.00
H450   H     0.99915   0.45033   0.14371   0.00000  Uiso   1.00
C451   C     0.69931   0.53223   0.39778   0.00000  Uiso   1.00
O452   O     0.69166   0.56980   0.39835   0.00000  Uiso   1.00
O453   O     0.67490   0.50534   0.37843   0.00000  Uiso   1.00
H454   H     0.68266   0.47481   0.38135   0.00000  Uiso   1.00
C455   C     0.74766   0.50207   0.11371   0.00000  Uiso   1.00
H456   H     0.76062   0.48043   0.13363   0.00000  Uiso   1.00
O457   O     0.71688   0.52833   0.13551   0.00000  Uiso   1.00
C458   C     0.85818   0.40627   0.42730   0.00000  Uiso   1.00
H459   H     0.82508   0.40302   0.42046   0.00000  Uiso   1.00
O460   O     0.89434   0.38558   0.40344   0.00000  Uiso   1.00
C461   C     0.86198   0.62644   0.32054   0.00000  Uiso   1.00
O462   O     0.84093   0.59490   0.34101   0.00000  Uiso   1.00
O463   O     0.89775   0.64476   0.33344   0.00000  Uiso   1.00
H464   H     0.90346   0.62863   0.35943   0.00000  Uiso   1.00
C465   C     0.80357   0.37349   0.18000   0.00000  Uiso   1.00
O466   O     0.82391   0.40531   0.15972   0.00000  Uiso   1.00
O467   O     0.76782   0.35483   0.16731   0.00000  Uiso   1.00
H468   H     0.76147   0.37107   0.14173   0.00000  Uiso   1.00
C469   C     0.16585   0.91323   0.25171   0.00000  Uiso   1.00
C470   C     0.16750   0.75343   0.24820   0.00000  Uiso   1.00
C471   C     0.10028   0.83265   0.06093   0.00000  Uiso   1.00
C472   C     0.19226   0.76821   0.46545   0.00000  Uiso   1.00
C473   C     0.06796   0.84311   0.03928   0.00000  Uiso   1.00
C474   C     0.22630   0.75973   0.48566   0.00000  Uiso   1.00
C475   C     0.18194   0.97966   0.28319   0.00000  Uiso   1.00
C476   C     0.15105   0.68699   0.21691   0.00000  Uiso   1.00
C477   C     0.18429   0.68924   0.27899   0.00000  Uiso   1.00
C478   C     0.14890   0.97741   0.22099   0.00000  Uiso   1.00
C479   C     0.16849   0.70924   0.24685   0.00000  Uiso   1.00
C480   C     0.16478   0.95742   0.25307   0.00000  Uiso   1.00
C481   C     0.31385   0.79776   0.23963   0.00000  Uiso   1.00
C482   C     0.01924   0.86877   0.26103   0.00000  Uiso   1.00
C483   C     0.02846   0.79783   0.23934   0.00000  Uiso   1.00
C484   C     0.30476   0.86877   0.26095   0.00000  Uiso   1.00
C485   C     0.13543   0.83373   0.33873   0.00000  Uiso   1.00
C486   C     0.19780   0.83179   0.16133   0.00000  Uiso   1.00
C487   C     0.11386   0.83330   0.39117   0.00000  Uiso   1.00
C488   C     0.21734   0.82130   0.11022   0.00000  Uiso   1.00
C489   C     0.05105   0.85164   0.46850   0.00000  Uiso   1.00
C490   C     0.25819   0.77176   0.04623   0.00000  Uiso   1.00
C491   C     0.06628   0.84910   0.41898   0.00000  Uiso   1.00
C492   C     0.25375   0.78998   0.08951   0.00000  Uiso   1.00
C493   C     0.14302   0.81757   0.41390   0.00000  Uiso   1.00
C494   C     0.18801   0.83381   0.08630   0.00000  Uiso   1.00
C495   C     0.12607   0.81636   0.46361   0.00000  Uiso   1.00
C496   C     0.18569   0.80978   0.04896   0.00000  Uiso   1.00
C497   C     0.08143   0.83692   0.49062   0.00000  Uiso   1.00
C498   C     0.22397   0.78086   0.02637   0.00000  Uiso   1.00
C499   C     0.15526   0.79938   0.48658   0.00000  Uiso   1.00
C500   C     0.14709   0.81451   0.03281   0.00000  Uiso   1.00
H501   H     0.03240   0.85691   0.06030   0.00000  Uiso   1.00
H502   H     0.25427   0.73586   0.47017   0.00000  Uiso   1.00
H503   H     0.16397   0.86050   0.09999   0.00000  Uiso   1.00
H504   H     0.18021   0.80780   0.39232   0.00000  Uiso   1.00
H505   H     0.01576   0.86582   0.48970   0.00000  Uiso   1.00
H506   H     0.28663   0.74850   0.02953   0.00000  Uiso   1.00
H507   H     0.19628   0.70746   0.30241   0.00000  Uiso   1.00
H508   H     0.13686   0.95917   0.19763   0.00000  Uiso   1.00
H509   H     0.29948   0.76921   0.23127   0.00000  Uiso   1.00
H510   H     0.03337   0.89716   0.27000   0.00000  Uiso   1.00
H511   H     0.05011   0.76940   0.23051   0.00000  Uiso   1.00
H512   H     0.28308   0.89719   0.26984   0.00000  Uiso   1.00
N513   N     0.04759   0.83334   0.25001   0.00000  Uiso   1.00
N514   N     0.28574   0.83332   0.24999   0.00000  Uiso   1.00
O515   O     0.12846   0.89442   0.25001   0.00000  Uiso   1.00
O516   O     0.20488   0.77225   0.25000   0.00000  Uiso   1.00
O517   O     0.20490   0.89441   0.25000   0.00000  Uiso   1.00
O518   O     0.12843   0.77226   0.25000   0.00000  Uiso   1.00
O519   O     0.10661   0.83334   0.31613   0.00000  Uiso   1.00
O520   O     0.22672   0.83333   0.18388   0.00000  Uiso   1.00
O521   O     0.18305   0.83333   0.31612   0.00000  Uiso   1.00
O522   O     0.15028   0.83334   0.18388   0.00000  Uiso   1.00
Zn523  Zn    0.11562   0.83334   0.25000   0.00000  Uiso   1.00
Zn524  Zn    0.21771   0.83333   0.25000   0.00000  Uiso   1.00
C525   C     0.28499   0.77287   0.11299   0.00000  Uiso   1.00
O526   O     0.28951   0.73498   0.11534   0.00000  Uiso   1.00
O527   O     0.31113   0.79962   0.13035   0.00000  Uiso   1.00
H528   H     0.33248   0.78367   0.14371   0.00000  Uiso   1.00
C529   C     0.03264   0.86556   0.39778   0.00000  Uiso   1.00
O530   O     0.02499   0.90314   0.39835   0.00000  Uiso   1.00
O531   O     0.00823   0.83867   0.37843   0.00000  Uiso   1.00
H532   H     0.01599   0.80814   0.38135   0.00000  Uiso   1.00
C533   C     0.08099   0.83541   0.11371   0.00000  Uiso   1.00
H534   H     0.09395   0.81376   0.13363   0.00000  Uiso   1.00
O535   O     0.05021   0.86166   0.13551   0.00000  Uiso   1.00
C536   C     0.19152   0.73960   0.42730   0.00000  Uiso   1.00
H537   H     0.15842   0.73636   0.42046   0.00000  Uiso   1.00
O538   O     0.22768   0.71892   0.40344   0.00000  Uiso   1.00
C539   C     0.19531   0.95977   0.32054   0.00000  Uiso   1.00
O540   O     0.17427   0.92823   0.34101   0.00000  Uiso   1.00
O541   O     0.23109   0.97809   0.33344   0.00000  Uiso   1.00
H542   H     0.23679   0.96197   0.35943   0.00000  Uiso   1.00
C543   C     0.13691   0.70682   0.18000   0.00000  Uiso   1.00
O544   O     0.15725   0.73865   0.15972   0.00000  Uiso   1.00
O545   O     0.10116   0.68816   0.16731   0.00000  Uiso   1.00
H546   H     0.09481   0.70440   0.14173   0.00000  Uiso   1.00
C547   C     0.49919   0.91323   0.25171   0.00000  Uiso   1.00
C548   C     0.50083   0.75343   0.24820   0.00000  Uiso   1.00
C549   C     0.43361   0.83265   0.06093   0.00000  Uiso   1.00
C550   C     0.52559   0.76821   0.46545   0.00000  Uiso   1.00
C551   C     0.40129   0.84311   0.03928   0.00000  Uiso   1.00
C552   C     0.55963   0.75973   0.48566   0.00000  Uiso   1.00
C553   C     0.51527   0.97966   0.28319   0.00000  Uiso   1.00
C554   C     0.48438   0.68699   0.21691   0.00000  Uiso   1.00
C555   C     0.51763   0.68924   0.27899   0.00000  Uiso   1.00
C556   C     0.48224   0.97741   0.22099   0.00000  Uiso   1.00
C557   C     0.50182   0.70924   0.24685   0.00000  Uiso   1.00
C558   C     0.49811   0.95742   0.25307   0.00000  Uiso   1.00
C559   C     0.64718   0.79776   0.23963   0.00000  Uiso   1.00
C560   C     0.35258   0.86877   0.26103   0.00000  Uiso   1.00
C561   C     0.36179   0.79783   0.23934   0.00000  Uiso   1.00
C562   C     0.63809   0.86877   0.26095   0.00000  Uiso   1.00
C563   C     0.46877   0.83373   0.33873   0.00000  Uiso   1.00
C564   C     0.53114   0.83179   0.16133   0.00000  Uiso   1.00
C565   C     0.44719   0.83330   0.39117   0.00000  Uiso   1.00
C566   C     0.55068   0.82130   0.11022   0.00000  Uiso   1.00
C567   C     0.38438   0.85164   0.46850   0.00000  Uiso   1.00
C568   C     0.59152   0.77176   0.04623   0.00000  Uiso   1.00
C569   C     0.39962   0.84910   0.41898   0.00000  Uiso   1.00
C570   C     0.58708   0.78998   0.08951   0.00000  Uiso   1.00
C571   C     0.47635   0.81757   0.41390   0.00000  Uiso   1.00
C572   C     0.52134   0.83381   0.08630   0.00000  Uiso   1.00
C573   C     0.45940   0.81636   0.46361   0.00000  Uiso   1.00
C574   C     0.51902   0.80978   0.04896   0.00000  Uiso   1.00
C575   C     0.41476   0.83692   0.49062   0.00000  Uiso   1.00
C576   C     0.55731   0.78086   0.02637   0.00000  Uiso   1.00
C577   C     0.48860   0.79938   0.48658   0.00000  Uiso   1.00
C578   C     0.48042   0.81451   0.03281   0.00000  Uiso   1.00
H579   H     0.36574   0.85691   0.06030   0.00000  Uiso   1.00
H580   H     0.58760   0.73586   0.47017   0.00000  Uiso   1.00
H581   H     0.49730   0.86050   0.09999   0.00000  Uiso   1.00
H582   H     0.51355   0.80780   0.39232   0.00000  Uiso   1.00
H583   H     0.34910   0.86582   0.48970   0.00000  Uiso   1.00
H584   H     0.61997   0.74850   0.02953   0.00000  Uiso   1.00
H585   H     0.52961   0.70746   0.30241   0.00000  Uiso   1.00
H586   H     0.47019   0.95917   0.19763   0.00000  Uiso   1.00
H587   H     0.63282   0.76921   0.23127   0.00000  Uiso   1.00
H588   H     0.36671   0.89716   0.27000   0.00000  Uiso   1.00
H589   H     0.38345   0.76940   0.23051   0.00000  Uiso   1.00
H590   H     0.61641   0.89719   0.26984   0.00000  Uiso   1.00
N591   N     0.38093   0.83334   0.25001   0.00000  Uiso   1.00
N592   N     0.61907   0.83332   0.24999   0.00000  Uiso   1.00
O593   O     0.46179   0.89442   0.25001   0.00000  Uiso   1.00
O594   O     0.53821   0.77225   0.25000   0.00000  Uiso   1.00
O595   O     0.53823   0.89441   0.25000   0.00000  Uiso   1.00
O596   O     0.46177   0.77226   0.25000   0.00000  Uiso   1.00
O597   O     0.43994   0.83334   0.31613   0.00000  Uiso   1.00
O598   O     0.56006   0.83333   0.18388   0.00000  Uiso   1.00
O599   O     0.51639   0.83333   0.31612   0.00000  Uiso   1.00
O600   O     0.48361   0.83334   0.18388   0.00000  Uiso   1.00
Zn601  Zn    0.44896   0.83334   0.25000   0.00000  Uiso   1.00
Zn602  Zn    0.55104   0.83333   0.25000   0.00000  Uiso   1.00
C603   C     0.61832   0.77287   0.11299   0.00000  Uiso   1.00
O604   O     0.62285   0.73498   0.11534   0.00000  Uiso   1.00
O605   O     0.64447   0.79962   0.13035   0.00000  Uiso   1.00
H606   H     0.66582   0.78367   0.14371   0.00000  Uiso   1.00
C607   C     0.36598   0.86556   0.39778   0.00000  Uiso   1.00
O608   O     0.35832   0.90314   0.39835   0.00000  Uiso   1.00
O609   O     0.34157   0.83867   0.37843   0.00000  Uiso   1.00
H610   H     0.34933   0.80814   0.38135   0.00000  Uiso   1.00
C611   C     0.41432   0.83541   0.11371   0.00000  Uiso   1.00
H612   H     0.42729   0.81376   0.13363   0.00000  Uiso   1.00
O613   O     0.38355   0.86166   0.13551   0.00000  Uiso   1.00
C614   C     0.52485   0.73960   0.42730   0.00000  Uiso   1.00
H615   H     0.49175   0.73636   0.42046   0.00000  Uiso   1.00
O616   O     0.56101   0.71892   0.40344   0.00000  Uiso   1.00
C617   C     0.52865   0.95977   0.32054   0.00000  Uiso   1.00
O618   O     0.50760   0.92823   0.34101   0.00000  Uiso   1.00
O619   O     0.56442   0.97809   0.33344   0.00000  Uiso   1.00
H620   H     0.57013   0.96197   0.35943   0.00000  Uiso   1.00
C621   C     0.47024   0.70682   0.18000   0.00000  Uiso   1.00
O622   O     0.49058   0.73865   0.15972   0.00000  Uiso   1.00
O623   O     0.43449   0.68816   0.16731   0.00000  Uiso   1.00
H624   H     0.42814   0.70440   0.14173   0.00000  Uiso   1.00
C625   C     0.83252   0.91323   0.25171   0.00000  Uiso   1.00
C626   C     0.83417   0.75343   0.24820   0.00000  Uiso   1.00
C627   C     0.76694   0.83265   0.06093   0.00000  Uiso   1.00
C628   C     0.85893   0.76821   0.46545   0.00000  Uiso   1.00
C629   C     0.73462   0.84311   0.03928   0.00000  Uiso   1.00
C630   C     0.89296   0.75973   0.48566   0.00000  Uiso   1.00
C631   C     0.84860   0.97966   0.28319   0.00000  Uiso   1.00
C632   C     0.81772   0.68699   0.21691   0.00000  Uiso   1.00
C633   C     0.85096   0.68924   0.27899   0.00000  Uiso   1.00
C634   C     0.81557   0.97741   0.22099   0.00000  Uiso   1.00
C635   C     0.83516   0.70924   0.24685   0.00000  Uiso   1.00
C636   C     0.83145   0.95742   0.25307   0.00000  Uiso   1.00
C637   C     0.98051   0.79776   0.23963   0.00000  Uiso   1.00
C638   C     0.68591   0.86877   0.26103   0.00000  Uiso   1.00
C639   C     0.69513   0.79783   0.23934   0.00000  Uiso   1.00
C640   C     0.97143   0.86877   0.26095   0.00000  Uiso   1.00
C641   C     0.80210   0.83373   0.33873   0.00000  Uiso   1.00
C642   C     0.86447   0.83179   0.16133   0.00000  Uiso   1.00
C643   C     0.78053   0.83330   0.39117   0.00000  Uiso   1.00
C644   C     0.88401   0.82130   0.11022   0.00000  Uiso   1.00
C645   C     0.71771   0.85164   0.46850   0.00000  Uiso   1.00
C646   C     0.92485   0.77176   0.04623   0.00000  Uiso   1.00
C647   C     0.73295   0.84910   0.41898   0.00000  Uiso   1.00
C648   C     0.92041   0.78998   0.08951   0.00000  Uiso   1.00
C649   C     0.80968   0.81757   0.41390   0.00000  Uiso   1.00
C650   C     0.85467   0.83381   0.08630   0.00000  Uiso   1.00
C651   C     0.79273   0.81636   0.46361   0.00000  Uiso   1.00
C652   C     0.85236   0.80978   0.04896   0.00000  Uiso   1.00
C653   C     0.74810   0.83692   0.49062   0.00000  Uiso   1.00
C654   C     0.89064   0.78086   0.02637   0.00000  Uiso   1.00
C655   C     0.82193   0.79938   0.48658   0.00000  Uiso   1.00
C656   C     0.81375   0.81451   0.03281   0.00000  Uiso   1.00
H657   H     0.69907   0.85691   0.06030   0.00000  Uiso   1.00
H658   H     0.92093   0.73586   0.47017   0.00000  Uiso   1.00
H659   H     0.83064   0.86050   0.09999   0.00000  Uiso   1.00
H660   H     0.84688   0.80780   0.39232   0.00000  Uiso   1.00
H661   H     0.68243   0.86582   0.48970   0.00000  Uiso   1.00
H662   H     0.95330   0.74850   0.02953   0.00000  Uiso   1.00
H663   H     0.86295   0.70746   0.30241   0.00000  Uiso   1.00
H664   H     0.80353   0.95917   0.19763   0.00000  Uiso   1.00
H665   H     0.96615   0.76921   0.23127   0.00000  Uiso   1.00
H666   H     0.70004   0.89716   0.27000   0.00000  Uiso   1.00
H667   H     0.71678   0.76940   0.23051   0.00000  Uiso   1.00
H668   H     0.94974   0.89719   0.26984   0.00000  Uiso   1.00
N669   N     0.71426   0.83334   0.25001   0.00000  Uiso   1.00
N670   N     0.95241   0.83332   0.24999   0.00000  Uiso   1.00
O671   O     0.79512   0.89442   0.25001   0.00000  Uiso   1.00
O672   O     0.87154   0.77225   0.25000   0.00000  Uiso   1.00
O673   O     0.87157   0.89441   0.25000   0.00000  Uiso   1.00
O674   O     0.79510   0.77226   0.25000   0.00000  Uiso   1.00
O675   O     0.77328   0.83334   0.31613   0.00000  Uiso   1.00
O676   O     0.89339   0.83333   0.18388   0.00000  Uiso   1.00
O677   O     0.84972   0.83333   0.31612   0.00000  Uiso   1.00
O678   O     0.81695   0.83334   0.18388   0.00000  Uiso   1.00
Zn679  Zn    0.78229   0.83334   0.25000   0.00000  Uiso   1.00
Zn680  Zn    0.88438   0.83333   0.25000   0.00000  Uiso   1.00
C681   C     0.95166   0.77287   0.11299   0.00000  Uiso   1.00
O682   O     0.95618   0.73498   0.11534   0.00000  Uiso   1.00
O683   O     0.97780   0.79962   0.13035   0.00000  Uiso   1.00
H684   H     0.99915   0.78367   0.14371   0.00000  Uiso   1.00
C685   C     0.69931   0.86556   0.39778   0.00000  Uiso   1.00
O686   O     0.69166   0.90314   0.39835   0.00000  Uiso   1.00
O687   O     0.67490   0.83867   0.37843   0.00000  Uiso   1.00
H688   H     0.68266   0.80814   0.38135   0.00000  Uiso   1.00
C689   C     0.74766   0.83541   0.11371   0.00000  Uiso   1.00
H690   H     0.76062   0.81376   0.13363   0.00000  Uiso   1.00
O691   O     0.71688   0.86166   0.13551   0.00000  Uiso   1.00
C692   C     0.85818   0.73960   0.42730   0.00000  Uiso   1.00
H693   H     0.82508   0.73636   0.42046   0.00000  Uiso   1.00
O694   O     0.89434   0.71892   0.40344   0.00000  Uiso   1.00
C695   C     0.86198   0.95977   0.32054   0.00000  Uiso   1.00
O696   O     0.84093   0.92823   0.34101   0.00000  Uiso   1.00
O697   O     0.89775   0.97809   0.33344   0.00000  Uiso   1.00
H698   H     0.90346   0.96197   0.35943   0.00000  Uiso   1.00
C699   C     0.80357   0.70682   0.18000   0.00000  Uiso   1.00
O700   O     0.82391   0.73865   0.15972   0.00000  Uiso   1.00
O701   O     0.76782   0.68816   0.16731   0.00000  Uiso   1.00
H702   H     0.76147   0.70440   0.14173   0.00000  Uiso   1.00
C703   C     0.16585   0.24656   0.75171   0.00000  Uiso   1.00
C704   C     0.16750   0.08677   0.74820   0.00000  Uiso   1.00
C705   C     0.10028   0.16599   0.56093   0.00000  Uiso   1.00
C706   C     0.19226   0.10154   0.96545   0.00000  Uiso   1.00
C707   C     0.06796   0.17645   0.53928   0.00000  Uiso   1.00
C708   C     0.22630   0.09306   0.98566   0.00000  Uiso   1.00
C709   C     0.18194   0.31299   0.78319   0.00000  Uiso   1.00
C710   C     0.15105   0.02032   0.71691   0.00000  Uiso   1.00
C711   C     0.18429   0.02257   0.77899   0.00000  Uiso   1.00
C712   C     0.14890   0.31074   0.72099   0.00000  Uiso   1.00
C713   C     0.16849   0.04257   0.74685   0.00000  Uiso   1.00
C714   C     0.16478   0.29076   0.75307   0.00000  Uiso   1.00
C715   C     0.31385   0.13110   0.73963   0.00000  Uiso   1.00
C716   C     0.01924   0.20210   0.76103   0.00000  Uiso   1.00
C717   C     0.02846   0.13116   0.73934   0.00000  Uiso   1.00
C718   C     0.30476   0.20211   0.76095   0.00000  Uiso   1.00
C719   C     0.13543   0.16706   0.83873   0.00000  Uiso   1.00
C720   C     0.19780   0.16512   0.66133   0.00000  Uiso   1.00
C721   C     0.11386   0.16664   0.89117   0.00000  Uiso   1.00
C722   C     0.21734   0.15464   0.61022   0.00000  Uiso   1.00
C723   C     0.05105   0.18498   0.96850   0.00000  Uiso   1.00
C724   C     0.25819   0.10510   0.54623   0.00000  Uiso   1.00
C725   C     0.06628   0.18243   0.91898   0.00000  Uiso   1.00
C726   C     0.25375   0.12332   0.58951   0.00000  Uiso   1.00
C727   C     0.14302   0.15090   0.91390   0.00000  Uiso   1.00
C728   C     0.18801   0.16715   0.58630   0.00000  Uiso   1.00
C729   C     0.12607   0.14970   0.96361   0.00000  Uiso   1.00
C730   C     0.18569   0.14312   0.54896   0.00000  Uiso   1.00
C731   C     0.08143   0.17026   0.99062   0.00000  Uiso   1.00
C732   C     0.22397   0.11420   0.52637   0.00000  Uiso   1.00
C733   C     0.15526   0.13272   0.98658   0.00000  Uiso   1.00
C734   C     0.14709   0.14785   0.53281   0.00000  Uiso   1.00
H735   H     0.03240   0.19024   0.56030   0.00000  Uiso   1.00
H736   H     0.25427   0.06919   0.97017   0.00000  Uiso   1.00
H737   H     0.16397   0.19384   0.59999   0.00000  Uiso   1.00
H738   H     0.18021   0.14113   0.89232   0.00000  Uiso   1.00
H739   H     0.01576   0.19915   0.98970   0.00000  Uiso   1.00
H740   H     0.28663   0.08183   0.52953   0.00000  Uiso   1.00
H741   H     0.19628   0.04079   0.80241   0.00000  Uiso   1.00
H742   H     0.13686   0.29250   0.69763   0.00000  Uiso   1.00
H743   H     0.29948   0.10255   0.73127   0.00000  Uiso   1.00
H744   H     0.03337   0.23050   0.77000   0.00000  Uiso   1.00
H745   H     0.05011   0.10273   0.73051   0.00000  Uiso   1.00
H746   H     0.28308   0.23053   0.76984   0.00000  Uiso   1.00
N747   N     0.04759   0.16668   0.75001   0.00000  Uiso   1.00
N748   N     0.28574   0.16666   0.74999   0.00000  Uiso   1.00
O749   O     0.12846   0.22775   0.75001   0.00000  Uiso   1.00
O750   O     0.20488   0.10558   0.75000   0.00000  Uiso   1.00
O751   O     0.20490   0.22774   0.75000   0.00000  Uiso   1.00
O752   O     0.12843   0.10559   0.75000   0.00000  Uiso   1.00
O753   O     0.10661   0.16667   0.81613   0.00000  Uiso   1.00
O754   O     0.22672   0.16666   0.68388   0.00000  Uiso   1.00
O755   O     0.18305   0.16666   0.81612   0.00000  Uiso   1.00
O756   O     0.15028   0.16667   0.68388   0.00000  Uiso   1.00
Zn757  Zn    0.11562   0.16667   0.75000   0.00000  Uiso   1.00
Zn758  Zn    0.21771   0.16666   0.75000   0.00000  Uiso   1.00
C759   C     0.28499   0.10620   0.61299   0.00000  Uiso   1.00
O760   O     0.28951   0.06831   0.61534   0.00000  Uiso   1.00
O761   O     0.31113   0.13295   0.63035   0.00000  Uiso   1.00
H762   H     0.33248   0.11700   0.64371   0.00000  Uiso   1.00
C763   C     0.03264   0.19889   0.89778   0.00000  Uiso   1.00
O764   O     0.02499   0.23647   0.89835   0.00000  Uiso   1.00
O765   O     0.00823   0.17201   0.87843   0.00000  Uiso   1.00
H766   H     0.01599   0.14147   0.88135   0.00000  Uiso   1.00
C767   C     0.08099   0.16874   0.61371   0.00000  Uiso   1.00
H768   H     0.09395   0.14709   0.63363   0.00000  Uiso   1.00
O769   O     0.05021   0.19499   0.63551   0.00000  Uiso   1.00
C770   C     0.19152   0.07293   0.92730   0.00000  Uiso   1.00
H771   H     0.15842   0.06969   0.92046   0.00000  Uiso   1.00
O772   O     0.22768   0.05225   0.90344   0.00000  Uiso   1.00
C773   C     0.19531   0.29310   0.82054   0.00000  Uiso   1.00
O774   O     0.17427   0.26156   0.84101   0.00000  Uiso   1.00
O775   O     0.23109   0.31143   0.83344   0.00000  Uiso   1.00
H776   H     0.23679   0.29530   0.85943   0.00000  Uiso   1.00
C777   C     0.13691   0.04016   0.68000   0.00000  Uiso   1.00
O778   O     0.15725   0.07198   0.65972   0.00000  Uiso   1.00
O779   O     0.10116   0.02150   0.66731   0.00000  Uiso   1.00
H780   H     0.09481   0.03773   0.64173   0.00000  Uiso   1.00
C781   C     0.49919   0.24656   0.75171   0.00000  Uiso   1.00
C782   C     0.50083   0.08677   0.74820   0.00000  Uiso   1.00
C783   C     0.43361   0.16599   0.56093   0.00000  Uiso   1.00
C784   C     0.52559   0.10154   0.96545   0.00000  Uiso   1.00
C785   C     0.40129   0.17645   0.53928   0.00000  Uiso   1.00
C786   C     0.55963   0.09306   0.98566   0.00000  Uiso   1.00
C787   C     0.51527   0.31299   0.78319   0.00000  Uiso   1.00
C788   C     0.48438   0.02032   0.71691   0.00000  Uiso   1.00
C789   C     0.51763   0.02257   0.77899   0.00000  Uiso   1.00
C790   C     0.48224   0.31074   0.72099   0.00000  Uiso   1.00
C791   C     0.50182   0.04257   0.74685   0.00000  Uiso   1.00
C792   C     0.49811   0.29076   0.75307   0.00000  Uiso   1.00
C793   C     0.64718   0.13110   0.73963   0.00000  Uiso   1.00
C794   C     0.35258   0.20210   0.76103   0.00000  Uiso   1.00
C795   C     0.36179   0.13116   0.73934   0.00000  Uiso   1.00
C796   C     0.63809   0.20211   0.76095   0.00000  Uiso   1.00
C797   C     0.46877   0.16706   0.83873   0.00000  Uiso   1.00
C798   C     0.53114   0.16512   0.66133   0.00000  Uiso   1.00
C799   C     0.44719   0.16664   0.89117   0.00000  Uiso   1.00
C800   C     0.55068   0.15464   0.61022   0.00000  Uiso   1.00
C801   C     0.38438   0.18498   0.96850   0.00000  Uiso   1.00
C802   C     0.59152   0.10510   0.54623   0.00000  Uiso   1.00
C803   C     0.39962   0.18243   0.91898   0.00000  Uiso   1.00
C804   C     0.58708   0.12332   0.58951   0.00000  Uiso   1.00
C805   C     0.47635   0.15090   0.91390   0.00000  Uiso   1.00
C806   C     0.52134   0.16715   0.58630   0.00000  Uiso   1.00
C807   C     0.45940   0.14970   0.96361   0.00000  Uiso   1.00
C808   C     0.51902   0.14312   0.54896   0.00000  Uiso   1.00
C809   C     0.41476   0.17026   0.99062   0.00000  Uiso   1.00
C810   C     0.55731   0.11420   0.52637   0.00000  Uiso   1.00
C811   C     0.48860   0.13272   0.98658   0.00000  Uiso   1.00
C812   C     0.48042   0.14785   0.53281   0.00000  Uiso   1.00
H813   H     0.36574   0.19024   0.56030   0.00000  Uiso   1.00
H814   H     0.58760   0.06919   0.97017   0.00000  Uiso   1.00
H815   H     0.49730   0.19384   0.59999   0.00000  Uiso   1.00
H816   H     0.51355   0.14113   0.89232   0.00000  Uiso   1.00
H817   H     0.34910   0.19915   0.98970   0.00000  Uiso   1.00
H818   H     0.61997   0.08183   0.52953   0.00000  Uiso   1.00
H819   H     0.52961   0.04079   0.80241   0.00000  Uiso   1.00
H820   H     0.47019   0.29250   0.69763   0.00000  Uiso   1.00
H821   H     0.63282   0.10255   0.73127   0.00000  Uiso   1.00
H822   H     0.36671   0.23050   0.77000   0.00000  Uiso   1.00
H823   H     0.38345   0.10273   0.73051   0.00000  Uiso   1.00
H824   H     0.61641   0.23053   0.76984   0.00000  Uiso   1.00
N825   N     0.38093   0.16668   0.75001   0.00000  Uiso   1.00
N826   N     0.61907   0.16666   0.74999   0.00000  Uiso   1.00
O827   O     0.46179   0.22775   0.75001   0.00000  Uiso   1.00
O828   O     0.53821   0.10558   0.75000   0.00000  Uiso   1.00
O829   O     0.53823   0.22774   0.75000   0.00000  Uiso   1.00
O830   O     0.46177   0.10559   0.75000   0.00000  Uiso   1.00
O831   O     0.43994   0.16667   0.81613   0.00000  Uiso   1.00
O832   O     0.56006   0.16666   0.68388   0.00000  Uiso   1.00
O833   O     0.51639   0.16666   0.81612   0.00000  Uiso   1.00
O834   O     0.48361   0.16667   0.68388   0.00000  Uiso   1.00
Zn835  Zn    0.44896   0.16667   0.75000   0.00000  Uiso   1.00
Zn836  Zn    0.55104   0.16666   0.75000   0.00000  Uiso   1.00
C837   C     0.61832   0.10620   0.61299   0.00000  Uiso   1.00
O838   O     0.62285   0.06831   0.61534   0.00000  Uiso   1.00
O839   O     0.64447   0.13295   0.63035   0.00000  Uiso   1.00
H840   H     0.66582   0.11700   0.64371   0.00000  Uiso   1.00
C841   C     0.36598   0.19889   0.89778   0.00000  Uiso   1.00
O842   O     0.35832   0.23647   0.89835   0.00000  Uiso   1.00
O843   O     0.34157   0.17201   0.87843   0.00000  Uiso   1.00
H844   H     0.34933   0.14147   0.88135   0.00000  Uiso   1.00
C845   C     0.41432   0.16874   0.61371   0.00000  Uiso   1.00
H846   H     0.42729   0.14709   0.63363   0.00000  Uiso   1.00
O847   O     0.38355   0.19499   0.63551   0.00000  Uiso   1.00
C848   C     0.52485   0.07293   0.92730   0.00000  Uiso   1.00
H849   H     0.49175   0.06969   0.92046   0.00000  Uiso   1.00
O850   O     0.56101   0.05225   0.90344   0.00000  Uiso   1.00
C851   C     0.52865   0.29310   0.82054   0.00000  Uiso   1.00
O852   O     0.50760   0.26156   0.84101   0.00000  Uiso   1.00
O853   O     0.56442   0.31143   0.83344   0.00000  Uiso   1.00
H854   H     0.57013   0.29530   0.85943   0.00000  Uiso   1.00
C855   C     0.47024   0.04016   0.68000   0.00000  Uiso   1.00
O856   O     0.49058   0.07198   0.65972   0.00000  Uiso   1.00
O857   O     0.43449   0.02150   0.66731   0.00000  Uiso   1.00
H858   H     0.42814   0.03773   0.64173   0.00000  Uiso   1.00
C859   C     0.83252   0.24656   0.75171   0.00000  Uiso   1.00
C860   C     0.83417   0.08677   0.74820   0.00000  Uiso   1.00
C861   C     0.76694   0.16599   0.56093   0.00000  Uiso   1.00
C862   C     0.85893   0.10154   0.96545   0.00000  Uiso   1.00
C863   C     0.73462   0.17645   0.53928   0.00000  Uiso   1.00
C864   C     0.89296   0.09306   0.98566   0.00000  Uiso   1.00
C865   C     0.84860   0.31299   0.78319   0.00000  Uiso   1.00
C866   C     0.81772   0.02032   0.71691   0.00000  Uiso   1.00
C867   C     0.85096   0.02257   0.77899   0.00000  Uiso   1.00
C868   C     0.81557   0.31074   0.72099   0.00000  Uiso   1.00
C869   C     0.83516   0.04257   0.74685   0.00000  Uiso   1.00
C870   C     0.83145   0.29076   0.75307   0.00000  Uiso   1.00
C871   C     0.98051   0.13110   0.73963   0.00000  Uiso   1.00
C872   C     0.68591   0.20210   0.76103   0.00000  Uiso   1.00
C873   C     0.69513   0.13116   0.73934   0.00000  Uiso   1.00
C874   C     0.97143   0.20211   0.76095   0.00000  Uiso   1.00
C875   C     0.80210   0.16706   0.83873   0.00000  Uiso   1.00
C876   C     0.86447   0.16512   0.66133   0.00000  Uiso   1.00
C877   C     0.78053   0.16664   0.89117   0.00000  Uiso   1.00
C878   C     0.88401   0.15464   0.61022   0.00000  Uiso   1.00
C879   C     0.71771   0.18498   0.96850   0.00000  Uiso   1.00
C880   C     0.92485   0.10510   0.54623   0.00000  Uiso   1.00
C881   C     0.73295   0.18243   0.91898   0.00000  Uiso   1.00
C882   C     0.92041   0.12332   0.58951   0.00000  Uiso   1.00
C883   C     0.80968   0.15090   0.91390   0.00000  Uiso   1.00
C884   C     0.85467   0.16715   0.58630   0.00000  Uiso   1.00
C885   C     0.79273   0.14970   0.96361   0.00000  Uiso   1.00
C886   C     0.85236   0.14312   0.54896   0.00000  Uiso   1.00
C887   C     0.74810   0.17026   0.99062   0.00000  Uiso   1.00
C888   C     0.89064   0.11420   0.52637   0.00000  Uiso   1.00
C889   C     0.82193   0.13272   0.98658   0.00000  Uiso   1.00
C890   C     0.81375   0.14785   0.53281   0.00000  Uiso   1.00
H891   H     0.69907   0.19024   0.56030   0.00000  Uiso   1.00
H892   H     0.92093   0.06919   0.97017   0.00000  Uiso   1.00
H893   H     0.83064   0.19384   0.59999   0.00000  Uiso   1.00
H894   H     0.84688   0.14113   0.89232   0.00000  Uiso   1.00
H895   H     0.68243   0.19915   0.98970   0.00000  Uiso   1.00
H896   H     0.95330   0.08183   0.52953   0.00000  Uiso   1.00
H897   H     0.86295   0.04079   0.80241   0.00000  Uiso   1.00
H898   H     0.80353   0.29250   0.69763   0.00000  Uiso   1.00
H899   H     0.96615   0.10255   0.73127   0.00000  Uiso   1.00
H900   H     0.70004   0.23050   0.77000   0.00000  Uiso   1.00
H901   H     0.71678   0.10273   0.73051   0.00000  Uiso   1.00
H902   H     0.94974   0.23053   0.76984   0.00000  Uiso   1.00
N903   N     0.71426   0.16668   0.75001   0.00000  Uiso   1.00
N904   N     0.95241   0.16666   0.74999   0.00000  Uiso   1.00
O905   O     0.79512   0.22775   0.75001   0.00000  Uiso   1.00
O906   O     0.87154   0.10558   0.75000   0.00000  Uiso   1.00
O907   O     0.87157   0.22774   0.75000   0.00000  Uiso   1.00
O908   O     0.79510   0.10559   0.75000   0.00000  Uiso   1.00
O909   O     0.77328   0.16667   0.81613   0.00000  Uiso   1.00
O910   O     0.89339   0.16666   0.68388   0.00000  Uiso   1.00
O911   O     0.84972   0.16666   0.81612   0.00000  Uiso   1.00
O912   O     0.81695   0.16667   0.68388   0.00000  Uiso   1.00
Zn913  Zn    0.78229   0.16667   0.75000   0.00000  Uiso   1.00
Zn914  Zn    0.88438   0.16666   0.75000   0.00000  Uiso   1.00
C915   C     0.95166   0.10620   0.61299   0.00000  Uiso   1.00
O916   O     0.95618   0.06831   0.61534   0.00000  Uiso   1.00
O917   O     0.97780   0.13295   0.63035   0.00000  Uiso   1.00
H918   H     0.99915   0.11700   0.64371   0.00000  Uiso   1.00
C919   C     0.69931   0.19889   0.89778   0.00000  Uiso   1.00
O920   O     0.69166   0.23647   0.89835   0.00000  Uiso   1.00
O921   O     0.67490   0.17201   0.87843   0.00000  Uiso   1.00
H922   H     0.68266   0.14147   0.88135   0.00000  Uiso   1.00
C923   C     0.74766   0.16874   0.61371   0.00000  Uiso   1.00
H924   H     0.76062   0.14709   0.63363   0.00000  Uiso   1.00
O925   O     0.71688   0.19499   0.63551   0.00000  Uiso   1.00
C926   C     0.85818   0.07293   0.92730   0.00000  Uiso   1.00
H927   H     0.82508   0.06969   0.92046   0.00000  Uiso   1.00
O928   O     0.89434   0.05225   0.90344   0.00000  Uiso   1.00
C929   C     0.86198   0.29310   0.82054   0.00000  Uiso   1.00
O930   O     0.84093   0.26156   0.84101   0.00000  Uiso   1.00
O931   O     0.89775   0.31143   0.83344   0.00000  Uiso   1.00
H932   H     0.90346   0.29530   0.85943   0.00000  Uiso   1.00
C933   C     0.80357   0.04016   0.68000   0.00000  Uiso   1.00
O934   O     0.82391   0.07198   0.65972   0.00000  Uiso   1.00
O935   O     0.76782   0.02150   0.66731   0.00000  Uiso   1.00
H936   H     0.76147   0.03773   0.64173   0.00000  Uiso   1.00
C937   C     0.16585   0.57990   0.75171   0.00000  Uiso   1.00
C938   C     0.16750   0.42010   0.74820   0.00000  Uiso   1.00
C939   C     0.10028   0.49932   0.56093   0.00000  Uiso   1.00
C940   C     0.19226   0.43488   0.96545   0.00000  Uiso   1.00
C941   C     0.06796   0.50978   0.53928   0.00000  Uiso   1.00
C942   C     0.22630   0.42639   0.98566   0.00000  Uiso   1.00
C943   C     0.18194   0.64633   0.78319   0.00000  Uiso   1.00
C944   C     0.15105   0.35366   0.71691   0.00000  Uiso   1.00
C945   C     0.18429   0.35591   0.77899   0.00000  Uiso   1.00
C946   C     0.14890   0.64407   0.72099   0.00000  Uiso   1.00
C947   C     0.16849   0.37590   0.74685   0.00000  Uiso   1.00
C948   C     0.16478   0.62409   0.75307   0.00000  Uiso   1.00
C949   C     0.31385   0.46443   0.73963   0.00000  Uiso   1.00
C950   C     0.01924   0.53543   0.76103   0.00000  Uiso   1.00
C951   C     0.02846   0.46450   0.73934   0.00000  Uiso   1.00
C952   C     0.30476   0.53544   0.76095   0.00000  Uiso   1.00
C953   C     0.13543   0.50039   0.83873   0.00000  Uiso   1.00
C954   C     0.19780   0.49845   0.66133   0.00000  Uiso   1.00
C955   C     0.11386   0.49997   0.89117   0.00000  Uiso   1.00
C956   C     0.21734   0.48797   0.61022   0.00000  Uiso   1.00
C957   C     0.05105   0.51831   0.96850   0.00000  Uiso   1.00
C958   C     0.25819   0.43843   0.54623   0.00000  Uiso   1.00
C959   C     0.06628   0.51577   0.91898   0.00000  Uiso   1.00
C960   C     0.25375   0.45665   0.58951   0.00000  Uiso   1.00
C961   C     0.14302   0.48423   0.91390   0.00000  Uiso   1.00
C962   C     0.18801   0.50048   0.58630   0.00000  Uiso   1.00
C963   C     0.12607   0.48303   0.96361   0.00000  Uiso   1.00
C964   C     0.18569   0.47645   0.54896   0.00000  Uiso   1.00
C965   C     0.08143   0.50359   0.99062   0.00000  Uiso   1.00
C966   C     0.22397   0.44753   0.52637   0.00000  Uiso   1.00
C967   C     0.15526   0.46605   0.98658   0.00000  Uiso   1.00
C968   C     0.14709   0.48118   0.53281   0.00000  Uiso   1.00
H969   H     0.03240   0.52358   0.56030   0.00000  Uiso   1.00
H970   H     0.25427   0.40252   0.97017   0.00000  Uiso   1.00
H971   H     0.16397   0.52717   0.59999   0.00000  Uiso   1.00
H972   H     0.18021   0.47446   0.89232   0.00000  Uiso   1.00
H973   H     0.01576   0.53249   0.98970   0.00000  Uiso   1.00
H974   H     0.28663   0.41517   0.52953   0.00000  Uiso   1.00
H975   H     0.19628   0.37412   0.80241   0.00000  Uiso   1.00
H976   H     0.13686   0.62584   0.69763   0.00000  Uiso   1.00
H977   H     0.29948   0.43588   0.73127   0.00000  Uiso   1.00
H978   H     0.03337   0.56383   0.77000   0.00000  Uiso   1.00
H979   H     0.05011   0.43606   0.73051   0.00000  Uiso   1.00
H980   H     0.28308   0.56386   0.76984   0.00000  Uiso   1.00
N981   N     0.04759   0.50001   0.75001   0.00000  Uiso   1.00
N982   N     0.28574   0.49999   0.74999   0.00000  Uiso   1.00
O983   O     0.12846   0.56108   0.75001   0.00000  Uiso   1.00
O984   O     0.20488   0.43892   0.75000   0.00000  Uiso   1.00
O985   O     0.20490   0.56107   0.75000   0.00000  Uiso   1.00
O986   O     0.12843   0.43893   0.75000   0.00000  Uiso   1.00
O987   O     0.10661   0.50001   0.81613   0.00000  Uiso   1.00
O988   O     0.22672   0.49999   0.68388   0.00000  Uiso   1.00
O989   O     0.18305   0.50000   0.81612   0.00000  Uiso   1.00
O990   O     0.15028   0.50000   0.68388   0.00000  Uiso   1.00
Zn991  Zn    0.11562   0.50001   0.75000   0.00000  Uiso   1.00
Zn992  Zn    0.21771   0.49999   0.75000   0.00000  Uiso   1.00
C993   C     0.28499   0.43953   0.61299   0.00000  Uiso   1.00
O994   O     0.28951   0.40164   0.61534   0.00000  Uiso   1.00
O995   O     0.31113   0.46628   0.63035   0.00000  Uiso   1.00
H996   H     0.33248   0.45033   0.64371   0.00000  Uiso   1.00
C997   C     0.03264   0.53223   0.89778   0.00000  Uiso   1.00
O998   O     0.02499   0.56980   0.89835   0.00000  Uiso   1.00
O999   O     0.00823   0.50534   0.87843   0.00000  Uiso   1.00
H1000  H     0.01599   0.47481   0.88135   0.00000  Uiso   1.00
C1001  C     0.08099   0.50207   0.61371   0.00000  Uiso   1.00
H1002  H     0.09395   0.48043   0.63363   0.00000  Uiso   1.00
O1003  O     0.05021   0.52833   0.63551   0.00000  Uiso   1.00
C1004  C     0.19152   0.40627   0.92730   0.00000  Uiso   1.00
H1005  H     0.15842   0.40302   0.92046   0.00000  Uiso   1.00
O1006  O     0.22768   0.38558   0.90344   0.00000  Uiso   1.00
C1007  C     0.19531   0.62644   0.82054   0.00000  Uiso   1.00
O1008  O     0.17427   0.59490   0.84101   0.00000  Uiso   1.00
O1009  O     0.23109   0.64476   0.83344   0.00000  Uiso   1.00
H1010  H     0.23679   0.62863   0.85943   0.00000  Uiso   1.00
C1011  C     0.13691   0.37349   0.68000   0.00000  Uiso   1.00
O1012  O     0.15725   0.40531   0.65972   0.00000  Uiso   1.00
O1013  O     0.10116   0.35483   0.66731   0.00000  Uiso   1.00
H1014  H     0.09481   0.37107   0.64173   0.00000  Uiso   1.00
C1015  C     0.49919   0.57990   0.75171   0.00000  Uiso   1.00
C1016  C     0.50083   0.42010   0.74820   0.00000  Uiso   1.00
C1017  C     0.43361   0.49932   0.56093   0.00000  Uiso   1.00
C1018  C     0.52559   0.43488   0.96545   0.00000  Uiso   1.00
C1019  C     0.40129   0.50978   0.53928   0.00000  Uiso   1.00
C1020  C     0.55963   0.42639   0.98566   0.00000  Uiso   1.00
C1021  C     0.51527   0.64633   0.78319   0.00000  Uiso   1.00
C1022  C     0.48438   0.35366   0.71691   0.00000  Uiso   1.00
C1023  C     0.51763   0.35591   0.77899   0.00000  Uiso   1.00
C1024  C     0.48224   0.64407   0.72099   0.00000  Uiso   1.00
C1025  C     0.50182   0.37590   0.74685   0.00000  Uiso   1.00
C1026  C     0.49811   0.62409   0.75307   0.00000  Uiso   1.00
C1027  C     0.64718   0.46443   0.73963   0.00000  Uiso   1.00
C1028  C     0.35258   0.53543   0.76103   0.00000  Uiso   1.00
C1029  C     0.36179   0.46450   0.73934   0.00000  Uiso   1.00
C1030  C     0.63809   0.53544   0.76095   0.00000  Uiso   1.00
C1031  C     0.46877   0.50039   0.83873   0.00000  Uiso   1.00
C1032  C     0.53114   0.49845   0.66133   0.00000  Uiso   1.00
C1033  C     0.44719   0.49997   0.89117   0.00000  Uiso   1.00
C1034  C     0.55068   0.48797   0.61022   0.00000  Uiso   1.00
C1035  C     0.38438   0.51831   0.96850   0.00000  Uiso   1.00
C1036  C     0.59152   0.43843   0.54623   0.00000  Uiso   1.00
C1037  C     0.39962   0.51577   0.91898   0.00000  Uiso   1.00
C1038  C     0.58708   0.45665   0.58951   0.00000  Uiso   1.00
C1039  C     0.47635   0.48423   0.91390   0.00000  Uiso   1.00
C1040  C     0.52134   0.50048   0.58630   0.00000  Uiso   1.00
C1041  C     0.45940   0.48303   0.96361   0.00000  Uiso   1.00
C1042  C     0.51902   0.47645   0.54896   0.00000  Uiso   1.00
C1043  C     0.41476   0.50359   0.99062   0.00000  Uiso   1.00
C1044  C     0.55731   0.44753   0.52637   0.00000  Uiso   1.00
C1045  C     0.48860   0.46605   0.98658   0.00000  Uiso   1.00
C1046  C     0.48042   0.48118   0.53281   0.00000  Uiso   1.00
H1047  H     0.36574   0.52358   0.56030   0.00000  Uiso   1.00
H1048  H     0.58760   0.40252   0.97017   0.00000  Uiso   1.00
H1049  H     0.49730   0.52717   0.59999   0.00000  Uiso   1.00
H1050  H     0.51355   0.47446   0.89232   0.00000  Uiso   1.00
H1051  H     0.34910   0.53249   0.98970   0.00000  Uiso   1.00
H1052  H     0.61997   0.41517   0.52953   0.00000  Uiso   1.00
H1053  H     0.52961   0.37412   0.80241   0.00000  Uiso   1.00
H1054  H     0.47019   0.62584   0.69763   0.00000  Uiso   1.00
H1055  H     0.63282   0.43588   0.73127   0.00000  Uiso   1.00
H1056  H     0.36671   0.56383   0.77000   0.00000  Uiso   1.00
H1057  H     0.38345   0.43606   0.73051   0.00000  Uiso   1.00
H1058  H     0.61641   0.56386   0.76984   0.00000  Uiso   1.00
N1059  N     0.38093   0.50001   0.75001   0.00000  Uiso   1.00
N1060  N     0.61907   0.49999   0.74999   0.00000  Uiso   1.00
O1061  O     0.46179   0.56108   0.75001   0.00000  Uiso   1.00
O1062  O     0.53821   0.43892   0.75000   0.00000  Uiso   1.00
O1063  O     0.53823   0.56107   0.75000   0.00000  Uiso   1.00
O1064  O     0.46177   0.43893   0.75000   0.00000  Uiso   1.00
O1065  O     0.43994   0.50001   0.81613   0.00000  Uiso   1.00
O1066  O     0.56006   0.49999   0.68388   0.00000  Uiso   1.00
O1067  O     0.51639   0.50000   0.81612   0.00000  Uiso   1.00
O1068  O     0.48361   0.50000   0.68388   0.00000  Uiso   1.00
Zn1069 Zn    0.44896   0.50001   0.75000   0.00000  Uiso   1.00
Zn1070 Zn    0.55104   0.49999   0.75000   0.00000  Uiso   1.00
C1071  C     0.61832   0.43953   0.61299   0.00000  Uiso   1.00
O1072  O     0.62285   0.40164   0.61534   0.00000  Uiso   1.00
O1073  O     0.64447   0.46628   0.63035   0.00000  Uiso   1.00
H1074  H     0.66582   0.45033   0.64371   0.00000  Uiso   1.00
C1075  C     0.36598   0.53223   0.89778   0.00000  Uiso   1.00
O1076  O     0.35832   0.56980   0.89835   0.00000  Uiso   1.00
O1077  O     0.34157   0.50534   0.87843   0.00000  Uiso   1.00
H1078  H     0.34933   0.47481   0.88135   0.00000  Uiso   1.00
C1079  C     0.41432   0.50207   0.61371   0.00000  Uiso   1.00
H1080  H     0.42729   0.48043   0.63363   0.00000  Uiso   1.00
O1081  O     0.38355   0.52833   0.63551   0.00000  Uiso   1.00
C1082  C     0.52485   0.40627   0.92730   0.00000  Uiso   1.00
H1083  H     0.49175   0.40302   0.92046   0.00000  Uiso   1.00
O1084  O     0.56101   0.38558   0.90344   0.00000  Uiso   1.00
C1085  C     0.52865   0.62644   0.82054   0.00000  Uiso   1.00
O1086  O     0.50760   0.59490   0.84101   0.00000  Uiso   1.00
O1087  O     0.56442   0.64476   0.83344   0.00000  Uiso   1.00
H1088  H     0.57013   0.62863   0.85943   0.00000  Uiso   1.00
C1089  C     0.47024   0.37349   0.68000   0.00000  Uiso   1.00
O1090  O     0.49058   0.40531   0.65972   0.00000  Uiso   1.00
O1091  O     0.43449   0.35483   0.66731   0.00000  Uiso   1.00
H1092  H     0.42814   0.37107   0.64173   0.00000  Uiso   1.00
C1093  C     0.83252   0.57990   0.75171   0.00000  Uiso   1.00
C1094  C     0.83417   0.42010   0.74820   0.00000  Uiso   1.00
C1095  C     0.76694   0.49932   0.56093   0.00000  Uiso   1.00
C1096  C     0.85893   0.43488   0.96545   0.00000  Uiso   1.00
C1097  C     0.73462   0.50978   0.53928   0.00000  Uiso   1.00
C1098  C     0.89296   0.42639   0.98566   0.00000  Uiso   1.00
C1099  C     0.84860   0.64633   0.78319   0.00000  Uiso   1.00
C1100  C     0.81772   0.35366   0.71691   0.00000  Uiso   1.00
C1101  C     0.85096   0.35591   0.77899   0.00000  Uiso   1.00
C1102  C     0.81557   0.64407   0.72099   0.00000  Uiso   1.00
C1103  C     0.83516   0.37590   0.74685   0.00000  Uiso   1.00
C1104  C     0.83145   0.62409   0.75307   0.00000  Uiso   1.00
C1105  C     0.98051   0.46443   0.73963   0.00000  Uiso   1.00
C1106  C     0.68591   0.53543   0.76103   0.00000  Uiso   1.00
C1107  C     0.69513   0.46450   0.73934   0.00000  Uiso   1.00
C1108  C     0.97143   0.53544   0.76095   0.00000  Uiso   1.00
C1109  C     0.80210   0.50039   0.83873   0.00000  Uiso   1.00
C1110  C     0.86447   0.49845   0.66133   0.00000  Uiso   1.00
C1111  C     0.78053   0.49997   0.89117   0.00000  Uiso   1.00
C1112  C     0.88401   0.48797   0.61022   0.00000  Uiso   1.00
C1113  C     0.71771   0.51831   0.96850   0.00000  Uiso   1.00
C1114  C     0.92485   0.43843   0.54623   0.00000  Uiso   1.00
C1115  C     0.73295   0.51577   0.91898   0.00000  Uiso   1.00
C1116  C     0.92041   0.45665   0.58951   0.00000  Uiso   1.00
C1117  C     0.80968   0.48423   0.91390   0.00000  Uiso   1.00
C1118  C     0.85467   0.50048   0.58630   0.00000  Uiso   1.00
C1119  C     0.79273   0.48303   0.96361   0.00000  Uiso   1.00
C1120  C     0.85236   0.47645   0.54896   0.00000  Uiso   1.00
C1121  C     0.74810   0.50359   0.99062   0.00000  Uiso   1.00
C1122  C     0.89064   0.44753   0.52637   0.00000  Uiso   1.00
C1123  C     0.82193   0.46605   0.98658   0.00000  Uiso   1.00
C1124  C     0.81375   0.48118   0.53281   0.00000  Uiso   1.00
H1125  H     0.69907   0.52358   0.56030   0.00000  Uiso   1.00
H1126  H     0.92093   0.40252   0.97017   0.00000  Uiso   1.00
H1127  H     0.83064   0.52717   0.59999   0.00000  Uiso   1.00
H1128  H     0.84688   0.47446   0.89232   0.00000  Uiso   1.00
H1129  H     0.68243   0.53249   0.98970   0.00000  Uiso   1.00
H1130  H     0.95330   0.41517   0.52953   0.00000  Uiso   1.00
H1131  H     0.86295   0.37412   0.80241   0.00000  Uiso   1.00
H1132  H     0.80353   0.62584   0.69763   0.00000  Uiso   1.00
H1133  H     0.96615   0.43588   0.73127   0.00000  Uiso   1.00
H1134  H     0.70004   0.56383   0.77000   0.00000  Uiso   1.00
H1135  H     0.71678   0.43606   0.73051   0.00000  Uiso   1.00
H1136  H     0.94974   0.56386   0.76984   0.00000  Uiso   1.00
N1137  N     0.71426   0.50001   0.75001   0.00000  Uiso   1.00
N1138  N     0.95241   0.49999   0.74999   0.00000  Uiso   1.00
O1139  O     0.79512   0.56108   0.75001   0.00000  Uiso   1.00
O1140  O     0.87154   0.43892   0.75000   0.00000  Uiso   1.00
O1141  O     0.87157   0.56107   0.75000   0.00000  Uiso   1.00
O1142  O     0.79510   0.43893   0.75000   0.00000  Uiso   1.00
O1143  O     0.77328   0.50001   0.81613   0.00000  Uiso   1.00
O1144  O     0.89339   0.49999   0.68388   0.00000  Uiso   1.00
O1145  O     0.84972   0.50000   0.81612   0.00000  Uiso   1.00
O1146  O     0.81695   0.50000   0.68388   0.00000  Uiso   1.00
Zn1147 Zn    0.78229   0.50001   0.75000   0.00000  Uiso   1.00
Zn1148 Zn    0.88438   0.49999   0.75000   0.00000  Uiso   1.00
C1149  C     0.95166   0.43953   0.61299   0.00000  Uiso   1.00
O1150  O     0.95618   0.40164   0.61534   0.00000  Uiso   1.00
O1151  O     0.97780   0.46628   0.63035   0.00000  Uiso   1.00
H1152  H     0.99915   0.45033   0.64371   0.00000  Uiso   1.00
C1153  C     0.69931   0.53223   0.89778   0.00000  Uiso   1.00
O1154  O     0.69166   0.56980   0.89835   0.00000  Uiso   1.00
O1155  O     0.67490   0.50534   0.87843   0.00000  Uiso   1.00
H1156  H     0.68266   0.47481   0.88135   0.00000  Uiso   1.00
C1157  C     0.74766   0.50207   0.61371   0.00000  Uiso   1.00
H1158  H     0.76062   0.48043   0.63363   0.00000  Uiso   1.00
O1159  O     0.71688   0.52833   0.63551   0.00000  Uiso   1.00
C1160  C     0.85818   0.40627   0.92730   0.00000  Uiso   1.00
H1161  H     0.82508   0.40302   0.92046   0.00000  Uiso   1.00
O1162  O     0.89434   0.38558   0.90344   0.00000  Uiso   1.00
C1163  C     0.86198   0.62644   0.82054   0.00000  Uiso   1.00
O1164  O     0.84093   0.59490   0.84101   0.00000  Uiso   1.00
O1165  O     0.89775   0.64476   0.83344   0.00000  Uiso   1.00
H1166  H     0.90346   0.62863   0.85943   0.00000  Uiso   1.00
C1167  C     0.80357   0.37349   0.68000   0.00000  Uiso   1.00
O1168  O     0.82391   0.40531   0.65972   0.00000  Uiso   1.00
O1169  O     0.76782   0.35483   0.66731   0.00000  Uiso   1.00
H1170  H     0.76147   0.37107   0.64173   0.00000  Uiso   1.00
C1171  C     0.16585   0.91323   0.75171   0.00000  Uiso   1.00
C1172  C     0.16750   0.75343   0.74820   0.00000  Uiso   1.00
C1173  C     0.10028   0.83265   0.56093   0.00000  Uiso   1.00
C1174  C     0.19226   0.76821   0.96545   0.00000  Uiso   1.00
C1175  C     0.06796   0.84311   0.53928   0.00000  Uiso   1.00
C1176  C     0.22630   0.75973   0.98566   0.00000  Uiso   1.00
C1177  C     0.18194   0.97966   0.78319   0.00000  Uiso   1.00
C1178  C     0.15105   0.68699   0.71691   0.00000  Uiso   1.00
C1179  C     0.18429   0.68924   0.77899   0.00000  Uiso   1.00
C1180  C     0.14890   0.97741   0.72099   0.00000  Uiso   1.00
C1181  C     0.16849   0.70924   0.74685   0.00000  Uiso   1.00
C1182  C     0.16478   0.95742   0.75307   0.00000  Uiso   1.00
C1183  C     0.31385   0.79776   0.73963   0.00000  Uiso   1.00
C1184  C     0.01924   0.86877   0.76103   0.00000  Uiso   1.00
C1185  C     0.02846   0.79783   0.73934   0.00000  Uiso   1.00
C1186  C     0.30476   0.86877   0.76095   0.00000  Uiso   1.00
C1187  C     0.13543   0.83373   0.83873   0.00000  Uiso   1.00
C1188  C     0.19780   0.83179   0.66133   0.00000  Uiso   1.00
C1189  C     0.11386   0.83330   0.89117   0.00000  Uiso   1.00
C1190  C     0.21734   0.82130   0.61022   0.00000  Uiso   1.00
C1191  C     0.05105   0.85164   0.96850   0.00000  Uiso   1.00
C1192  C     0.25819   0.77176   0.54623   0.00000  Uiso   1.00
C1193  C     0.06628   0.84910   0.91898   0.00000  Uiso   1.00
C1194  C     0.25375   0.78998   0.58951   0.00000  Uiso   1.00
C1195  C     0.14302   0.81757   0.91390   0.00000  Uiso   1.00
C1196  C     0.18801   0.83381   0.58630   0.00000  Uiso   1.00
C1197  C     0.12607   0.81636   0.96361   0.00000  Uiso   1.00
C1198  C     0.18569   0.80978   0.54896   0.00000  Uiso   1.00
C1199  C     0.08143   0.83692   0.99062   0.00000  Uiso   1.00
C1200  C     0.22397   0.78086   0.52637   0.00000  Uiso   1.00
C1201  C     0.15526   0.79938   0.98658   0.00000  Uiso   1.00
C1202  C     0.14709   0.81451   0.53281   0.00000  Uiso   1.00
H1203  H     0.03240   0.85691   0.56030   0.00000  Uiso   1.00
H1204  H     0.25427   0.73586   0.97017   0.00000  Uiso   1.00
H1205  H     0.16397   0.86050   0.59999   0.00000  Uiso   1.00
H1206  H     0.18021   0.80780   0.89232   0.00000  Uiso   1.00
H1207  H     0.01576   0.86582   0.98970   0.00000  Uiso   1.00
H1208  H     0.28663   0.74850   0.52953   0.00000  Uiso   1.00
H1209  H     0.19628   0.70746   0.80241   0.00000  Uiso   1.00
H1210  H     0.13686   0.95917   0.69763   0.00000  Uiso   1.00
H1211  H     0.29948   0.76921   0.73127   0.00000  Uiso   1.00
H1212  H     0.03337   0.89716   0.77000   0.00000  Uiso   1.00
H1213  H     0.05011   0.76940   0.73051   0.00000  Uiso   1.00
H1214  H     0.28308   0.89719   0.76984   0.00000  Uiso   1.00
N1215  N     0.04759   0.83334   0.75001   0.00000  Uiso   1.00
N1216  N     0.28574   0.83332   0.74999   0.00000  Uiso   1.00
O1217  O     0.12846   0.89442   0.75001   0.00000  Uiso   1.00
O1218  O     0.20488   0.77225   0.75000   0.00000  Uiso   1.00
O1219  O     0.20490   0.89441   0.75000   0.00000  Uiso   1.00
O1220  O     0.12843   0.77226   0.75000   0.00000  Uiso   1.00
O1221  O     0.10661   0.83334   0.81613   0.00000  Uiso   1.00
O1222  O     0.22672   0.83333   0.68388   0.00000  Uiso   1.00
O1223  O     0.18305   0.83333   0.81612   0.00000  Uiso   1.00
O1224  O     0.15028   0.83334   0.68388   0.00000  Uiso   1.00
Zn1225 Zn    0.11562   0.83334   0.75000   0.00000  Uiso   1.00
Zn1226 Zn    0.21771   0.83333   0.75000   0.00000  Uiso   1.00
C1227  C     0.28499   0.77287   0.61299   0.00000  Uiso   1.00
O1228  O     0.28951   0.73498   0.61534   0.00000  Uiso   1.00
O1229  O     0.31113   0.79962   0.63035   0.00000  Uiso   1.00
H1230  H     0.33248   0.78367   0.64371   0.00000  Uiso   1.00
C1231  C     0.03264   0.86556   0.89778   0.00000  Uiso   1.00
O1232  O     0.02499   0.90314   0.89835   0.00000  Uiso   1.00
O1233  O     0.00823   0.83867   0.87843   0.00000  Uiso   1.00
H1234  H     0.01599   0.80814   0.88135   0.00000  Uiso   1.00
C1235  C     0.08099   0.83541   0.61371   0.00000  Uiso   1.00
H1236  H     0.09395   0.81376   0.63363   0.00000  Uiso   1.00
O1237  O     0.05021   0.86166   0.63551   0.00000  Uiso   1.00
C1238  C     0.19152   0.73960   0.92730   0.00000  Uiso   1.00
H1239  H     0.15842   0.73636   0.92046   0.00000  Uiso   1.00
O1240  O     0.22768   0.71892   0.90344   0.00000  Uiso   1.00
C1241  C     0.19531   0.95977   0.82054   0.00000  Uiso   1.00
O1242  O     0.17427   0.92823   0.84101   0.00000  Uiso   1.00
O1243  O     0.23109   0.97809   0.83344   0.00000  Uiso   1.00
H1244  H     0.23679   0.96197   0.85943   0.00000  Uiso   1.00
C1245  C     0.13691   0.70682   0.68000   0.00000  Uiso   1.00
O1246  O     0.15725   0.73865   0.65972   0.00000  Uiso   1.00
O1247  O     0.10116   0.68816   0.66731   0.00000  Uiso   1.00
H1248  H     0.09481   0.70440   0.64173   0.00000  Uiso   1.00
C1249  C     0.49919   0.91323   0.75171   0.00000  Uiso   1.00
C1250  C     0.50083   0.75343   0.74820   0.00000  Uiso   1.00
C1251  C     0.43361   0.83265   0.56093   0.00000  Uiso   1.00
C1252  C     0.52559   0.76821   0.96545   0.00000  Uiso   1.00
C1253  C     0.40129   0.84311   0.53928   0.00000  Uiso   1.00
C1254  C     0.55963   0.75973   0.98566   0.00000  Uiso   1.00
C1255  C     0.51527   0.97966   0.78319   0.00000  Uiso   1.00
C1256  C     0.48438   0.68699   0.71691   0.00000  Uiso   1.00
C1257  C     0.51763   0.68924   0.77899   0.00000  Uiso   1.00
C1258  C     0.48224   0.97741   0.72099   0.00000  Uiso   1.00
C1259  C     0.50182   0.70924   0.74685   0.00000  Uiso   1.00
C1260  C     0.49811   0.95742   0.75307   0.00000  Uiso   1.00
C1261  C     0.64718   0.79776   0.73963   0.00000  Uiso   1.00
C1262  C     0.35258   0.86877   0.76103   0.00000  Uiso   1.00
C1263  C     0.36179   0.79783   0.73934   0.00000  Uiso   1.00
C1264  C     0.63809   0.86877   0.76095   0.00000  Uiso   1.00
C1265  C     0.46877   0.83373   0.83873   0.00000  Uiso   1.00
C1266  C     0.53114   0.83179   0.66133   0.00000  Uiso   1.00
C1267  C     0.44719   0.83330   0.89117   0.00000  Uiso   1.00
C1268  C     0.55068   0.82130   0.61022   0.00000  Uiso   1.00
C1269  C     0.38438   0.85164   0.96850   0.00000  Uiso   1.00
C1270  C     0.59152   0.77176   0.54623   0.00000  Uiso   1.00
C1271  C     0.39962   0.84910   0.91898   0.00000  Uiso   1.00
C1272  C     0.58708   0.78998   0.58951   0.00000  Uiso   1.00
C1273  C     0.47635   0.81757   0.91390   0.00000  Uiso   1.00
C1274  C     0.52134   0.83381   0.58630   0.00000  Uiso   1.00
C1275  C     0.45940   0.81636   0.96361   0.00000  Uiso   1.00
C1276  C     0.51902   0.80978   0.54896   0.00000  Uiso   1.00
C1277  C     0.41476   0.83692   0.99062   0.00000  Uiso   1.00
C1278  C     0.55731   0.78086   0.52637   0.00000  Uiso   1.00
C1279  C     0.48860   0.79938   0.98658   0.00000  Uiso   1.00
C1280  C     0.48042   0.81451   0.53281   0.00000  Uiso   1.00
H1281  H     0.36574   0.85691   0.56030   0.00000  Uiso   1.00
H1282  H     0.58760   0.73586   0.97017   0.00000  Uiso   1.00
H1283  H     0.49730   0.86050   0.59999   0.00000  Uiso   1.00
H1284  H     0.51355   0.80780   0.89232   0.00000  Uiso   1.00
H1285  H     0.34910   0.86582   0.98970   0.00000  Uiso   1.00
H1286  H     0.61997   0.74850   0.52953   0.00000  Uiso   1.00
H1287  H     0.52961   0.70746   0.80241   0.00000  Uiso   1.00
H1288  H     0.47019   0.95917   0.69763   0.00000  Uiso   1.00
H1289  H     0.63282   0.76921   0.73127   0.00000  Uiso   1.00
H1290  H     0.36671   0.89716   0.77000   0.00000  Uiso   1.00
H1291  H     0.38345   0.76940   0.73051   0.00000  Uiso   1.00
H1292  H     0.61641   0.89719   0.76984   0.00000  Uiso   1.00
N1293  N     0.38093   0.83334   0.75001   0.00000  Uiso   1.00
N1294  N     0.61907   0.83332   0.74999   0.00000  Uiso   1.00
O1295  O     0.46179   0.89442   0.75001   0.00000  Uiso   1.00
O1296  O     0.53821   0.77225   0.75000   0.00000  Uiso   1.00
O1297  O     0.53823   0.89441   0.75000   0.00000  Uiso   1.00
O1298  O     0.46177   0.77226   0.75000   0.00000  Uiso   1.00
O1299  O     0.43994   0.83334   0.81613   0.00000  Uiso   1.00
O1300  O     0.56006   0.83333   0.68388   0.00000  Uiso   1.00
O1301  O     0.51639   0.83333   0.81612   0.00000  Uiso   1.00
O1302  O     0.48361   0.83334   0.68388   0.00000  Uiso   1.00
Zn1303 Zn    0.44896   0.83334   0.75000   0.00000  Uiso   1.00
Zn1304 Zn    0.55104   0.83333   0.75000   0.00000  Uiso   1.00
C1305  C     0.61832   0.77287   0.61299   0.00000  Uiso   1.00
O1306  O     0.62285   0.73498   0.61534   0.00000  Uiso   1.00
O1307  O     0.64447   0.79962   0.63035   0.00000  Uiso   1.00
H1308  H     0.66582   0.78367   0.64371   0.00000  Uiso   1.00
C1309  C     0.36598   0.86556   0.89778   0.00000  Uiso   1.00
O1310  O     0.35832   0.90314   0.89835   0.00000  Uiso   1.00
O1311  O     0.34157   0.83867   0.87843   0.00000  Uiso   1.00
H1312  H     0.34933   0.80814   0.88135   0.00000  Uiso   1.00
C1313  C     0.41432   0.83541   0.61371   0.00000  Uiso   1.00
H1314  H     0.42729   0.81376   0.63363   0.00000  Uiso   1.00
O1315  O     0.38355   0.86166   0.63551   0.00000  Uiso   1.00
C1316  C     0.52485   0.73960   0.92730   0.00000  Uiso   1.00
H1317  H     0.49175   0.73636   0.92046   0.00000  Uiso   1.00
O1318  O     0.56101   0.71892   0.90344   0.00000  Uiso   1.00
C1319  C     0.52865   0.95977   0.82054   0.00000  Uiso   1.00
O1320  O     0.50760   0.92823   0.84101   0.00000  Uiso   1.00
O1321  O     0.56442   0.97809   0.83344   0.00000  Uiso   1.00
H1322  H     0.57013   0.96197   0.85943   0.00000  Uiso   1.00
C1323  C     0.47024   0.70682   0.68000   0.00000  Uiso   1.00
O1324  O     0.49058   0.73865   0.65972   0.00000  Uiso   1.00
O1325  O     0.43449   0.68816   0.66731   0.00000  Uiso   1.00
H1326  H     0.42814   0.70440   0.64173   0.00000  Uiso   1.00
C1327  C     0.83252   0.91323   0.75171   0.00000  Uiso   1.00
C1328  C     0.83417   0.75343   0.74820   0.00000  Uiso   1.00
C1329  C     0.76694   0.83265   0.56093   0.00000  Uiso   1.00
C1330  C     0.85893   0.76821   0.96545   0.00000  Uiso   1.00
C1331  C     0.73462   0.84311   0.53928   0.00000  Uiso   1.00
C1332  C     0.89296   0.75973   0.98566   0.00000  Uiso   1.00
C1333  C     0.84860   0.97966   0.78319   0.00000  Uiso   1.00
C1334  C     0.81772   0.68699   0.71691   0.00000  Uiso   1.00
C1335  C     0.85096   0.68924   0.77899   0.00000  Uiso   1.00
C1336  C     0.81557   0.97741   0.72099   0.00000  Uiso   1.00
C1337  C     0.83516   0.70924   0.74685   0.00000  Uiso   1.00
C1338  C     0.83145   0.95742   0.75307   0.00000  Uiso   1.00
C1339  C     0.98051   0.79776   0.73963   0.00000  Uiso   1.00
C1340  C     0.68591   0.86877   0.76103   0.00000  Uiso   1.00
C1341  C     0.69513   0.79783   0.73934   0.00000  Uiso   1.00
C1342  C     0.97143   0.86877   0.76095   0.00000  Uiso   1.00
C1343  C     0.80210   0.83373   0.83873   0.00000  Uiso   1.00
C1344  C     0.86447   0.83179   0.66133   0.00000  Uiso   1.00
C1345  C     0.78053   0.83330   0.89117   0.00000  Uiso   1.00
C1346  C     0.88401   0.82130   0.61022   0.00000  Uiso   1.00
C1347  C     0.71771   0.85164   0.96850   0.00000  Uiso   1.00
C1348  C     0.92485   0.77176   0.54623   0.00000  Uiso   1.00
C1349  C     0.73295   0.84910   0.91898   0.00000  Uiso   1.00
C1350  C     0.92041   0.78998   0.58951   0.00000  Uiso   1.00
C1351  C     0.80968   0.81757   0.91390   0.00000  Uiso   1.00
C1352  C     0.85467   0.83381   0.58630   0.00000  Uiso   1.00
C1353  C     0.79273   0.81636   0.96361   0.00000  Uiso   1.00
C1354  C     0.85236   0.80978   0.54896   0.00000  Uiso   1.00
C1355  C     0.74810   0.83692   0.99062   0.00000  Uiso   1.00
C1356  C     0.89064   0.78086   0.52637   0.00000  Uiso   1.00
C1357  C     0.82193   0.79938   0.98658   0.00000  Uiso   1.00
C1358  C     0.81375   0.81451   0.53281   0.00000  Uiso   1.00
H1359  H     0.69907   0.85691   0.56030   0.00000  Uiso   1.00
H1360  H     0.92093   0.73586   0.97017   0.00000  Uiso   1.00
H1361  H     0.83064   0.86050   0.59999   0.00000  Uiso   1.00
H1362  H     0.84688   0.80780   0.89232   0.00000  Uiso   1.00
H1363  H     0.68243   0.86582   0.98970   0.00000  Uiso   1.00
H1364  H     0.95330   0.74850   0.52953   0.00000  Uiso   1.00
H1365  H     0.86295   0.70746   0.80241   0.00000  Uiso   1.00
H1366  H     0.80353   0.95917   0.69763   0.00000  Uiso   1.00
H1367  H     0.96615   0.76921   0.73127   0.00000  Uiso   1.00
H1368  H     0.70004   0.89716   0.77000   0.00000  Uiso   1.00
H1369  H     0.71678   0.76940   0.73051   0.00000  Uiso   1.00
H1370  H     0.94974   0.89719   0.76984   0.00000  Uiso   1.00
N1371  N     0.71426   0.83334   0.75001   0.00000  Uiso   1.00
N1372  N     0.95241   0.83332   0.74999   0.00000  Uiso   1.00
O1373  O     0.79512   0.89442   0.75001   0.00000  Uiso   1.00
O1374  O     0.87154   0.77225   0.75000   0.00000  Uiso   1.00
O1375  O     0.87157   0.89441   0.75000   0.00000  Uiso   1.00
O1376  O     0.79510   0.77226   0.75000   0.00000  Uiso   1.00
O1377  O     0.77328   0.83334   0.81613   0.00000  Uiso   1.00
O1378  O     0.89339   0.83333   0.68388   0.00000  Uiso   1.00
O1379  O     0.84972   0.83333   0.81612   0.00000  Uiso   1.00
O1380  O     0.81695   0.83334   0.68388   0.00000  Uiso   1.00
Zn1381 Zn    0.78229   0.83334   0.75000   0.00000  Uiso   1.00
Zn1382 Zn    0.88438   0.83333   0.75000   0.00000  Uiso   1.00
C1383  C     0.95166   0.77287   0.61299   0.00000  Uiso   1.00
O1384  O     0.95618   0.73498   0.61534   0.00000  Uiso   1.00
O1385  O     0.97780   0.79962   0.63035   0.00000  Uiso   1.00
H1386  H     0.99915   0.78367   0.64371   0.00000  Uiso   1.00
C1387  C     0.69931   0.86556   0.89778   0.00000  Uiso   1.00
O1388  O     0.69166   0.90314   0.89835   0.00000  Uiso   1.00
O1389  O     0.67490   0.83867   0.87843   0.00000  Uiso   1.00
H1390  H     0.68266   0.80814   0.88135   0.00000  Uiso   1.00
C1391  C     0.74766   0.83541   0.61371   0.00000  Uiso   1.00
H1392  H     0.76062   0.81376   0.63363   0.00000  Uiso   1.00
O1393  O     0.71688   0.86166   0.63551   0.00000  Uiso   1.00
C1394  C     0.85818   0.73960   0.92730   0.00000  Uiso   1.00
H1395  H     0.82508   0.73636   0.92046   0.00000  Uiso   1.00
O1396  O     0.89434   0.71892   0.90344   0.00000  Uiso   1.00
C1397  C     0.86198   0.95977   0.82054   0.00000  Uiso   1.00
O1398  O     0.84093   0.92823   0.84101   0.00000  Uiso   1.00
O1399  O     0.89775   0.97809   0.83344   0.00000  Uiso   1.00
H1400  H     0.90346   0.96197   0.85943   0.00000  Uiso   1.00
C1401  C     0.80357   0.70682   0.68000   0.00000  Uiso   1.00
O1402  O     0.82391   0.73865   0.65972   0.00000  Uiso   1.00
O1403  O     0.76782   0.68816   0.66731   0.00000  Uiso   1.00
H1404  H     0.76147   0.70440   0.64173   0.00000  Uiso   1.00
loop_
_geom_bond_atom_site_label_1
_geom_bond_atom_site_label_2
_geom_bond_distance
_geom_bond_site_symmetry_2
_ccdc_geom_bond_type
C1     C12     1.413   .     S
C1     O47     1.282   .     A
C1     O49     1.283   .     A
C2     O50     1.283   .     A
C2     C11     1.414   .     S
C2     O48     1.282   .     A
C3     C65     1.485   .     S
C3     C5      1.400   .     A
C3     C32     1.431   .     A
C4     C6      1.399   .     A
C4     C68     1.488   .     S
C4     C31     1.429   .     A
C5     H33     1.085   .     S
C5     C731    1.392   1_554 S
C6     H34     1.085   .     S
C6     C732    1.392   .     S
C7     C71     1.488   .     S
C7     C12     1.408   .     A
C7     C243    1.378   .     S
C8     C75     1.488   .     S
C8     C11     1.409   .     A
C8     C478    1.377   1_545 S
C9     H39     1.086   .     S
C9     C11     1.396   .     A
C9     C475    1.378   1_545 S
C10    H40     1.086   .     S
C10    C12     1.395   .     A
C10    C242    1.377   .     S
C13    H41     1.081   .     S
C13    N46     1.367   .     A
C13    C93     1.416   .     S
C14    H42     1.081   .     S
C14    N45     1.367   .     A
C14    C172    1.417   1_455 S
C15    N45     1.367   .     A
C15    H43     1.081   .     S
C15    C169    1.416   1_455 S
C16    H44     1.081   .     S
C16    N46     1.367   .     A
C16    C92     1.417   .     S
C17    O51     1.292   .     A
C17    O53     1.303   .     A
C17    C19     1.471   .     S
C18    O52     1.294   .     A
C18    C20     1.472   .     S
C18    O54     1.300   .     A
C19    C23     1.418   .     A
C19    C25     1.396   .     A
C20    C24     1.420   .     A
C20    C26     1.394   .     A
C21    C23     1.399   .     A
C21    C29     1.400   .     A
C21    H37     1.085   .     S
C22    H38     1.085   .     S
C22    C24     1.402   .     A
C22    C30     1.400   .     A
C23    C61     1.480   .     S
C24    C57     1.479   .     S
C25    C27     1.398   .     A
C25    H36     1.081   .     S
C26    C28     1.399   .     A
C26    H35     1.081   .     S
C27    C29     1.411   .     A
C27    C31     1.416   .     A
C28    C32     1.419   .     A
C28    C30     1.410   .     A
C29    C707    1.392   .     S
C30    C708    1.392   1_554 S
C31    C734    1.419   .     S
C32    C733    1.419   1_554 S
N45    Zn55    2.014   .     S
N46    Zn56    2.014   .     S
O47    Zn55    1.991   .     S
O48    Zn56    1.991   .     S
O49    Zn56    1.988   .     S
O50    Zn55    1.988   .     S
O51    Zn55    1.929   .     S
O52    Zn56    1.929   .     S
O53    Zn56    1.869   .     S
O54    Zn55    1.869   .     S
C57    O59     1.393   .     S
C57    O58     1.223   .     D
O59    H60     1.013   .     S
C61    O63     1.398   .     S
C61    O62     1.220   .     D
O63    H64     1.014   .     S
C65    O67     1.221   .     D
C65    H66     1.085   .     S
C68    H69     1.085   .     S
C68    O70     1.221   .     D
C71    O72     1.223   .     D
C71    O73     1.398   .     S
O73    H74     1.014   .     S
C75    O76     1.222   .     D
C75    O77     1.399   .     S
O77    H78     1.014   .     S
C79    C90     1.413   .     S
C79    O125    1.282   .     A
C79    O127    1.283   .     A
C80    O128    1.283   .     A
C80    C89     1.414   .     S
C80    O126    1.282   .     A
C81    C143    1.485   .     S
C81    C83     1.400   .     A
C81    C110    1.431   .     A
C82    C84     1.399   .     A
C82    C146    1.488   .     S
C82    C109    1.429   .     A
C83    H111    1.085   .     S
C83    C809    1.392   1_554 S
C84    H112    1.085   .     S
C84    C810    1.392   .     S
C85    C149    1.488   .     S
C85    C90     1.408   .     A
C85    C321    1.378   .     S
C86    C153    1.488   .     S
C86    C89     1.409   .     A
C86    C556    1.377   1_545 S
C87    H117    1.086   .     S
C87    C89     1.396   .     A
C87    C553    1.378   1_545 S
C88    H118    1.086   .     S
C88    C90     1.395   .     A
C88    C320    1.377   .     S
C91    H119    1.081   .     S
C91    N124    1.367   .     A
C91    C171    1.416   .     S
C92    H120    1.081   .     S
C92    N123    1.367   .     A
C93    N123    1.367   .     A
C93    H121    1.081   .     S
C94    H122    1.081   .     S
C94    N124    1.367   .     A
C94    C170    1.417   .     S
C95    O129    1.292   .     A
C95    O131    1.303   .     A
C95    C97     1.471   .     S
C96    O130    1.294   .     A
C96    C98     1.472   .     S
C96    O132    1.300   .     A
C97    C101    1.418   .     A
C97    C103    1.396   .     A
C98    C102    1.420   .     A
C98    C104    1.394   .     A
C99    C101    1.399   .     A
C99    C107    1.400   .     A
C99    H115    1.085   .     S
C100   H116    1.085   .     S
C100   C102    1.402   .     A
C100   C108    1.400   .     A
C101   C139    1.480   .     S
C102   C135    1.479   .     S
C103   C105    1.398   .     A
C103   H114    1.081   .     S
C104   C106    1.399   .     A
C104   H113    1.081   .     S
C105   C107    1.411   .     A
C105   C109    1.416   .     A
C106   C110    1.419   .     A
C106   C108    1.410   .     A
C107   C785    1.392   .     S
C108   C786    1.392   1_554 S
C109   C812    1.419   .     S
C110   C811    1.419   1_554 S
N123   Zn133   2.014   .     S
N124   Zn134   2.014   .     S
O125   Zn133   1.991   .     S
O126   Zn134   1.991   .     S
O127   Zn134   1.988   .     S
O128   Zn133   1.988   .     S
O129   Zn133   1.929   .     S
O130   Zn134   1.929   .     S
O131   Zn134   1.869   .     S
O132   Zn133   1.869   .     S
C135   O137    1.393   .     S
C135   O136    1.223   .     D
O137   H138    1.013   .     S
C139   O141    1.398   .     S
C139   O140    1.220   .     D
O141   H142    1.014   .     S
C143   O145    1.221   .     D
C143   H144    1.085   .     S
C146   H147    1.085   .     S
C146   O148    1.221   .     D
C149   O150    1.223   .     D
C149   O151    1.398   .     S
O151   H152    1.014   .     S
C153   O154    1.222   .     D
C153   O155    1.399   .     S
O155   H156    1.014   .     S
C157   C168    1.413   .     S
C157   O203    1.282   .     A
C157   O205    1.283   .     A
C158   O206    1.283   .     A
C158   C167    1.414   .     S
C158   O204    1.282   .     A
C159   C221    1.485   .     S
C159   C161    1.400   .     A
C159   C188    1.431   .     A
C160   C162    1.399   .     A
C160   C224    1.488   .     S
C160   C187    1.429   .     A
C161   H189    1.085   .     S
C161   C887    1.392   1_554 S
C162   H190    1.085   .     S
C162   C888    1.392   .     S
C163   C227    1.488   .     S
C163   C168    1.408   .     A
C163   C399    1.378   .     S
C164   C231    1.488   .     S
C164   C167    1.409   .     A
C164   C634    1.377   1_545 S
C165   H195    1.086   .     S
C165   C167    1.396   .     A
C165   C631    1.378   1_545 S
C166   H196    1.086   .     S
C166   C168    1.395   .     A
C166   C398    1.377   .     S
C169   H197    1.081   .     S
C169   N202    1.367   .     A
C169   C15     1.416   1_655 S
C170   H198    1.081   .     S
C170   N201    1.367   .     A
C171   N201    1.367   .     A
C171   H199    1.081   .     S
C172   H200    1.081   .     S
C172   N202    1.367   .     A
C172   C14     1.417   1_655 S
C173   O207    1.292   .     A
C173   O209    1.303   .     A
C173   C175    1.471   .     S
C174   O208    1.294   .     A
C174   C176    1.472   .     S
C174   O210    1.300   .     A
C175   C179    1.418   .     A
C175   C181    1.396   .     A
C176   C180    1.420   .     A
C176   C182    1.394   .     A
C177   C179    1.399   .     A
C177   C185    1.400   .     A
C177   H193    1.085   .     S
C178   H194    1.085   .     S
C178   C180    1.402   .     A
C178   C186    1.400   .     A
C179   C217    1.480   .     S
C180   C213    1.479   .     S
C181   C183    1.398   .     A
C181   H192    1.081   .     S
C182   C184    1.399   .     A
C182   H191    1.081   .     S
C183   C185    1.411   .     A
C183   C187    1.416   .     A
C184   C188    1.419   .     A
C184   C186    1.410   .     A
C185   C863    1.392   .     S
C186   C864    1.392   1_554 S
C187   C890    1.419   .     S
C188   C889    1.419   1_554 S
N201   Zn211   2.014   .     S
N202   Zn212   2.014   .     S
O203   Zn211   1.991   .     S
O204   Zn212   1.991   .     S
O205   Zn212   1.988   .     S
O206   Zn211   1.988   .     S
O207   Zn211   1.929   .     S
O208   Zn212   1.929   .     S
O209   Zn212   1.869   .     S
O210   Zn211   1.869   .     S
C213   O215    1.393   .     S
C213   O214    1.223   .     D
O215   H216    1.013   .     S
C217   O219    1.398   .     S
C217   O218    1.220   .     D
O219   H220    1.014   .     S
C221   O223    1.221   .     D
C221   H222    1.085   .     S
C224   H225    1.085   .     S
C224   O226    1.221   .     D
C227   O228    1.223   .     D
C227   O229    1.398   .     S
O229   H230    1.014   .     S
C231   O232    1.222   .     D
C231   O233    1.399   .     S
O233   H234    1.014   .     S
C235   C246    1.413   .     S
C235   O281    1.282   .     A
C235   O283    1.283   .     A
C236   O284    1.283   .     A
C236   C245    1.414   .     S
C236   O282    1.282   .     A
C237   C299    1.485   .     S
C237   C239    1.400   .     A
C237   C266    1.431   .     A
C238   C240    1.399   .     A
C238   C302    1.488   .     S
C238   C265    1.429   .     A
C239   H267    1.085   .     S
C239   C965    1.392   1_554 S
C240   H268    1.085   .     S
C240   C966    1.392   .     S
C241   C305    1.488   .     S
C241   C246    1.408   .     A
C241   C477    1.378   .     S
C242   C309    1.488   .     S
C242   C245    1.409   .     A
C243   H273    1.086   .     S
C243   C245    1.396   .     A
C244   H274    1.086   .     S
C244   C246    1.395   .     A
C244   C476    1.377   .     S
C247   H275    1.081   .     S
C247   N280    1.367   .     A
C247   C327    1.416   .     S
C248   H276    1.081   .     S
C248   N279    1.367   .     A
C248   C406    1.417   1_455 S
C249   N279    1.367   .     A
C249   H277    1.081   .     S
C249   C403    1.416   1_455 S
C250   H278    1.081   .     S
C250   N280    1.367   .     A
C250   C326    1.417   .     S
C251   O285    1.292   .     A
C251   O287    1.303   .     A
C251   C253    1.471   .     S
C252   O286    1.294   .     A
C252   C254    1.472   .     S
C252   O288    1.300   .     A
C253   C257    1.418   .     A
C253   C259    1.396   .     A
C254   C258    1.420   .     A
C254   C260    1.394   .     A
C255   C257    1.399   .     A
C255   C263    1.400   .     A
C255   H271    1.085   .     S
C256   H272    1.085   .     S
C256   C258    1.402   .     A
C256   C264    1.400   .     A
C257   C295    1.480   .     S
C258   C291    1.479   .     S
C259   C261    1.398   .     A
C259   H270    1.081   .     S
C260   C262    1.399   .     A
C260   H269    1.081   .     S
C261   C263    1.411   .     A
C261   C265    1.416   .     A
C262   C266    1.419   .     A
C262   C264    1.410   .     A
C263   C941    1.392   .     S
C264   C942    1.392   1_554 S
C265   C968    1.419   .     S
C266   C967    1.419   1_554 S
N279   Zn289   2.014   .     S
N280   Zn290   2.014   .     S
O281   Zn289   1.991   .     S
O282   Zn290   1.991   .     S
O283   Zn290   1.988   .     S
O284   Zn289   1.988   .     S
O285   Zn289   1.929   .     S
O286   Zn290   1.929   .     S
O287   Zn290   1.869   .     S
O288   Zn289   1.869   .     S
C291   O293    1.393   .     S
C291   O292    1.223   .     D
O293   H294    1.013   .     S
C295   O297    1.398   .     S
C295   O296    1.220   .     D
O297   H298    1.014   .     S
C299   O301    1.221   .     D
C299   H300    1.085   .     S
C302   H303    1.085   .     S
C302   O304    1.221   .     D
C305   O306    1.223   .     D
C305   O307    1.398   .     S
O307   H308    1.014   .     S
C309   O310    1.222   .     D
C309   O311    1.399   .     S
O311   H312    1.014   .     S
C313   C324    1.413   .     S
C313   O359    1.282   .     A
C313   O361    1.283   .     A
C314   O362    1.283   .     A
C314   C323    1.414   .     S
C314   O360    1.282   .     A
C315   C377    1.485   .     S
C315   C317    1.400   .     A
C315   C344    1.431   .     A
C316   C318    1.399   .     A
C316   C380    1.488   .     S
C316   C343    1.429   .     A
C317   H345    1.085   .     S
C317   C1043   1.392   1_554 S
C318   H346    1.085   .     S
C318   C1044   1.392   .     S
C319   C383    1.488   .     S
C319   C324    1.408   .     A
C319   C555    1.378   .     S
C320   C387    1.488   .     S
C320   C323    1.409   .     A
C321   H351    1.086   .     S
C321   C323    1.396   .     A
C322   H352    1.086   .     S
C322   C324    1.395   .     A
C322   C554    1.377   .     S
C325   H353    1.081   .     S
C325   N358    1.367   .     A
C325   C405    1.416   .     S
C326   H354    1.081   .     S
C326   N357    1.367   .     A
C327   N357    1.367   .     A
C327   H355    1.081   .     S
C328   H356    1.081   .     S
C328   N358    1.367   .     A
C328   C404    1.417   .     S
C329   O363    1.292   .     A
C329   O365    1.303   .     A
C329   C331    1.471   .     S
C330   O364    1.294   .     A
C330   C332    1.472   .     S
C330   O366    1.300   .     A
C331   C335    1.418   .     A
C331   C337    1.396   .     A
C332   C336    1.420   .     A
C332   C338    1.394   .     A
C333   C335    1.399   .     A
C333   C341    1.400   .     A
C333   H349    1.085   .     S
C334   H350    1.085   .     S
C334   C336    1.402   .     A
C334   C342    1.400   .     A
C335   C373    1.480   .     S
C336   C369    1.479   .     S
C337   C339    1.398   .     A
C337   H348    1.081   .     S
C338   C340    1.399   .     A
C338   H347    1.081   .     S
C339   C341    1.411   .     A
C339   C343    1.416   .     A
C340   C344    1.419   .     A
C340   C342    1.410   .     A
C341   C1019   1.392   .     S
C342   C1020   1.392   1_554 S
C343   C1046   1.419   .     S
C344   C1045   1.419   1_554 S
N357   Zn367   2.014   .     S
N358   Zn368   2.014   .     S
O359   Zn367   1.991   .     S
O360   Zn368   1.991   .     S
O361   Zn368   1.988   .     S
O362   Zn367   1.988   .     S
O363   Zn367   1.929   .     S
O364   Zn368   1.929   .     S
O365   Zn368   1.869   .     S
O366   Zn367   1.869   .     S
C369   O371    1.393   .     S
C369   O370    1.223   .     D
O371   H372    1.013   .     S
C373   O375    1.398   .     S
C373   O374    1.220   .     D
O375   H376    1.014   .     S
C377   O379    1.221   .     D
C377   H378    1.085   .     S
C380   H381    1.085   .     S
C380   O382    1.221   .     D
C383   O384    1.223   .     D
C383   O385    1.398   .     S
O385   H386    1.014   .     S
C387   O388    1.222   .     D
C387   O389    1.399   .     S
O389   H390    1.014   .     S
C391   C402    1.413   .     S
C391   O437    1.282   .     A
C391   O439    1.283   .     A
C392   O440    1.283   .     A
C392   C401    1.414   .     S
C392   O438    1.282   .     A
C393   C455    1.485   .     S
C393   C395    1.400   .     A
C393   C422    1.431   .     A
C394   C396    1.399   .     A
C394   C458    1.488   .     S
C394   C421    1.429   .     A
C395   H423    1.085   .     S
C395   C1121   1.392   1_554 S
C396   H424    1.085   .     S
C396   C1122   1.392   .     S
C397   C461    1.488   .     S
C397   C402    1.408   .     A
C397   C633    1.378   .     S
C398   C465    1.488   .     S
C398   C401    1.409   .     A
C399   H429    1.086   .     S
C399   C401    1.396   .     A
C400   H430    1.086   .     S
C400   C402    1.395   .     A
C400   C632    1.377   .     S
C403   H431    1.081   .     S
C403   N436    1.367   .     A
C403   C249    1.416   1_655 S
C404   H432    1.081   .     S
C404   N435    1.367   .     A
C405   N435    1.367   .     A
C405   H433    1.081   .     S
C406   H434    1.081   .     S
C406   N436    1.367   .     A
C406   C248    1.417   1_655 S
C407   O441    1.292   .     A
C407   O443    1.303   .     A
C407   C409    1.471   .     S
C408   O442    1.294   .     A
C408   C410    1.472   .     S
C408   O444    1.300   .     A
C409   C413    1.418   .     A
C409   C415    1.396   .     A
C410   C414    1.420   .     A
C410   C416    1.394   .     A
C411   C413    1.399   .     A
C411   C419    1.400   .     A
C411   H427    1.085   .     S
C412   H428    1.085   .     S
C412   C414    1.402   .     A
C412   C420    1.400   .     A
C413   C451    1.480   .     S
C414   C447    1.479   .     S
C415   C417    1.398   .     A
C415   H426    1.081   .     S
C416   C418    1.399   .     A
C416   H425    1.081   .     S
C417   C419    1.411   .     A
C417   C421    1.416   .     A
C418   C422    1.419   .     A
C418   C420    1.410   .     A
C419   C1097   1.392   .     S
C420   C1098   1.392   1_554 S
C421   C1124   1.419   .     S
C422   C1123   1.419   1_554 S
N435   Zn445   2.014   .     S
N436   Zn446   2.014   .     S
O437   Zn445   1.991   .     S
O438   Zn446   1.991   .     S
O439   Zn446   1.988   .     S
O440   Zn445   1.988   .     S
O441   Zn445   1.929   .     S
O442   Zn446   1.929   .     S
O443   Zn446   1.869   .     S
O444   Zn445   1.869   .     S
C447   O449    1.393   .     S
C447   O448    1.223   .     D
O449   H450    1.013   .     S
C451   O453    1.398   .     S
C451   O452    1.220   .     D
O453   H454    1.014   .     S
C455   O457    1.221   .     D
C455   H456    1.085   .     S
C458   H459    1.085   .     S
C458   O460    1.221   .     D
C461   O462    1.223   .     D
C461   O463    1.398   .     S
O463   H464    1.014   .     S
C465   O466    1.222   .     D
C465   O467    1.399   .     S
O467   H468    1.014   .     S
C469   C480    1.413   .     S
C469   O515    1.282   .     A
C469   O517    1.283   .     A
C470   O518    1.283   .     A
C470   C479    1.414   .     S
C470   O516    1.282   .     A
C471   C533    1.485   .     S
C471   C473    1.400   .     A
C471   C500    1.431   .     A
C472   C474    1.399   .     A
C472   C536    1.488   .     S
C472   C499    1.429   .     A
C473   H501    1.085   .     S
C473   C1199   1.392   1_554 S
C474   H502    1.085   .     S
C474   C1200   1.392   .     S
C475   C539    1.488   .     S
C475   C480    1.408   .     A
C475   C9      1.378   1_565 S
C476   C543    1.488   .     S
C476   C479    1.409   .     A
C477   H507    1.086   .     S
C477   C479    1.396   .     A
C478   H508    1.086   .     S
C478   C480    1.395   .     A
C478   C8      1.377   1_565 S
C481   H509    1.081   .     S
C481   N514    1.367   .     A
C481   C561    1.416   .     S
C482   H510    1.081   .     S
C482   N513    1.367   .     A
C482   C640    1.417   1_455 S
C483   N513    1.367   .     A
C483   H511    1.081   .     S
C483   C637    1.416   1_455 S
C484   H512    1.081   .     S
C484   N514    1.367   .     A
C484   C560    1.417   .     S
C485   O519    1.292   .     A
C485   O521    1.303   .     A
C485   C487    1.471   .     S
C486   O520    1.294   .     A
C486   C488    1.472   .     S
C486   O522    1.300   .     A
C487   C491    1.418   .     A
C487   C493    1.396   .     A
C488   C492    1.420   .     A
C488   C494    1.394   .     A
C489   C491    1.399   .     A
C489   C497    1.400   .     A
C489   H505    1.085   .     S
C490   H506    1.085   .     S
C490   C492    1.402   .     A
C490   C498    1.400   .     A
C491   C529    1.480   .     S
C492   C525    1.479   .     S
C493   C495    1.398   .     A
C493   H504    1.081   .     S
C494   C496    1.399   .     A
C494   H503    1.081   .     S
C495   C497    1.411   .     A
C495   C499    1.416   .     A
C496   C500    1.419   .     A
C496   C498    1.410   .     A
C497   C1175   1.392   .     S
C498   C1176   1.392   1_554 S
C499   C1202   1.419   .     S
C500   C1201   1.419   1_554 S
N513   Zn523   2.014   .     S
N514   Zn524   2.014   .     S
O515   Zn523   1.991   .     S
O516   Zn524   1.991   .     S
O517   Zn524   1.988   .     S
O518   Zn523   1.988   .     S
O519   Zn523   1.929   .     S
O520   Zn524   1.929   .     S
O521   Zn524   1.869   .     S
O522   Zn523   1.869   .     S
C525   O527    1.393   .     S
C525   O526    1.223   .     D
O527   H528    1.013   .     S
C529   O531    1.398   .     S
C529   O530    1.220   .     D
O531   H532    1.014   .     S
C533   O535    1.221   .     D
C533   H534    1.085   .     S
C536   H537    1.085   .     S
C536   O538    1.221   .     D
C539   O540    1.223   .     D
C539   O541    1.398   .     S
O541   H542    1.014   .     S
C543   O544    1.222   .     D
C543   O545    1.399   .     S
O545   H546    1.014   .     S
C547   C558    1.413   .     S
C547   O593    1.282   .     A
C547   O595    1.283   .     A
C548   O596    1.283   .     A
C548   C557    1.414   .     S
C548   O594    1.282   .     A
C549   C611    1.485   .     S
C549   C551    1.400   .     A
C549   C578    1.431   .     A
C550   C552    1.399   .     A
C550   C614    1.488   .     S
C550   C577    1.429   .     A
C551   H579    1.085   .     S
C551   C1277   1.392   1_554 S
C552   H580    1.085   .     S
C552   C1278   1.392   .     S
C553   C617    1.488   .     S
C553   C558    1.408   .     A
C553   C87     1.378   1_565 S
C554   C621    1.488   .     S
C554   C557    1.409   .     A
C555   H585    1.086   .     S
C555   C557    1.396   .     A
C556   H586    1.086   .     S
C556   C558    1.395   .     A
C556   C86     1.377   1_565 S
C559   H587    1.081   .     S
C559   N592    1.367   .     A
C559   C639    1.416   .     S
C560   H588    1.081   .     S
C560   N591    1.367   .     A
C561   N591    1.367   .     A
C561   H589    1.081   .     S
C562   H590    1.081   .     S
C562   N592    1.367   .     A
C562   C638    1.417   .     S
C563   O597    1.292   .     A
C563   O599    1.303   .     A
C563   C565    1.471   .     S
C564   O598    1.294   .     A
C564   C566    1.472   .     S
C564   O600    1.300   .     A
C565   C569    1.418   .     A
C565   C571    1.396   .     A
C566   C570    1.420   .     A
C566   C572    1.394   .     A
C567   C569    1.399   .     A
C567   C575    1.400   .     A
C567   H583    1.085   .     S
C568   H584    1.085   .     S
C568   C570    1.402   .     A
C568   C576    1.400   .     A
C569   C607    1.480   .     S
C570   C603    1.479   .     S
C571   C573    1.398   .     A
C571   H582    1.081   .     S
C572   C574    1.399   .     A
C572   H581    1.081   .     S
C573   C575    1.411   .     A
C573   C577    1.416   .     A
C574   C578    1.419   .     A
C574   C576    1.410   .     A
C575   C1253   1.392   .     S
C576   C1254   1.392   1_554 S
C577   C1280   1.419   .     S
C578   C1279   1.419   1_554 S
N591   Zn601   2.014   .     S
N592   Zn602   2.014   .     S
O593   Zn601   1.991   .     S
O594   Zn602   1.991   .     S
O595   Zn602   1.988   .     S
O596   Zn601   1.988   .     S
O597   Zn601   1.929   .     S
O598   Zn602   1.929   .     S
O599   Zn602   1.869   .     S
O600   Zn601   1.869   .     S
C603   O605    1.393   .     S
C603   O604    1.223   .     D
O605   H606    1.013   .     S
C607   O609    1.398   .     S
C607   O608    1.220   .     D
O609   H610    1.014   .     S
C611   O613    1.221   .     D
C611   H612    1.085   .     S
C614   H615    1.085   .     S
C614   O616    1.221   .     D
C617   O618    1.223   .     D
C617   O619    1.398   .     S
O619   H620    1.014   .     S
C621   O622    1.222   .     D
C621   O623    1.399   .     S
O623   H624    1.014   .     S
C625   C636    1.413   .     S
C625   O671    1.282   .     A
C625   O673    1.283   .     A
C626   O674    1.283   .     A
C626   C635    1.414   .     S
C626   O672    1.282   .     A
C627   C689    1.485   .     S
C627   C629    1.400   .     A
C627   C656    1.431   .     A
C628   C630    1.399   .     A
C628   C692    1.488   .     S
C628   C655    1.429   .     A
C629   H657    1.085   .     S
C629   C1355   1.392   1_554 S
C630   H658    1.085   .     S
C630   C1356   1.392   .     S
C631   C695    1.488   .     S
C631   C636    1.408   .     A
C631   C165    1.378   1_565 S
C632   C699    1.488   .     S
C632   C635    1.409   .     A
C633   H663    1.086   .     S
C633   C635    1.396   .     A
C634   H664    1.086   .     S
C634   C636    1.395   .     A
C634   C164    1.377   1_565 S
C637   H665    1.081   .     S
C637   N670    1.367   .     A
C637   C483    1.416   1_655 S
C638   H666    1.081   .     S
C638   N669    1.367   .     A
C639   N669    1.367   .     A
C639   H667    1.081   .     S
C640   H668    1.081   .     S
C640   N670    1.367   .     A
C640   C482    1.417   1_655 S
C641   O675    1.292   .     A
C641   O677    1.303   .     A
C641   C643    1.471   .     S
C642   O676    1.294   .     A
C642   C644    1.472   .     S
C642   O678    1.300   .     A
C643   C647    1.418   .     A
C643   C649    1.396   .     A
C644   C648    1.420   .     A
C644   C650    1.394   .     A
C645   C647    1.399   .     A
C645   C653    1.400   .     A
C645   H661    1.085   .     S
C646   H662    1.085   .     S
C646   C648    1.402   .     A
C646   C654    1.400   .     A
C647   C685    1.480   .     S
C648   C681    1.479   .     S
C649   C651    1.398   .     A
C649   H660    1.081   .     S
C650   C652    1.399   .     A
C650   H659    1.081   .     S
C651   C653    1.411   .     A
C651   C655    1.416   .     A
C652   C656    1.419   .     A
C652   C654    1.410   .     A
C653   C1331   1.392   .     S
C654   C1332   1.392   1_554 S
C655   C1358   1.419   .     S
C656   C1357   1.419   1_554 S
N669   Zn679   2.014   .     S
N670   Zn680   2.014   .     S
O671   Zn679   1.991   .     S
O672   Zn680   1.991   .     S
O673   Zn680   1.988   .     S
O674   Zn679   1.988   .     S
O675   Zn679   1.929   .     S
O676   Zn680   1.929   .     S
O677   Zn680   1.869   .     S
O678   Zn679   1.869   .     S
C681   O683    1.393   .     S
C681   O682    1.223   .     D
O683   H684    1.013   .     S
C685   O687    1.398   .     S
C685   O686    1.220   .     D
O687   H688    1.014   .     S
C689   O691    1.221   .     D
C689   H690    1.085   .     S
C692   H693    1.085   .     S
C692   O694    1.221   .     D
C695   O696    1.223   .     D
C695   O697    1.398   .     S
O697   H698    1.014   .     S
C699   O700    1.222   .     D
C699   O701    1.399   .     S
O701   H702    1.014   .     S
C703   C714    1.413   .     S
C703   O749    1.282   .     A
C703   O751    1.283   .     A
C704   O752    1.283   .     A
C704   C713    1.414   .     S
C704   O750    1.282   .     A
C705   C767    1.485   .     S
C705   C707    1.400   .     A
C705   C734    1.431   .     A
C706   C708    1.399   .     A
C706   C770    1.488   .     S
C706   C733    1.429   .     A
C707   H735    1.085   .     S
C708   H736    1.085   .     S
C708   C30     1.392   1_556 S
C709   C773    1.488   .     S
C709   C714    1.408   .     A
C709   C945    1.378   .     S
C710   C777    1.488   .     S
C710   C713    1.409   .     A
C710   C1180   1.377   1_545 S
C711   H741    1.086   .     S
C711   C713    1.396   .     A
C711   C1177   1.378   1_545 S
C712   H742    1.086   .     S
C712   C714    1.395   .     A
C712   C944    1.377   .     S
C715   H743    1.081   .     S
C715   N748    1.367   .     A
C715   C795    1.416   .     S
C716   H744    1.081   .     S
C716   N747    1.367   .     A
C716   C874    1.417   1_455 S
C717   N747    1.367   .     A
C717   H745    1.081   .     S
C717   C871    1.416   1_455 S
C718   H746    1.081   .     S
C718   N748    1.367   .     A
C718   C794    1.417   .     S
C719   O753    1.292   .     A
C719   O755    1.303   .     A
C719   C721    1.471   .     S
C720   O754    1.294   .     A
C720   C722    1.472   .     S
C720   O756    1.300   .     A
C721   C725    1.418   .     A
C721   C727    1.396   .     A
C722   C726    1.420   .     A
C722   C728    1.394   .     A
C723   C725    1.399   .     A
C723   C731    1.400   .     A
C723   H739    1.085   .     S
C724   H740    1.085   .     S
C724   C726    1.402   .     A
C724   C732    1.400   .     A
C725   C763    1.480   .     S
C726   C759    1.479   .     S
C727   C729    1.398   .     A
C727   H738    1.081   .     S
C728   C730    1.399   .     A
C728   H737    1.081   .     S
C729   C731    1.411   .     A
C729   C733    1.416   .     A
C730   C734    1.419   .     A
C730   C732    1.410   .     A
C731   C5      1.392   1_556 S
C733   C32     1.419   1_556 S
N747   Zn757   2.014   .     S
N748   Zn758   2.014   .     S
O749   Zn757   1.991   .     S
O750   Zn758   1.991   .     S
O751   Zn758   1.988   .     S
O752   Zn757   1.988   .     S
O753   Zn757   1.929   .     S
O754   Zn758   1.929   .     S
O755   Zn758   1.869   .     S
O756   Zn757   1.869   .     S
C759   O761    1.393   .     S
C759   O760    1.223   .     D
O761   H762    1.013   .     S
C763   O765    1.398   .     S
C763   O764    1.220   .     D
O765   H766    1.014   .     S
C767   O769    1.221   .     D
C767   H768    1.085   .     S
C770   H771    1.085   .     S
C770   O772    1.221   .     D
C773   O774    1.223   .     D
C773   O775    1.398   .     S
O775   H776    1.014   .     S
C777   O778    1.222   .     D
C777   O779    1.399   .     S
O779   H780    1.014   .     S
C781   C792    1.413   .     S
C781   O827    1.282   .     A
C781   O829    1.283   .     A
C782   O830    1.283   .     A
C782   C791    1.414   .     S
C782   O828    1.282   .     A
C783   C845    1.485   .     S
C783   C785    1.400   .     A
C783   C812    1.431   .     A
C784   C786    1.399   .     A
C784   C848    1.488   .     S
C784   C811    1.429   .     A
C785   H813    1.085   .     S
C786   H814    1.085   .     S
C786   C108    1.392   1_556 S
C787   C851    1.488   .     S
C787   C792    1.408   .     A
C787   C1023   1.378   .     S
C788   C855    1.488   .     S
C788   C791    1.409   .     A
C788   C1258   1.377   1_545 S
C789   H819    1.086   .     S
C789   C791    1.396   .     A
C789   C1255   1.378   1_545 S
C790   H820    1.086   .     S
C790   C792    1.395   .     A
C790   C1022   1.377   .     S
C793   H821    1.081   .     S
C793   N826    1.367   .     A
C793   C873    1.416   .     S
C794   H822    1.081   .     S
C794   N825    1.367   .     A
C795   N825    1.367   .     A
C795   H823    1.081   .     S
C796   H824    1.081   .     S
C796   N826    1.367   .     A
C796   C872    1.417   .     S
C797   O831    1.292   .     A
C797   O833    1.303   .     A
C797   C799    1.471   .     S
C798   O832    1.294   .     A
C798   C800    1.472   .     S
C798   O834    1.300   .     A
C799   C803    1.418   .     A
C799   C805    1.396   .     A
C800   C804    1.420   .     A
C800   C806    1.394   .     A
C801   C803    1.399   .     A
C801   C809    1.400   .     A
C801   H817    1.085   .     S
C802   H818    1.085   .     S
C802   C804    1.402   .     A
C802   C810    1.400   .     A
C803   C841    1.480   .     S
C804   C837    1.479   .     S
C805   C807    1.398   .     A
C805   H816    1.081   .     S
C806   C808    1.399   .     A
C806   H815    1.081   .     S
C807   C809    1.411   .     A
C807   C811    1.416   .     A
C808   C812    1.419   .     A
C808   C810    1.410   .     A
C809   C83     1.392   1_556 S
C811   C110    1.419   1_556 S
N825   Zn835   2.014   .     S
N826   Zn836   2.014   .     S
O827   Zn835   1.991   .     S
O828   Zn836   1.991   .     S
O829   Zn836   1.988   .     S
O830   Zn835   1.988   .     S
O831   Zn835   1.929   .     S
O832   Zn836   1.929   .     S
O833   Zn836   1.869   .     S
O834   Zn835   1.869   .     S
C837   O839    1.393   .     S
C837   O838    1.223   .     D
O839   H840    1.013   .     S
C841   O843    1.398   .     S
C841   O842    1.220   .     D
O843   H844    1.014   .     S
C845   O847    1.221   .     D
C845   H846    1.085   .     S
C848   H849    1.085   .     S
C848   O850    1.221   .     D
C851   O852    1.223   .     D
C851   O853    1.398   .     S
O853   H854    1.014   .     S
C855   O856    1.222   .     D
C855   O857    1.399   .     S
O857   H858    1.014   .     S
C859   C870    1.413   .     S
C859   O905    1.282   .     A
C859   O907    1.283   .     A
C860   O908    1.283   .     A
C860   C869    1.414   .     S
C860   O906    1.282   .     A
C861   C923    1.485   .     S
C861   C863    1.400   .     A
C861   C890    1.431   .     A
C862   C864    1.399   .     A
C862   C926    1.488   .     S
C862   C889    1.429   .     A
C863   H891    1.085   .     S
C864   H892    1.085   .     S
C864   C186    1.392   1_556 S
C865   C929    1.488   .     S
C865   C870    1.408   .     A
C865   C1101   1.378   .     S
C866   C933    1.488   .     S
C866   C869    1.409   .     A
C866   C1336   1.377   1_545 S
C867   H897    1.086   .     S
C867   C869    1.396   .     A
C867   C1333   1.378   1_545 S
C868   H898    1.086   .     S
C868   C870    1.395   .     A
C868   C1100   1.377   .     S
C871   H899    1.081   .     S
C871   N904    1.367   .     A
C871   C717    1.416   1_655 S
C872   H900    1.081   .     S
C872   N903    1.367   .     A
C873   N903    1.367   .     A
C873   H901    1.081   .     S
C874   H902    1.081   .     S
C874   N904    1.367   .     A
C874   C716    1.417   1_655 S
C875   O909    1.292   .     A
C875   O911    1.303   .     A
C875   C877    1.471   .     S
C876   O910    1.294   .     A
C876   C878    1.472   .     S
C876   O912    1.300   .     A
C877   C881    1.418   .     A
C877   C883    1.396   .     A
C878   C882    1.420   .     A
C878   C884    1.394   .     A
C879   C881    1.399   .     A
C879   C887    1.400   .     A
C879   H895    1.085   .     S
C880   H896    1.085   .     S
C880   C882    1.402   .     A
C880   C888    1.400   .     A
C881   C919    1.480   .     S
C882   C915    1.479   .     S
C883   C885    1.398   .     A
C883   H894    1.081   .     S
C884   C886    1.399   .     A
C884   H893    1.081   .     S
C885   C887    1.411   .     A
C885   C889    1.416   .     A
C886   C890    1.419   .     A
C886   C888    1.410   .     A
C887   C161    1.392   1_556 S
C889   C188    1.419   1_556 S
N903   Zn913   2.014   .     S
N904   Zn914   2.014   .     S
O905   Zn913   1.991   .     S
O906   Zn914   1.991   .     S
O907   Zn914   1.988   .     S
O908   Zn913   1.988   .     S
O909   Zn913   1.929   .     S
O910   Zn914   1.929   .     S
O911   Zn914   1.869   .     S
O912   Zn913   1.869   .     S
C915   O917    1.393   .     S
C915   O916    1.223   .     D
O917   H918    1.013   .     S
C919   O921    1.398   .     S
C919   O920    1.220   .     D
O921   H922    1.014   .     S
C923   O925    1.221   .     D
C923   H924    1.085   .     S
C926   H927    1.085   .     S
C926   O928    1.221   .     D
C929   O930    1.223   .     D
C929   O931    1.398   .     S
O931   H932    1.014   .     S
C933   O934    1.222   .     D
C933   O935    1.399   .     S
O935   H936    1.014   .     S
C937   C948    1.413   .     S
C937   O983    1.282   .     A
C937   O985    1.283   .     A
C938   O986    1.283   .     A
C938   C947    1.414   .     S
C938   O984    1.282   .     A
C939   C1001   1.485   .     S
C939   C941    1.400   .     A
C939   C968    1.431   .     A
C940   C942    1.399   .     A
C940   C1004   1.488   .     S
C940   C967    1.429   .     A
C941   H969    1.085   .     S
C942   H970    1.085   .     S
C942   C264    1.392   1_556 S
C943   C1007   1.488   .     S
C943   C948    1.408   .     A
C943   C1179   1.378   .     S
C944   C1011   1.488   .     S
C944   C947    1.409   .     A
C945   H975    1.086   .     S
C945   C947    1.396   .     A
C946   H976    1.086   .     S
C946   C948    1.395   .     A
C946   C1178   1.377   .     S
C949   H977    1.081   .     S
C949   N982    1.367   .     A
C949   C1029   1.416   .     S
C950   H978    1.081   .     S
C950   N981    1.367   .     A
C950   C1108   1.417   1_455 S
C951   N981    1.367   .     A
C951   H979    1.081   .     S
C951   C1105   1.416   1_455 S
C952   H980    1.081   .     S
C952   N982    1.367   .     A
C952   C1028   1.417   .     S
C953   O987    1.292   .     A
C953   O989    1.303   .     A
C953   C955    1.471   .     S
C954   O988    1.294   .     A
C954   C956    1.472   .     S
C954   O990    1.300   .     A
C955   C959    1.418   .     A
C955   C961    1.396   .     A
C956   C960    1.420   .     A
C956   C962    1.394   .     A
C957   C959    1.399   .     A
C957   C965    1.400   .     A
C957   H973    1.085   .     S
C958   H974    1.085   .     S
C958   C960    1.402   .     A
C958   C966    1.400   .     A
C959   C997    1.480   .     S
C960   C993    1.479   .     S
C961   C963    1.398   .     A
C961   H972    1.081   .     S
C962   C964    1.399   .     A
C962   H971    1.081   .     S
C963   C965    1.411   .     A
C963   C967    1.416   .     A
C964   C968    1.419   .     A
C964   C966    1.410   .     A
C965   C239    1.392   1_556 S
C967   C266    1.419   1_556 S
N981   Zn991   2.014   .     S
N982   Zn992   2.014   .     S
O983   Zn991   1.991   .     S
O984   Zn992   1.991   .     S
O985   Zn992   1.988   .     S
O986   Zn991   1.988   .     S
O987   Zn991   1.929   .     S
O988   Zn992   1.929   .     S
O989   Zn992   1.869   .     S
O990   Zn991   1.869   .     S
C993   O995    1.393   .     S
C993   O994    1.223   .     D
O995   H996    1.013   .     S
C997   O999    1.398   .     S
C997   O998    1.220   .     D
O999   H1000   1.014   .     S
C1001  O1003   1.221   .     D
C1001  H1002   1.085   .     S
C1004  H1005   1.085   .     S
C1004  O1006   1.221   .     D
C1007  O1008   1.223   .     D
C1007  O1009   1.398   .     S
O1009  H1010   1.014   .     S
C1011  O1012   1.222   .     D
C1011  O1013   1.399   .     S
O1013  H1014   1.014   .     S
C1015  C1026   1.413   .     S
C1015  O1061   1.282   .     A
C1015  O1063   1.283   .     A
C1016  O1064   1.283   .     A
C1016  C1025   1.414   .     S
C1016  O1062   1.282   .     A
C1017  C1079   1.485   .     S
C1017  C1019   1.400   .     A
C1017  C1046   1.431   .     A
C1018  C1020   1.399   .     A
C1018  C1082   1.488   .     S
C1018  C1045   1.429   .     A
C1019  H1047   1.085   .     S
C1020  H1048   1.085   .     S
C1020  C342    1.392   1_556 S
C1021  C1085   1.488   .     S
C1021  C1026   1.408   .     A
C1021  C1257   1.378   .     S
C1022  C1089   1.488   .     S
C1022  C1025   1.409   .     A
C1023  H1053   1.086   .     S
C1023  C1025   1.396   .     A
C1024  H1054   1.086   .     S
C1024  C1026   1.395   .     A
C1024  C1256   1.377   .     S
C1027  H1055   1.081   .     S
C1027  N1060   1.367   .     A
C1027  C1107   1.416   .     S
C1028  H1056   1.081   .     S
C1028  N1059   1.367   .     A
C1029  N1059   1.367   .     A
C1029  H1057   1.081   .     S
C1030  H1058   1.081   .     S
C1030  N1060   1.367   .     A
C1030  C1106   1.417   .     S
C1031  O1065   1.292   .     A
C1031  O1067   1.303   .     A
C1031  C1033   1.471   .     S
C1032  O1066   1.294   .     A
C1032  C1034   1.472   .     S
C1032  O1068   1.300   .     A
C1033  C1037   1.418   .     A
C1033  C1039   1.396   .     A
C1034  C1038   1.420   .     A
C1034  C1040   1.394   .     A
C1035  C1037   1.399   .     A
C1035  C1043   1.400   .     A
C1035  H1051   1.085   .     S
C1036  H1052   1.085   .     S
C1036  C1038   1.402   .     A
C1036  C1044   1.400   .     A
C1037  C1075   1.480   .     S
C1038  C1071   1.479   .     S
C1039  C1041   1.398   .     A
C1039  H1050   1.081   .     S
C1040  C1042   1.399   .     A
C1040  H1049   1.081   .     S
C1041  C1043   1.411   .     A
C1041  C1045   1.416   .     A
C1042  C1046   1.419   .     A
C1042  C1044   1.410   .     A
C1043  C317    1.392   1_556 S
C1045  C344    1.419   1_556 S
N1059  Zn1069  2.014   .     S
N1060  Zn1070  2.014   .     S
O1061  Zn1069  1.991   .     S
O1062  Zn1070  1.991   .     S
O1063  Zn1070  1.988   .     S
O1064  Zn1069  1.988   .     S
O1065  Zn1069  1.929   .     S
O1066  Zn1070  1.929   .     S
O1067  Zn1070  1.869   .     S
O1068  Zn1069  1.869   .     S
C1071  O1073   1.393   .     S
C1071  O1072   1.223   .     D
O1073  H1074   1.013   .     S
C1075  O1077   1.398   .     S
C1075  O1076   1.220   .     D
O1077  H1078   1.014   .     S
C1079  O1081   1.221   .     D
C1079  H1080   1.085   .     S
C1082  H1083   1.085   .     S
C1082  O1084   1.221   .     D
C1085  O1086   1.223   .     D
C1085  O1087   1.398   .     S
O1087  H1088   1.014   .     S
C1089  O1090   1.222   .     D
C1089  O1091   1.399   .     S
O1091  H1092   1.014   .     S
C1093  C1104   1.413   .     S
C1093  O1139   1.282   .     A
C1093  O1141   1.283   .     A
C1094  O1142   1.283   .     A
C1094  C1103   1.414   .     S
C1094  O1140   1.282   .     A
C1095  C1157   1.485   .     S
C1095  C1097   1.400   .     A
C1095  C1124   1.431   .     A
C1096  C1098   1.399   .     A
C1096  C1160   1.488   .     S
C1096  C1123   1.429   .     A
C1097  H1125   1.085   .     S
C1098  H1126   1.085   .     S
C1098  C420    1.392   1_556 S
C1099  C1163   1.488   .     S
C1099  C1104   1.408   .     A
C1099  C1335   1.378   .     S
C1100  C1167   1.488   .     S
C1100  C1103   1.409   .     A
C1101  H1131   1.086   .     S
C1101  C1103   1.396   .     A
C1102  H1132   1.086   .     S
C1102  C1104   1.395   .     A
C1102  C1334   1.377   .     S
C1105  H1133   1.081   .     S
C1105  N1138   1.367   .     A
C1105  C951    1.416   1_655 S
C1106  H1134   1.081   .     S
C1106  N1137   1.367   .     A
C1107  N1137   1.367   .     A
C1107  H1135   1.081   .     S
C1108  H1136   1.081   .     S
C1108  N1138   1.367   .     A
C1108  C950    1.417   1_655 S
C1109  O1143   1.292   .     A
C1109  O1145   1.303   .     A
C1109  C1111   1.471   .     S
C1110  O1144   1.294   .     A
C1110  C1112   1.472   .     S
C1110  O1146   1.300   .     A
C1111  C1115   1.418   .     A
C1111  C1117   1.396   .     A
C1112  C1116   1.420   .     A
C1112  C1118   1.394   .     A
C1113  C1115   1.399   .     A
C1113  C1121   1.400   .     A
C1113  H1129   1.085   .     S
C1114  H1130   1.085   .     S
C1114  C1116   1.402   .     A
C1114  C1122   1.400   .     A
C1115  C1153   1.480   .     S
C1116  C1149   1.479   .     S
C1117  C1119   1.398   .     A
C1117  H1128   1.081   .     S
C1118  C1120   1.399   .     A
C1118  H1127   1.081   .     S
C1119  C1121   1.411   .     A
C1119  C1123   1.416   .     A
C1120  C1124   1.419   .     A
C1120  C1122   1.410   .     A
C1121  C395    1.392   1_556 S
C1123  C422    1.419   1_556 S
N1137  Zn1147  2.014   .     S
N1138  Zn1148  2.014   .     S
O1139  Zn1147  1.991   .     S
O1140  Zn1148  1.991   .     S
O1141  Zn1148  1.988   .     S
O1142  Zn1147  1.988   .     S
O1143  Zn1147  1.929   .     S
O1144  Zn1148  1.929   .     S
O1145  Zn1148  1.869   .     S
O1146  Zn1147  1.869   .     S
C1149  O1151   1.393   .     S
C1149  O1150   1.223   .     D
O1151  H1152   1.013   .     S
C1153  O1155   1.398   .     S
C1153  O1154   1.220   .     D
O1155  H1156   1.014   .     S
C1157  O1159   1.221   .     D
C1157  H1158   1.085   .     S
C1160  H1161   1.085   .     S
C1160  O1162   1.221   .     D
C1163  O1164   1.223   .     D
C1163  O1165   1.398   .     S
O1165  H1166   1.014   .     S
C1167  O1168   1.222   .     D
C1167  O1169   1.399   .     S
O1169  H1170   1.014   .     S
C1171  C1182   1.413   .     S
C1171  O1217   1.282   .     A
C1171  O1219   1.283   .     A
C1172  O1220   1.283   .     A
C1172  C1181   1.414   .     S
C1172  O1218   1.282   .     A
C1173  C1235   1.485   .     S
C1173  C1175   1.400   .     A
C1173  C1202   1.431   .     A
C1174  C1176   1.399   .     A
C1174  C1238   1.488   .     S
C1174  C1201   1.429   .     A
C1175  H1203   1.085   .     S
C1176  H1204   1.085   .     S
C1176  C498    1.392   1_556 S
C1177  C1241   1.488   .     S
C1177  C1182   1.408   .     A
C1177  C711    1.378   1_565 S
C1178  C1245   1.488   .     S
C1178  C1181   1.409   .     A
C1179  H1209   1.086   .     S
C1179  C1181   1.396   .     A
C1180  H1210   1.086   .     S
C1180  C1182   1.395   .     A
C1180  C710    1.377   1_565 S
C1183  H1211   1.081   .     S
C1183  N1216   1.367   .     A
C1183  C1263   1.416   .     S
C1184  H1212   1.081   .     S
C1184  N1215   1.367   .     A
C1184  C1342   1.417   1_455 S
C1185  N1215   1.367   .     A
C1185  H1213   1.081   .     S
C1185  C1339   1.416   1_455 S
C1186  H1214   1.081   .     S
C1186  N1216   1.367   .     A
C1186  C1262   1.417   .     S
C1187  O1221   1.292   .     A
C1187  O1223   1.303   .     A
C1187  C1189   1.471   .     S
C1188  O1222   1.294   .     A
C1188  C1190   1.472   .     S
C1188  O1224   1.300   .     A
C1189  C1193   1.418   .     A
C1189  C1195   1.396   .     A
C1190  C1194   1.420   .     A
C1190  C1196   1.394   .     A
C1191  C1193   1.399   .     A
C1191  C1199   1.400   .     A
C1191  H1207   1.085   .     S
C1192  H1208   1.085   .     S
C1192  C1194   1.402   .     A
C1192  C1200   1.400   .     A
C1193  C1231   1.480   .     S
C1194  C1227   1.479   .     S
C1195  C1197   1.398   .     A
C1195  H1206   1.081   .     S
C1196  C1198   1.399   .     A
C1196  H1205   1.081   .     S
C1197  C1199   1.411   .     A
C1197  C1201   1.416   .     A
C1198  C1202   1.419   .     A
C1198  C1200   1.410   .     A
C1199  C473    1.392   1_556 S
C1201  C500    1.419   1_556 S
N1215  Zn1225  2.014   .     S
N1216  Zn1226  2.014   .     S
O1217  Zn1225  1.991   .     S
O1218  Zn1226  1.991   .     S
O1219  Zn1226  1.988   .     S
O1220  Zn1225  1.988   .     S
O1221  Zn1225  1.929   .     S
O1222  Zn1226  1.929   .     S
O1223  Zn1226  1.869   .     S
O1224  Zn1225  1.869   .     S
C1227  O1229   1.393   .     S
C1227  O1228   1.223   .     D
O1229  H1230   1.013   .     S
C1231  O1233   1.398   .     S
C1231  O1232   1.220   .     D
O1233  H1234   1.014   .     S
C1235  O1237   1.221   .     D
C1235  H1236   1.085   .     S
C1238  H1239   1.085   .     S
C1238  O1240   1.221   .     D
C1241  O1242   1.223   .     D
C1241  O1243   1.398   .     S
O1243  H1244   1.014   .     S
C1245  O1246   1.222   .     D
C1245  O1247   1.399   .     S
O1247  H1248   1.014   .     S
C1249  C1260   1.413   .     S
C1249  O1295   1.282   .     A
C1249  O1297   1.283   .     A
C1250  O1298   1.283   .     A
C1250  C1259   1.414   .     S
C1250  O1296   1.282   .     A
C1251  C1313   1.485   .     S
C1251  C1253   1.400   .     A
C1251  C1280   1.431   .     A
C1252  C1254   1.399   .     A
C1252  C1316   1.488   .     S
C1252  C1279   1.429   .     A
C1253  H1281   1.085   .     S
C1254  H1282   1.085   .     S
C1254  C576    1.392   1_556 S
C1255  C1319   1.488   .     S
C1255  C1260   1.408   .     A
C1255  C789    1.378   1_565 S
C1256  C1323   1.488   .     S
C1256  C1259   1.409   .     A
C1257  H1287   1.086   .     S
C1257  C1259   1.396   .     A
C1258  H1288   1.086   .     S
C1258  C1260   1.395   .     A
C1258  C788    1.377   1_565 S
C1261  H1289   1.081   .     S
C1261  N1294   1.367   .     A
C1261  C1341   1.416   .     S
C1262  H1290   1.081   .     S
C1262  N1293   1.367   .     A
C1263  N1293   1.367   .     A
C1263  H1291   1.081   .     S
C1264  H1292   1.081   .     S
C1264  N1294   1.367   .     A
C1264  C1340   1.417   .     S
C1265  O1299   1.292   .     A
C1265  O1301   1.303   .     A
C1265  C1267   1.471   .     S
C1266  O1300   1.294   .     A
C1266  C1268   1.472   .     S
C1266  O1302   1.300   .     A
C1267  C1271   1.418   .     A
C1267  C1273   1.396   .     A
C1268  C1272   1.420   .     A
C1268  C1274   1.394   .     A
C1269  C1271   1.399   .     A
C1269  C1277   1.400   .     A
C1269  H1285   1.085   .     S
C1270  H1286   1.085   .     S
C1270  C1272   1.402   .     A
C1270  C1278   1.400   .     A
C1271  C1309   1.480   .     S
C1272  C1305   1.479   .     S
C1273  C1275   1.398   .     A
C1273  H1284   1.081   .     S
C1274  C1276   1.399   .     A
C1274  H1283   1.081   .     S
C1275  C1277   1.411   .     A
C1275  C1279   1.416   .     A
C1276  C1280   1.419   .     A
C1276  C1278   1.410   .     A
C1277  C551    1.392   1_556 S
C1279  C578    1.419   1_556 S
N1293  Zn1303  2.014   .     S
N1294  Zn1304  2.014   .     S
O1295  Zn1303  1.991   .     S
O1296  Zn1304  1.991   .     S
O1297  Zn1304  1.988   .     S
O1298  Zn1303  1.988   .     S
O1299  Zn1303  1.929   .     S
O1300  Zn1304  1.929   .     S
O1301  Zn1304  1.869   .     S
O1302  Zn1303  1.869   .     S
C1305  O1307   1.393   .     S
C1305  O1306   1.223   .     D
O1307  H1308   1.013   .     S
C1309  O1311   1.398   .     S
C1309  O1310   1.220   .     D
O1311  H1312   1.014   .     S
C1313  O1315   1.221   .     D
C1313  H1314   1.085   .     S
C1316  H1317   1.085   .     S
C1316  O1318   1.221   .     D
C1319  O1320   1.223   .     D
C1319  O1321   1.398   .     S
O1321  H1322   1.014   .     S
C1323  O1324   1.222   .     D
C1323  O1325   1.399   .     S
O1325  H1326   1.014   .     S
C1327  C1338   1.413   .     S
C1327  O1373   1.282   .     A
C1327  O1375   1.283   .     A
C1328  O1376   1.283   .     A
C1328  C1337   1.414   .     S
C1328  O1374   1.282   .     A
C1329  C1391   1.485   .     S
C1329  C1331   1.400   .     A
C1329  C1358   1.431   .     A
C1330  C1332   1.399   .     A
C1330  C1394   1.488   .     S
C1330  C1357   1.429   .     A
C1331  H1359   1.085   .     S
C1332  H1360   1.085   .     S
C1332  C654    1.392   1_556 S
C1333  C1397   1.488   .     S
C1333  C1338   1.408   .     A
C1333  C867    1.378   1_565 S
C1334  C1401   1.488   .     S
C1334  C1337   1.409   .     A
C1335  H1365   1.086   .     S
C1335  C1337   1.396   .     A
C1336  H1366   1.086   .     S
C1336  C1338   1.395   .     A
C1336  C866    1.377   1_565 S
C1339  H1367   1.081   .     S
C1339  N1372   1.367   .     A
C1339  C1185   1.416   1_655 S
C1340  H1368   1.081   .     S
C1340  N1371   1.367   .     A
C1341  N1371   1.367   .     A
C1341  H1369   1.081   .     S
C1342  H1370   1.081   .     S
C1342  N1372   1.367   .     A
C1342  C1184   1.417   1_655 S
C1343  O1377   1.292   .     A
C1343  O1379   1.303   .     A
C1343  C1345   1.471   .     S
C1344  O1378   1.294   .     A
C1344  C1346   1.472   .     S
C1344  O1380   1.300   .     A
C1345  C1349   1.418   .     A
C1345  C1351   1.396   .     A
C1346  C1350   1.420   .     A
C1346  C1352   1.394   .     A
C1347  C1349   1.399   .     A
C1347  C1355   1.400   .     A
C1347  H1363   1.085   .     S
C1348  H1364   1.085   .     S
C1348  C1350   1.402   .     A
C1348  C1356   1.400   .     A
C1349  C1387   1.480   .     S
C1350  C1383   1.479   .     S
C1351  C1353   1.398   .     A
C1351  H1362   1.081   .     S
C1352  C1354   1.399   .     A
C1352  H1361   1.081   .     S
C1353  C1355   1.411   .     A
C1353  C1357   1.416   .     A
C1354  C1358   1.419   .     A
C1354  C1356   1.410   .     A
C1355  C629    1.392   1_556 S
C1357  C656    1.419   1_556 S
N1371  Zn1381  2.014   .     S
N1372  Zn1382  2.014   .     S
O1373  Zn1381  1.991   .     S
O1374  Zn1382  1.991   .     S
O1375  Zn1382  1.988   .     S
O1376  Zn1381  1.988   .     S
O1377  Zn1381  1.929   .     S
O1378  Zn1382  1.929   .     S
O1379  Zn1382  1.869   .     S
O1380  Zn1381  1.869   .     S
C1383  O1385   1.393   .     S
C1383  O1384   1.223   .     D
O1385  H1386   1.013   .     S
C1387  O1389   1.398   .     S
C1387  O1388   1.220   .     D
O1389  H1390   1.014   .     S
C1391  O1393   1.221   .     D
C1391  H1392   1.085   .     S
C1394  H1395   1.085   .     S
C1394  O1396   1.221   .     D
C1397  O1398   1.223   .     D
C1397  O1399   1.398   .     S
O1399  H1400   1.014   .     S
C1401  O1402   1.222   .     D
C1401  O1403   1.399   .     S
O1403  H1404   1.014   .     S
