data_str_m3_o2_o10_pcu_sym.86
_audit_creation_date              2020-01-03
_audit_creation_method            'Materials Studio'
_symmetry_space_group_name_H-M    'P1'
_symmetry_Int_Tables_number       1
_symmetry_cell_setting            triclinic
loop_
_symmetry_equiv_pos_as_xyz
  x,y,z
_cell_length_a                    25.7669
_cell_length_b                    30.0223
_cell_length_c                    28.2847
_cell_angle_alpha                 90.0113
_cell_angle_beta                  98.6884
_cell_angle_gamma                 90.0977
loop_
_atom_site_label
_atom_site_type_symbol
_atom_site_fract_x
_atom_site_fract_y
_atom_site_fract_z
_atom_site_U_iso_or_equiv
_atom_site_adp_type
_atom_site_occupancy
C1     C     0.16662   0.16386   0.25000   0.00000  Uiso   1.00
C2     C     0.13626   0.21776   0.44305   0.00000  Uiso   1.00
C3     C     0.16755   0.24924   0.02669   0.00000  Uiso   1.00
C4     C     0.16631   0.24899   0.47330   0.00000  Uiso   1.00
C5     C     0.06697   0.24995   0.23751   0.00000  Uiso   1.00
C6     C     0.26636   0.24996   0.26249   0.00000  Uiso   1.00
C7     C     0.01196   0.24992   0.23074   0.00000  Uiso   1.00
C8     C     0.32138   0.24984   0.26924   0.00000  Uiso   1.00
C9     C     0.14752   0.04711   0.28710   0.00000  Uiso   1.00
C10    C     0.14754   0.45288   0.20777   0.00000  Uiso   1.00
C11    C     0.14807   0.09309   0.28728   0.00000  Uiso   1.00
C12    C     0.16663   0.33614   0.25000   0.00000  Uiso   1.00
C13    C     0.14812   0.40690   0.20769   0.00000  Uiso   1.00
C14    C     0.16637   0.11599   0.24998   0.00000  Uiso   1.00
C15    C     0.16638   0.38402   0.25000   0.00000  Uiso   1.00
C16    C     0.18436   0.09297   0.21264   0.00000  Uiso   1.00
C17    C     0.18430   0.40707   0.29233   0.00000  Uiso   1.00
C18    C     0.18439   0.04699   0.21277   0.00000  Uiso   1.00
C19    C     0.18430   0.45305   0.29225   0.00000  Uiso   1.00
C20    C     0.16584   0.02406   0.24993   0.00000  Uiso   1.00
C21    C     0.16582   0.47596   0.25000   0.00000  Uiso   1.00
C22    C     0.12430   0.26575   0.04614   0.00000  Uiso   1.00
C23    C     0.19598   0.28046   0.45200   0.00000  Uiso   1.00
C24    C     0.12464   0.26590   0.09591   0.00000  Uiso   1.00
C25    C     0.19581   0.28032   0.40226   0.00000  Uiso   1.00
C26    C     0.20923   0.23378   0.10846   0.00000  Uiso   1.00
C27    C     0.13710   0.21930   0.39323   0.00000  Uiso   1.00
C28    C     0.21102   0.23311   0.05878   0.00000  Uiso   1.00
H29    H     0.32464   0.25004   0.19423   0.00000  Uiso   1.00
H30    H     0.19921   0.47071   0.32491   0.00000  Uiso   1.00
H31    H     0.09039   0.27855   0.02285   0.00000  Uiso   1.00
H32    H     0.21932   0.30502   0.47384   0.00000  Uiso   1.00
H33    H     0.09109   0.27881   0.11027   0.00000  Uiso   1.00
H34    H     0.21905   0.30457   0.38639   0.00000  Uiso   1.00
H35    H     0.24203   0.22118   0.13313   0.00000  Uiso   1.00
H36    H     0.11415   0.19578   0.36973   0.00000  Uiso   1.00
H37    H     0.26232   0.19197   0.46379   0.00000  Uiso   1.00
H38    H     0.10630   0.13622   0.03030   0.00000  Uiso   1.00
H39    H     0.00871   0.24972   0.30576   0.00000  Uiso   1.00
H40    H     0.13244   0.02956   0.31562   0.00000  Uiso   1.00
H41    H     0.13249   0.47041   0.17510   0.00000  Uiso   1.00
H42    H     0.13362   0.11067   0.31611   0.00000  Uiso   1.00
H43    H     0.13369   0.38931   0.17486   0.00000  Uiso   1.00
H44    H     0.19902   0.11045   0.18384   0.00000  Uiso   1.00
H45    H     0.19892   0.38960   0.32516   0.00000  Uiso   1.00
H46    H     0.19934   0.02935   0.18426   0.00000  Uiso   1.00
N47    N     0.16667   0.24999   0.12623   0.00000  Uiso   1.00
N48    N     0.16667   0.25001   0.37376   0.00000  Uiso   1.00
O49    O     0.16667   0.18453   0.28974   0.00000  Uiso   1.00
O50    O     0.30131   0.18677   0.07735   0.00000  Uiso   1.00
O51    O     0.25017   0.17739   0.49158   0.00000  Uiso   1.00
O52    O     0.04915   0.19757   0.47866   0.00000  Uiso   1.00
O53    O     0.08308   0.14042   0.42963   0.00000  Uiso   1.00
O54    O     0.13234   0.15371   0.01563   0.00000  Uiso   1.00
O55    O     0.16666   0.31546   0.21026   0.00000  Uiso   1.00
O56    O     0.16667   0.18453   0.21026   0.00000  Uiso   1.00
O57    O     0.16666   0.31547   0.28974   0.00000  Uiso   1.00
O58    O     0.09058   0.25000   0.28044   0.00000  Uiso   1.00
O59    O     0.24275   0.25000   0.21955   0.00000  Uiso   1.00
O60    O     0.09058   0.24999   0.20096   0.00000  Uiso   1.00
O61    O     0.24275   0.25000   0.29903   0.00000  Uiso   1.00
O62    O     0.29890   0.25025   0.02297   0.00000  Uiso   1.00
S63    S     0.26765   0.21191   0.03822   0.00000  Uiso   1.00
S64    S     0.09809   0.17638   0.46616   0.00000  Uiso   1.00
Zn65   Zn    0.16667   0.25000   0.30307   0.00000  Uiso   1.00
Zn66   Zn    0.16667   0.24999   0.19693   0.00000  Uiso   1.00
C67    C     0.49995   0.16386   0.25000   0.00000  Uiso   1.00
C68    C     0.46959   0.21776   0.44305   0.00000  Uiso   1.00
C69    C     0.50089   0.24924   0.02669   0.00000  Uiso   1.00
C70    C     0.49965   0.24899   0.47330   0.00000  Uiso   1.00
C71    C     0.40030   0.24995   0.23751   0.00000  Uiso   1.00
C72    C     0.59970   0.24996   0.26249   0.00000  Uiso   1.00
C73    C     0.34529   0.24992   0.23074   0.00000  Uiso   1.00
C74    C     0.65471   0.24984   0.26924   0.00000  Uiso   1.00
C75    C     0.48086   0.04711   0.28710   0.00000  Uiso   1.00
C76    C     0.48087   0.45288   0.20777   0.00000  Uiso   1.00
C77    C     0.48141   0.09309   0.28728   0.00000  Uiso   1.00
C78    C     0.49997   0.33614   0.25000   0.00000  Uiso   1.00
C79    C     0.48145   0.40690   0.20769   0.00000  Uiso   1.00
C80    C     0.49970   0.11599   0.24998   0.00000  Uiso   1.00
C81    C     0.49972   0.38402   0.25000   0.00000  Uiso   1.00
C82    C     0.51769   0.09297   0.21264   0.00000  Uiso   1.00
C83    C     0.51763   0.40707   0.29233   0.00000  Uiso   1.00
C84    C     0.51772   0.04699   0.21277   0.00000  Uiso   1.00
C85    C     0.51764   0.45305   0.29225   0.00000  Uiso   1.00
C86    C     0.49918   0.02406   0.24993   0.00000  Uiso   1.00
C87    C     0.49915   0.47596   0.25000   0.00000  Uiso   1.00
C88    C     0.45764   0.26575   0.04614   0.00000  Uiso   1.00
C89    C     0.52932   0.28046   0.45200   0.00000  Uiso   1.00
C90    C     0.45797   0.26590   0.09591   0.00000  Uiso   1.00
C91    C     0.52914   0.28032   0.40226   0.00000  Uiso   1.00
C92    C     0.54256   0.23378   0.10846   0.00000  Uiso   1.00
C93    C     0.47043   0.21930   0.39323   0.00000  Uiso   1.00
C94    C     0.54435   0.23311   0.05878   0.00000  Uiso   1.00
H95    H     0.65798   0.25004   0.19423   0.00000  Uiso   1.00
H96    H     0.53254   0.47071   0.32491   0.00000  Uiso   1.00
H97    H     0.42372   0.27855   0.02285   0.00000  Uiso   1.00
H98    H     0.55265   0.30502   0.47384   0.00000  Uiso   1.00
H99    H     0.42442   0.27881   0.11027   0.00000  Uiso   1.00
H100   H     0.55238   0.30457   0.38639   0.00000  Uiso   1.00
H101   H     0.57537   0.22118   0.13313   0.00000  Uiso   1.00
H102   H     0.44749   0.19578   0.36973   0.00000  Uiso   1.00
H103   H     0.59565   0.19197   0.46379   0.00000  Uiso   1.00
H104   H     0.43964   0.13622   0.03030   0.00000  Uiso   1.00
H105   H     0.34204   0.24972   0.30576   0.00000  Uiso   1.00
H106   H     0.46577   0.02956   0.31562   0.00000  Uiso   1.00
H107   H     0.46582   0.47041   0.17510   0.00000  Uiso   1.00
H108   H     0.46695   0.11067   0.31611   0.00000  Uiso   1.00
H109   H     0.46702   0.38931   0.17486   0.00000  Uiso   1.00
H110   H     0.53235   0.11045   0.18384   0.00000  Uiso   1.00
H111   H     0.53225   0.38960   0.32516   0.00000  Uiso   1.00
H112   H     0.53267   0.02935   0.18426   0.00000  Uiso   1.00
N113   N     0.50000   0.24999   0.12623   0.00000  Uiso   1.00
N114   N     0.50000   0.25001   0.37376   0.00000  Uiso   1.00
O115   O     0.50000   0.18453   0.28974   0.00000  Uiso   1.00
O116   O     0.63464   0.18677   0.07735   0.00000  Uiso   1.00
O117   O     0.58350   0.17739   0.49158   0.00000  Uiso   1.00
O118   O     0.38248   0.19757   0.47866   0.00000  Uiso   1.00
O119   O     0.41642   0.14042   0.42963   0.00000  Uiso   1.00
O120   O     0.46567   0.15371   0.01563   0.00000  Uiso   1.00
O121   O     0.50000   0.31546   0.21026   0.00000  Uiso   1.00
O122   O     0.50000   0.18453   0.21026   0.00000  Uiso   1.00
O123   O     0.50000   0.31547   0.28974   0.00000  Uiso   1.00
O124   O     0.42392   0.25000   0.28044   0.00000  Uiso   1.00
O125   O     0.57608   0.25000   0.21955   0.00000  Uiso   1.00
O126   O     0.42392   0.24999   0.20096   0.00000  Uiso   1.00
O127   O     0.57608   0.25000   0.29903   0.00000  Uiso   1.00
O128   O     0.63224   0.25025   0.02297   0.00000  Uiso   1.00
S129   S     0.60098   0.21191   0.03822   0.00000  Uiso   1.00
S130   S     0.43142   0.17638   0.46616   0.00000  Uiso   1.00
Zn131  Zn    0.50000   0.25000   0.30307   0.00000  Uiso   1.00
Zn132  Zn    0.50000   0.24999   0.19693   0.00000  Uiso   1.00
C133   C     0.83328   0.16386   0.25000   0.00000  Uiso   1.00
C134   C     0.80293   0.21776   0.44305   0.00000  Uiso   1.00
C135   C     0.83422   0.24924   0.02669   0.00000  Uiso   1.00
C136   C     0.83298   0.24899   0.47330   0.00000  Uiso   1.00
C137   C     0.73364   0.24995   0.23751   0.00000  Uiso   1.00
C138   C     0.93303   0.24996   0.26249   0.00000  Uiso   1.00
C139   C     0.67863   0.24992   0.23074   0.00000  Uiso   1.00
C140   C     0.98804   0.24984   0.26924   0.00000  Uiso   1.00
C141   C     0.81419   0.04711   0.28710   0.00000  Uiso   1.00
C142   C     0.81421   0.45288   0.20777   0.00000  Uiso   1.00
C143   C     0.81474   0.09309   0.28728   0.00000  Uiso   1.00
C144   C     0.83330   0.33614   0.25000   0.00000  Uiso   1.00
C145   C     0.81478   0.40690   0.20769   0.00000  Uiso   1.00
C146   C     0.83303   0.11599   0.24998   0.00000  Uiso   1.00
C147   C     0.83305   0.38402   0.25000   0.00000  Uiso   1.00
C148   C     0.85102   0.09297   0.21264   0.00000  Uiso   1.00
C149   C     0.85097   0.40707   0.29233   0.00000  Uiso   1.00
C150   C     0.85105   0.04699   0.21277   0.00000  Uiso   1.00
C151   C     0.85097   0.45305   0.29225   0.00000  Uiso   1.00
C152   C     0.83251   0.02406   0.24993   0.00000  Uiso   1.00
C153   C     0.83248   0.47596   0.25000   0.00000  Uiso   1.00
C154   C     0.79097   0.26575   0.04614   0.00000  Uiso   1.00
C155   C     0.86265   0.28046   0.45200   0.00000  Uiso   1.00
C156   C     0.79130   0.26590   0.09591   0.00000  Uiso   1.00
C157   C     0.86248   0.28032   0.40226   0.00000  Uiso   1.00
C158   C     0.87590   0.23378   0.10846   0.00000  Uiso   1.00
C159   C     0.80376   0.21930   0.39323   0.00000  Uiso   1.00
C160   C     0.87768   0.23311   0.05878   0.00000  Uiso   1.00
H161   H     0.99131   0.25004   0.19423   0.00000  Uiso   1.00
H162   H     0.86587   0.47071   0.32491   0.00000  Uiso   1.00
H163   H     0.75705   0.27855   0.02285   0.00000  Uiso   1.00
H164   H     0.88598   0.30502   0.47384   0.00000  Uiso   1.00
H165   H     0.75776   0.27881   0.11027   0.00000  Uiso   1.00
H166   H     0.88571   0.30457   0.38639   0.00000  Uiso   1.00
H167   H     0.90870   0.22118   0.13313   0.00000  Uiso   1.00
H168   H     0.78082   0.19578   0.36973   0.00000  Uiso   1.00
H169   H     0.92899   0.19197   0.46379   0.00000  Uiso   1.00
H170   H     0.77297   0.13622   0.03030   0.00000  Uiso   1.00
H171   H     0.67538   0.24972   0.30576   0.00000  Uiso   1.00
H172   H     0.79911   0.02956   0.31562   0.00000  Uiso   1.00
H173   H     0.79916   0.47041   0.17510   0.00000  Uiso   1.00
H174   H     0.80028   0.11067   0.31611   0.00000  Uiso   1.00
H175   H     0.80036   0.38931   0.17486   0.00000  Uiso   1.00
H176   H     0.86568   0.11045   0.18384   0.00000  Uiso   1.00
H177   H     0.86559   0.38960   0.32516   0.00000  Uiso   1.00
H178   H     0.86600   0.02935   0.18426   0.00000  Uiso   1.00
N179   N     0.83333   0.24999   0.12623   0.00000  Uiso   1.00
N180   N     0.83333   0.25001   0.37376   0.00000  Uiso   1.00
O181   O     0.83334   0.18453   0.28974   0.00000  Uiso   1.00
O182   O     0.96797   0.18677   0.07735   0.00000  Uiso   1.00
O183   O     0.91684   0.17739   0.49158   0.00000  Uiso   1.00
O184   O     0.71582   0.19757   0.47866   0.00000  Uiso   1.00
O185   O     0.74975   0.14042   0.42963   0.00000  Uiso   1.00
O186   O     0.79901   0.15371   0.01563   0.00000  Uiso   1.00
O187   O     0.83333   0.31546   0.21026   0.00000  Uiso   1.00
O188   O     0.83334   0.18453   0.21026   0.00000  Uiso   1.00
O189   O     0.83333   0.31547   0.28974   0.00000  Uiso   1.00
O190   O     0.75725   0.25000   0.28044   0.00000  Uiso   1.00
O191   O     0.90942   0.25000   0.21955   0.00000  Uiso   1.00
O192   O     0.75725   0.24999   0.20096   0.00000  Uiso   1.00
O193   O     0.90942   0.25000   0.29903   0.00000  Uiso   1.00
O194   O     0.96557   0.25025   0.02297   0.00000  Uiso   1.00
S195   S     0.93432   0.21191   0.03822   0.00000  Uiso   1.00
S196   S     0.76476   0.17638   0.46616   0.00000  Uiso   1.00
Zn197  Zn    0.83333   0.25000   0.30307   0.00000  Uiso   1.00
Zn198  Zn    0.83333   0.24999   0.19693   0.00000  Uiso   1.00
C199   C     0.16662   0.66386   0.25000   0.00000  Uiso   1.00
C200   C     0.13626   0.71776   0.44305   0.00000  Uiso   1.00
C201   C     0.16755   0.74924   0.02669   0.00000  Uiso   1.00
C202   C     0.16631   0.74899   0.47330   0.00000  Uiso   1.00
C203   C     0.06697   0.74995   0.23751   0.00000  Uiso   1.00
C204   C     0.26636   0.74996   0.26249   0.00000  Uiso   1.00
C205   C     0.01196   0.74992   0.23074   0.00000  Uiso   1.00
C206   C     0.32138   0.74984   0.26924   0.00000  Uiso   1.00
C207   C     0.14752   0.54711   0.28710   0.00000  Uiso   1.00
C208   C     0.14754   0.95288   0.20777   0.00000  Uiso   1.00
C209   C     0.14807   0.59309   0.28728   0.00000  Uiso   1.00
C210   C     0.16663   0.83614   0.25000   0.00000  Uiso   1.00
C211   C     0.14812   0.90690   0.20769   0.00000  Uiso   1.00
C212   C     0.16637   0.61599   0.24998   0.00000  Uiso   1.00
C213   C     0.16638   0.88402   0.25000   0.00000  Uiso   1.00
C214   C     0.18436   0.59297   0.21264   0.00000  Uiso   1.00
C215   C     0.18430   0.90707   0.29233   0.00000  Uiso   1.00
C216   C     0.18439   0.54699   0.21277   0.00000  Uiso   1.00
C217   C     0.18430   0.95305   0.29225   0.00000  Uiso   1.00
C218   C     0.16584   0.52406   0.24993   0.00000  Uiso   1.00
C219   C     0.16582   0.97596   0.25000   0.00000  Uiso   1.00
C220   C     0.12430   0.76575   0.04614   0.00000  Uiso   1.00
C221   C     0.19598   0.78046   0.45200   0.00000  Uiso   1.00
C222   C     0.12464   0.76590   0.09591   0.00000  Uiso   1.00
C223   C     0.19581   0.78032   0.40226   0.00000  Uiso   1.00
C224   C     0.20923   0.73378   0.10846   0.00000  Uiso   1.00
C225   C     0.13710   0.71930   0.39323   0.00000  Uiso   1.00
C226   C     0.21102   0.73311   0.05878   0.00000  Uiso   1.00
H227   H     0.32464   0.75004   0.19423   0.00000  Uiso   1.00
H228   H     0.19921   0.97071   0.32491   0.00000  Uiso   1.00
H229   H     0.09039   0.77855   0.02285   0.00000  Uiso   1.00
H230   H     0.21932   0.80502   0.47384   0.00000  Uiso   1.00
H231   H     0.09109   0.77881   0.11027   0.00000  Uiso   1.00
H232   H     0.21905   0.80457   0.38639   0.00000  Uiso   1.00
H233   H     0.24203   0.72118   0.13313   0.00000  Uiso   1.00
H234   H     0.11415   0.69578   0.36973   0.00000  Uiso   1.00
H235   H     0.26232   0.69197   0.46379   0.00000  Uiso   1.00
H236   H     0.10630   0.63622   0.03030   0.00000  Uiso   1.00
H237   H     0.00871   0.74972   0.30576   0.00000  Uiso   1.00
H238   H     0.13244   0.52956   0.31562   0.00000  Uiso   1.00
H239   H     0.13249   0.97041   0.17510   0.00000  Uiso   1.00
H240   H     0.13362   0.61067   0.31611   0.00000  Uiso   1.00
H241   H     0.13369   0.88931   0.17486   0.00000  Uiso   1.00
H242   H     0.19902   0.61045   0.18384   0.00000  Uiso   1.00
H243   H     0.19892   0.88960   0.32516   0.00000  Uiso   1.00
H244   H     0.19934   0.52935   0.18426   0.00000  Uiso   1.00
N245   N     0.16667   0.74999   0.12623   0.00000  Uiso   1.00
N246   N     0.16667   0.75001   0.37376   0.00000  Uiso   1.00
O247   O     0.16667   0.68453   0.28974   0.00000  Uiso   1.00
O248   O     0.30131   0.68677   0.07735   0.00000  Uiso   1.00
O249   O     0.25017   0.67739   0.49158   0.00000  Uiso   1.00
O250   O     0.04915   0.69757   0.47866   0.00000  Uiso   1.00
O251   O     0.08308   0.64042   0.42963   0.00000  Uiso   1.00
O252   O     0.13234   0.65371   0.01563   0.00000  Uiso   1.00
O253   O     0.16666   0.81546   0.21026   0.00000  Uiso   1.00
O254   O     0.16667   0.68453   0.21026   0.00000  Uiso   1.00
O255   O     0.16666   0.81547   0.28974   0.00000  Uiso   1.00
O256   O     0.09058   0.75000   0.28044   0.00000  Uiso   1.00
O257   O     0.24275   0.75000   0.21955   0.00000  Uiso   1.00
O258   O     0.09058   0.74999   0.20096   0.00000  Uiso   1.00
O259   O     0.24275   0.75000   0.29903   0.00000  Uiso   1.00
O260   O     0.29890   0.75025   0.02297   0.00000  Uiso   1.00
S261   S     0.26765   0.71191   0.03822   0.00000  Uiso   1.00
S262   S     0.09809   0.67638   0.46616   0.00000  Uiso   1.00
Zn263  Zn    0.16667   0.75000   0.30307   0.00000  Uiso   1.00
Zn264  Zn    0.16667   0.74999   0.19693   0.00000  Uiso   1.00
C265   C     0.49995   0.66386   0.25000   0.00000  Uiso   1.00
C266   C     0.46959   0.71776   0.44305   0.00000  Uiso   1.00
C267   C     0.50089   0.74924   0.02669   0.00000  Uiso   1.00
C268   C     0.49965   0.74899   0.47330   0.00000  Uiso   1.00
C269   C     0.40030   0.74995   0.23751   0.00000  Uiso   1.00
C270   C     0.59970   0.74996   0.26249   0.00000  Uiso   1.00
C271   C     0.34529   0.74992   0.23074   0.00000  Uiso   1.00
C272   C     0.65471   0.74984   0.26924   0.00000  Uiso   1.00
C273   C     0.48086   0.54711   0.28710   0.00000  Uiso   1.00
C274   C     0.48087   0.95288   0.20777   0.00000  Uiso   1.00
C275   C     0.48141   0.59309   0.28728   0.00000  Uiso   1.00
C276   C     0.49997   0.83614   0.25000   0.00000  Uiso   1.00
C277   C     0.48145   0.90690   0.20769   0.00000  Uiso   1.00
C278   C     0.49970   0.61599   0.24998   0.00000  Uiso   1.00
C279   C     0.49972   0.88402   0.25000   0.00000  Uiso   1.00
C280   C     0.51769   0.59297   0.21264   0.00000  Uiso   1.00
C281   C     0.51763   0.90707   0.29233   0.00000  Uiso   1.00
C282   C     0.51772   0.54699   0.21277   0.00000  Uiso   1.00
C283   C     0.51764   0.95305   0.29225   0.00000  Uiso   1.00
C284   C     0.49918   0.52406   0.24993   0.00000  Uiso   1.00
C285   C     0.49915   0.97596   0.25000   0.00000  Uiso   1.00
C286   C     0.45764   0.76575   0.04614   0.00000  Uiso   1.00
C287   C     0.52932   0.78046   0.45200   0.00000  Uiso   1.00
C288   C     0.45797   0.76590   0.09591   0.00000  Uiso   1.00
C289   C     0.52914   0.78032   0.40226   0.00000  Uiso   1.00
C290   C     0.54256   0.73378   0.10846   0.00000  Uiso   1.00
C291   C     0.47043   0.71930   0.39323   0.00000  Uiso   1.00
C292   C     0.54435   0.73311   0.05878   0.00000  Uiso   1.00
H293   H     0.65798   0.75004   0.19423   0.00000  Uiso   1.00
H294   H     0.53254   0.97071   0.32491   0.00000  Uiso   1.00
H295   H     0.42372   0.77855   0.02285   0.00000  Uiso   1.00
H296   H     0.55265   0.80502   0.47384   0.00000  Uiso   1.00
H297   H     0.42442   0.77881   0.11027   0.00000  Uiso   1.00
H298   H     0.55238   0.80457   0.38639   0.00000  Uiso   1.00
H299   H     0.57537   0.72118   0.13313   0.00000  Uiso   1.00
H300   H     0.44749   0.69578   0.36973   0.00000  Uiso   1.00
H301   H     0.59565   0.69197   0.46379   0.00000  Uiso   1.00
H302   H     0.43964   0.63622   0.03030   0.00000  Uiso   1.00
H303   H     0.34204   0.74972   0.30576   0.00000  Uiso   1.00
H304   H     0.46577   0.52956   0.31562   0.00000  Uiso   1.00
H305   H     0.46582   0.97041   0.17510   0.00000  Uiso   1.00
H306   H     0.46695   0.61067   0.31611   0.00000  Uiso   1.00
H307   H     0.46702   0.88931   0.17486   0.00000  Uiso   1.00
H308   H     0.53235   0.61045   0.18384   0.00000  Uiso   1.00
H309   H     0.53225   0.88960   0.32516   0.00000  Uiso   1.00
H310   H     0.53267   0.52935   0.18426   0.00000  Uiso   1.00
N311   N     0.50000   0.74999   0.12623   0.00000  Uiso   1.00
N312   N     0.50000   0.75001   0.37376   0.00000  Uiso   1.00
O313   O     0.50000   0.68453   0.28974   0.00000  Uiso   1.00
O314   O     0.63464   0.68677   0.07735   0.00000  Uiso   1.00
O315   O     0.58350   0.67739   0.49158   0.00000  Uiso   1.00
O316   O     0.38248   0.69757   0.47866   0.00000  Uiso   1.00
O317   O     0.41642   0.64042   0.42963   0.00000  Uiso   1.00
O318   O     0.46567   0.65371   0.01563   0.00000  Uiso   1.00
O319   O     0.50000   0.81546   0.21026   0.00000  Uiso   1.00
O320   O     0.50000   0.68453   0.21026   0.00000  Uiso   1.00
O321   O     0.50000   0.81547   0.28974   0.00000  Uiso   1.00
O322   O     0.42392   0.75000   0.28044   0.00000  Uiso   1.00
O323   O     0.57608   0.75000   0.21955   0.00000  Uiso   1.00
O324   O     0.42392   0.74999   0.20096   0.00000  Uiso   1.00
O325   O     0.57608   0.75000   0.29903   0.00000  Uiso   1.00
O326   O     0.63224   0.75025   0.02297   0.00000  Uiso   1.00
S327   S     0.60098   0.71191   0.03822   0.00000  Uiso   1.00
S328   S     0.43142   0.67638   0.46616   0.00000  Uiso   1.00
Zn329  Zn    0.50000   0.75000   0.30307   0.00000  Uiso   1.00
Zn330  Zn    0.50000   0.74999   0.19693   0.00000  Uiso   1.00
C331   C     0.83328   0.66386   0.25000   0.00000  Uiso   1.00
C332   C     0.80293   0.71776   0.44305   0.00000  Uiso   1.00
C333   C     0.83422   0.74924   0.02669   0.00000  Uiso   1.00
C334   C     0.83298   0.74899   0.47330   0.00000  Uiso   1.00
C335   C     0.73364   0.74995   0.23751   0.00000  Uiso   1.00
C336   C     0.93303   0.74996   0.26249   0.00000  Uiso   1.00
C337   C     0.67863   0.74992   0.23074   0.00000  Uiso   1.00
C338   C     0.98804   0.74984   0.26924   0.00000  Uiso   1.00
C339   C     0.81419   0.54711   0.28710   0.00000  Uiso   1.00
C340   C     0.81421   0.95288   0.20777   0.00000  Uiso   1.00
C341   C     0.81474   0.59309   0.28728   0.00000  Uiso   1.00
C342   C     0.83330   0.83614   0.25000   0.00000  Uiso   1.00
C343   C     0.81478   0.90690   0.20769   0.00000  Uiso   1.00
C344   C     0.83303   0.61599   0.24998   0.00000  Uiso   1.00
C345   C     0.83305   0.88402   0.25000   0.00000  Uiso   1.00
C346   C     0.85102   0.59297   0.21264   0.00000  Uiso   1.00
C347   C     0.85097   0.90707   0.29233   0.00000  Uiso   1.00
C348   C     0.85105   0.54699   0.21277   0.00000  Uiso   1.00
C349   C     0.85097   0.95305   0.29225   0.00000  Uiso   1.00
C350   C     0.83251   0.52406   0.24993   0.00000  Uiso   1.00
C351   C     0.83248   0.97596   0.25000   0.00000  Uiso   1.00
C352   C     0.79097   0.76575   0.04614   0.00000  Uiso   1.00
C353   C     0.86265   0.78046   0.45200   0.00000  Uiso   1.00
C354   C     0.79130   0.76590   0.09591   0.00000  Uiso   1.00
C355   C     0.86248   0.78032   0.40226   0.00000  Uiso   1.00
C356   C     0.87590   0.73378   0.10846   0.00000  Uiso   1.00
C357   C     0.80376   0.71930   0.39323   0.00000  Uiso   1.00
C358   C     0.87768   0.73311   0.05878   0.00000  Uiso   1.00
H359   H     0.99131   0.75004   0.19423   0.00000  Uiso   1.00
H360   H     0.86587   0.97071   0.32491   0.00000  Uiso   1.00
H361   H     0.75705   0.77855   0.02285   0.00000  Uiso   1.00
H362   H     0.88598   0.80502   0.47384   0.00000  Uiso   1.00
H363   H     0.75776   0.77881   0.11027   0.00000  Uiso   1.00
H364   H     0.88571   0.80457   0.38639   0.00000  Uiso   1.00
H365   H     0.90870   0.72118   0.13313   0.00000  Uiso   1.00
H366   H     0.78082   0.69578   0.36973   0.00000  Uiso   1.00
H367   H     0.92899   0.69197   0.46379   0.00000  Uiso   1.00
H368   H     0.77297   0.63622   0.03030   0.00000  Uiso   1.00
H369   H     0.67538   0.74972   0.30576   0.00000  Uiso   1.00
H370   H     0.79911   0.52956   0.31562   0.00000  Uiso   1.00
H371   H     0.79916   0.97041   0.17510   0.00000  Uiso   1.00
H372   H     0.80028   0.61067   0.31611   0.00000  Uiso   1.00
H373   H     0.80036   0.88931   0.17486   0.00000  Uiso   1.00
H374   H     0.86568   0.61045   0.18384   0.00000  Uiso   1.00
H375   H     0.86559   0.88960   0.32516   0.00000  Uiso   1.00
H376   H     0.86600   0.52935   0.18426   0.00000  Uiso   1.00
N377   N     0.83333   0.74999   0.12623   0.00000  Uiso   1.00
N378   N     0.83333   0.75001   0.37376   0.00000  Uiso   1.00
O379   O     0.83334   0.68453   0.28974   0.00000  Uiso   1.00
O380   O     0.96797   0.68677   0.07735   0.00000  Uiso   1.00
O381   O     0.91684   0.67739   0.49158   0.00000  Uiso   1.00
O382   O     0.71582   0.69757   0.47866   0.00000  Uiso   1.00
O383   O     0.74975   0.64042   0.42963   0.00000  Uiso   1.00
O384   O     0.79901   0.65371   0.01563   0.00000  Uiso   1.00
O385   O     0.83333   0.81546   0.21026   0.00000  Uiso   1.00
O386   O     0.83334   0.68453   0.21026   0.00000  Uiso   1.00
O387   O     0.83333   0.81547   0.28974   0.00000  Uiso   1.00
O388   O     0.75725   0.75000   0.28044   0.00000  Uiso   1.00
O389   O     0.90942   0.75000   0.21955   0.00000  Uiso   1.00
O390   O     0.75725   0.74999   0.20096   0.00000  Uiso   1.00
O391   O     0.90942   0.75000   0.29903   0.00000  Uiso   1.00
O392   O     0.96557   0.75025   0.02297   0.00000  Uiso   1.00
S393   S     0.93432   0.71191   0.03822   0.00000  Uiso   1.00
S394   S     0.76476   0.67638   0.46616   0.00000  Uiso   1.00
Zn395  Zn    0.83333   0.75000   0.30307   0.00000  Uiso   1.00
Zn396  Zn    0.83333   0.74999   0.19693   0.00000  Uiso   1.00
C397   C     0.16662   0.16386   0.75000   0.00000  Uiso   1.00
C398   C     0.13626   0.21776   0.94305   0.00000  Uiso   1.00
C399   C     0.16755   0.24924   0.52669   0.00000  Uiso   1.00
C400   C     0.16631   0.24899   0.97330   0.00000  Uiso   1.00
C401   C     0.06697   0.24995   0.73751   0.00000  Uiso   1.00
C402   C     0.26636   0.24996   0.76249   0.00000  Uiso   1.00
C403   C     0.01196   0.24992   0.73074   0.00000  Uiso   1.00
C404   C     0.32138   0.24984   0.76924   0.00000  Uiso   1.00
C405   C     0.14752   0.04711   0.78710   0.00000  Uiso   1.00
C406   C     0.14754   0.45288   0.70777   0.00000  Uiso   1.00
C407   C     0.14807   0.09309   0.78728   0.00000  Uiso   1.00
C408   C     0.16663   0.33614   0.75000   0.00000  Uiso   1.00
C409   C     0.14812   0.40690   0.70769   0.00000  Uiso   1.00
C410   C     0.16637   0.11599   0.74998   0.00000  Uiso   1.00
C411   C     0.16638   0.38402   0.75000   0.00000  Uiso   1.00
C412   C     0.18436   0.09297   0.71264   0.00000  Uiso   1.00
C413   C     0.18430   0.40707   0.79233   0.00000  Uiso   1.00
C414   C     0.18439   0.04699   0.71277   0.00000  Uiso   1.00
C415   C     0.18430   0.45305   0.79225   0.00000  Uiso   1.00
C416   C     0.16584   0.02406   0.74993   0.00000  Uiso   1.00
C417   C     0.16582   0.47596   0.75000   0.00000  Uiso   1.00
C418   C     0.12430   0.26575   0.54614   0.00000  Uiso   1.00
C419   C     0.19598   0.28046   0.95200   0.00000  Uiso   1.00
C420   C     0.12464   0.26590   0.59591   0.00000  Uiso   1.00
C421   C     0.19581   0.28032   0.90226   0.00000  Uiso   1.00
C422   C     0.20923   0.23378   0.60846   0.00000  Uiso   1.00
C423   C     0.13710   0.21930   0.89323   0.00000  Uiso   1.00
C424   C     0.21102   0.23311   0.55878   0.00000  Uiso   1.00
H425   H     0.32464   0.25004   0.69423   0.00000  Uiso   1.00
H426   H     0.19921   0.47071   0.82491   0.00000  Uiso   1.00
H427   H     0.09039   0.27855   0.52285   0.00000  Uiso   1.00
H428   H     0.21932   0.30502   0.97384   0.00000  Uiso   1.00
H429   H     0.09109   0.27881   0.61027   0.00000  Uiso   1.00
H430   H     0.21905   0.30457   0.88639   0.00000  Uiso   1.00
H431   H     0.24203   0.22118   0.63313   0.00000  Uiso   1.00
H432   H     0.11415   0.19578   0.86973   0.00000  Uiso   1.00
H433   H     0.26232   0.19197   0.96379   0.00000  Uiso   1.00
H434   H     0.10630   0.13622   0.53030   0.00000  Uiso   1.00
H435   H     0.00871   0.24972   0.80576   0.00000  Uiso   1.00
H436   H     0.13244   0.02956   0.81562   0.00000  Uiso   1.00
H437   H     0.13249   0.47041   0.67510   0.00000  Uiso   1.00
H438   H     0.13362   0.11067   0.81611   0.00000  Uiso   1.00
H439   H     0.13369   0.38931   0.67486   0.00000  Uiso   1.00
H440   H     0.19902   0.11045   0.68384   0.00000  Uiso   1.00
H441   H     0.19892   0.38960   0.82516   0.00000  Uiso   1.00
H442   H     0.19934   0.02935   0.68426   0.00000  Uiso   1.00
N443   N     0.16667   0.24999   0.62623   0.00000  Uiso   1.00
N444   N     0.16667   0.25001   0.87376   0.00000  Uiso   1.00
O445   O     0.16667   0.18453   0.78974   0.00000  Uiso   1.00
O446   O     0.30131   0.18677   0.57735   0.00000  Uiso   1.00
O447   O     0.25017   0.17739   0.99158   0.00000  Uiso   1.00
O448   O     0.04915   0.19757   0.97866   0.00000  Uiso   1.00
O449   O     0.08308   0.14042   0.92963   0.00000  Uiso   1.00
O450   O     0.13234   0.15371   0.51563   0.00000  Uiso   1.00
O451   O     0.16666   0.31546   0.71026   0.00000  Uiso   1.00
O452   O     0.16667   0.18453   0.71026   0.00000  Uiso   1.00
O453   O     0.16666   0.31547   0.78974   0.00000  Uiso   1.00
O454   O     0.09058   0.25000   0.78044   0.00000  Uiso   1.00
O455   O     0.24275   0.25000   0.71955   0.00000  Uiso   1.00
O456   O     0.09058   0.24999   0.70096   0.00000  Uiso   1.00
O457   O     0.24275   0.25000   0.79903   0.00000  Uiso   1.00
O458   O     0.29890   0.25025   0.52297   0.00000  Uiso   1.00
S459   S     0.26765   0.21191   0.53822   0.00000  Uiso   1.00
S460   S     0.09809   0.17638   0.96616   0.00000  Uiso   1.00
Zn461  Zn    0.16667   0.25000   0.80307   0.00000  Uiso   1.00
Zn462  Zn    0.16667   0.24999   0.69693   0.00000  Uiso   1.00
C463   C     0.49995   0.16386   0.75000   0.00000  Uiso   1.00
C464   C     0.46959   0.21776   0.94305   0.00000  Uiso   1.00
C465   C     0.50089   0.24924   0.52669   0.00000  Uiso   1.00
C466   C     0.49965   0.24899   0.97330   0.00000  Uiso   1.00
C467   C     0.40030   0.24995   0.73751   0.00000  Uiso   1.00
C468   C     0.59970   0.24996   0.76249   0.00000  Uiso   1.00
C469   C     0.34529   0.24992   0.73074   0.00000  Uiso   1.00
C470   C     0.65471   0.24984   0.76924   0.00000  Uiso   1.00
C471   C     0.48086   0.04711   0.78710   0.00000  Uiso   1.00
C472   C     0.48087   0.45288   0.70777   0.00000  Uiso   1.00
C473   C     0.48141   0.09309   0.78728   0.00000  Uiso   1.00
C474   C     0.49997   0.33614   0.75000   0.00000  Uiso   1.00
C475   C     0.48145   0.40690   0.70769   0.00000  Uiso   1.00
C476   C     0.49970   0.11599   0.74998   0.00000  Uiso   1.00
C477   C     0.49972   0.38402   0.75000   0.00000  Uiso   1.00
C478   C     0.51769   0.09297   0.71264   0.00000  Uiso   1.00
C479   C     0.51763   0.40707   0.79233   0.00000  Uiso   1.00
C480   C     0.51772   0.04699   0.71277   0.00000  Uiso   1.00
C481   C     0.51764   0.45305   0.79225   0.00000  Uiso   1.00
C482   C     0.49918   0.02406   0.74993   0.00000  Uiso   1.00
C483   C     0.49915   0.47596   0.75000   0.00000  Uiso   1.00
C484   C     0.45764   0.26575   0.54614   0.00000  Uiso   1.00
C485   C     0.52932   0.28046   0.95200   0.00000  Uiso   1.00
C486   C     0.45797   0.26590   0.59591   0.00000  Uiso   1.00
C487   C     0.52914   0.28032   0.90226   0.00000  Uiso   1.00
C488   C     0.54256   0.23378   0.60846   0.00000  Uiso   1.00
C489   C     0.47043   0.21930   0.89323   0.00000  Uiso   1.00
C490   C     0.54435   0.23311   0.55878   0.00000  Uiso   1.00
H491   H     0.65798   0.25004   0.69423   0.00000  Uiso   1.00
H492   H     0.53254   0.47071   0.82491   0.00000  Uiso   1.00
H493   H     0.42372   0.27855   0.52285   0.00000  Uiso   1.00
H494   H     0.55265   0.30502   0.97384   0.00000  Uiso   1.00
H495   H     0.42442   0.27881   0.61027   0.00000  Uiso   1.00
H496   H     0.55238   0.30457   0.88639   0.00000  Uiso   1.00
H497   H     0.57537   0.22118   0.63313   0.00000  Uiso   1.00
H498   H     0.44749   0.19578   0.86973   0.00000  Uiso   1.00
H499   H     0.59565   0.19197   0.96379   0.00000  Uiso   1.00
H500   H     0.43964   0.13622   0.53030   0.00000  Uiso   1.00
H501   H     0.34204   0.24972   0.80576   0.00000  Uiso   1.00
H502   H     0.46577   0.02956   0.81562   0.00000  Uiso   1.00
H503   H     0.46582   0.47041   0.67510   0.00000  Uiso   1.00
H504   H     0.46695   0.11067   0.81611   0.00000  Uiso   1.00
H505   H     0.46702   0.38931   0.67486   0.00000  Uiso   1.00
H506   H     0.53235   0.11045   0.68384   0.00000  Uiso   1.00
H507   H     0.53225   0.38960   0.82516   0.00000  Uiso   1.00
H508   H     0.53267   0.02935   0.68426   0.00000  Uiso   1.00
N509   N     0.50000   0.24999   0.62623   0.00000  Uiso   1.00
N510   N     0.50000   0.25001   0.87376   0.00000  Uiso   1.00
O511   O     0.50000   0.18453   0.78974   0.00000  Uiso   1.00
O512   O     0.63464   0.18677   0.57735   0.00000  Uiso   1.00
O513   O     0.58350   0.17739   0.99158   0.00000  Uiso   1.00
O514   O     0.38248   0.19757   0.97866   0.00000  Uiso   1.00
O515   O     0.41642   0.14042   0.92963   0.00000  Uiso   1.00
O516   O     0.46567   0.15371   0.51563   0.00000  Uiso   1.00
O517   O     0.50000   0.31546   0.71026   0.00000  Uiso   1.00
O518   O     0.50000   0.18453   0.71026   0.00000  Uiso   1.00
O519   O     0.50000   0.31547   0.78974   0.00000  Uiso   1.00
O520   O     0.42392   0.25000   0.78044   0.00000  Uiso   1.00
O521   O     0.57608   0.25000   0.71955   0.00000  Uiso   1.00
O522   O     0.42392   0.24999   0.70096   0.00000  Uiso   1.00
O523   O     0.57608   0.25000   0.79903   0.00000  Uiso   1.00
O524   O     0.63224   0.25025   0.52297   0.00000  Uiso   1.00
S525   S     0.60098   0.21191   0.53822   0.00000  Uiso   1.00
S526   S     0.43142   0.17638   0.96616   0.00000  Uiso   1.00
Zn527  Zn    0.50000   0.25000   0.80307   0.00000  Uiso   1.00
Zn528  Zn    0.50000   0.24999   0.69693   0.00000  Uiso   1.00
C529   C     0.83328   0.16386   0.75000   0.00000  Uiso   1.00
C530   C     0.80293   0.21776   0.94305   0.00000  Uiso   1.00
C531   C     0.83422   0.24924   0.52669   0.00000  Uiso   1.00
C532   C     0.83298   0.24899   0.97330   0.00000  Uiso   1.00
C533   C     0.73364   0.24995   0.73751   0.00000  Uiso   1.00
C534   C     0.93303   0.24996   0.76249   0.00000  Uiso   1.00
C535   C     0.67863   0.24992   0.73074   0.00000  Uiso   1.00
C536   C     0.98804   0.24984   0.76924   0.00000  Uiso   1.00
C537   C     0.81419   0.04711   0.78710   0.00000  Uiso   1.00
C538   C     0.81421   0.45288   0.70777   0.00000  Uiso   1.00
C539   C     0.81474   0.09309   0.78728   0.00000  Uiso   1.00
C540   C     0.83330   0.33614   0.75000   0.00000  Uiso   1.00
C541   C     0.81478   0.40690   0.70769   0.00000  Uiso   1.00
C542   C     0.83303   0.11599   0.74998   0.00000  Uiso   1.00
C543   C     0.83305   0.38402   0.75000   0.00000  Uiso   1.00
C544   C     0.85102   0.09297   0.71264   0.00000  Uiso   1.00
C545   C     0.85097   0.40707   0.79233   0.00000  Uiso   1.00
C546   C     0.85105   0.04699   0.71277   0.00000  Uiso   1.00
C547   C     0.85097   0.45305   0.79225   0.00000  Uiso   1.00
C548   C     0.83251   0.02406   0.74993   0.00000  Uiso   1.00
C549   C     0.83248   0.47596   0.75000   0.00000  Uiso   1.00
C550   C     0.79097   0.26575   0.54614   0.00000  Uiso   1.00
C551   C     0.86265   0.28046   0.95200   0.00000  Uiso   1.00
C552   C     0.79130   0.26590   0.59591   0.00000  Uiso   1.00
C553   C     0.86248   0.28032   0.90226   0.00000  Uiso   1.00
C554   C     0.87590   0.23378   0.60846   0.00000  Uiso   1.00
C555   C     0.80376   0.21930   0.89323   0.00000  Uiso   1.00
C556   C     0.87768   0.23311   0.55878   0.00000  Uiso   1.00
H557   H     0.99131   0.25004   0.69423   0.00000  Uiso   1.00
H558   H     0.86587   0.47071   0.82491   0.00000  Uiso   1.00
H559   H     0.75705   0.27855   0.52285   0.00000  Uiso   1.00
H560   H     0.88598   0.30502   0.97384   0.00000  Uiso   1.00
H561   H     0.75776   0.27881   0.61027   0.00000  Uiso   1.00
H562   H     0.88571   0.30457   0.88639   0.00000  Uiso   1.00
H563   H     0.90870   0.22118   0.63313   0.00000  Uiso   1.00
H564   H     0.78082   0.19578   0.86973   0.00000  Uiso   1.00
H565   H     0.92899   0.19197   0.96379   0.00000  Uiso   1.00
H566   H     0.77297   0.13622   0.53030   0.00000  Uiso   1.00
H567   H     0.67538   0.24972   0.80576   0.00000  Uiso   1.00
H568   H     0.79911   0.02956   0.81562   0.00000  Uiso   1.00
H569   H     0.79916   0.47041   0.67510   0.00000  Uiso   1.00
H570   H     0.80028   0.11067   0.81611   0.00000  Uiso   1.00
H571   H     0.80036   0.38931   0.67486   0.00000  Uiso   1.00
H572   H     0.86568   0.11045   0.68384   0.00000  Uiso   1.00
H573   H     0.86559   0.38960   0.82516   0.00000  Uiso   1.00
H574   H     0.86600   0.02935   0.68426   0.00000  Uiso   1.00
N575   N     0.83333   0.24999   0.62623   0.00000  Uiso   1.00
N576   N     0.83333   0.25001   0.87376   0.00000  Uiso   1.00
O577   O     0.83334   0.18453   0.78974   0.00000  Uiso   1.00
O578   O     0.96797   0.18677   0.57735   0.00000  Uiso   1.00
O579   O     0.91684   0.17739   0.99158   0.00000  Uiso   1.00
O580   O     0.71582   0.19757   0.97866   0.00000  Uiso   1.00
O581   O     0.74975   0.14042   0.92963   0.00000  Uiso   1.00
O582   O     0.79901   0.15371   0.51563   0.00000  Uiso   1.00
O583   O     0.83333   0.31546   0.71026   0.00000  Uiso   1.00
O584   O     0.83334   0.18453   0.71026   0.00000  Uiso   1.00
O585   O     0.83333   0.31547   0.78974   0.00000  Uiso   1.00
O586   O     0.75725   0.25000   0.78044   0.00000  Uiso   1.00
O587   O     0.90942   0.25000   0.71955   0.00000  Uiso   1.00
O588   O     0.75725   0.24999   0.70096   0.00000  Uiso   1.00
O589   O     0.90942   0.25000   0.79903   0.00000  Uiso   1.00
O590   O     0.96557   0.25025   0.52297   0.00000  Uiso   1.00
S591   S     0.93432   0.21191   0.53822   0.00000  Uiso   1.00
S592   S     0.76476   0.17638   0.96616   0.00000  Uiso   1.00
Zn593  Zn    0.83333   0.25000   0.80307   0.00000  Uiso   1.00
Zn594  Zn    0.83333   0.24999   0.69693   0.00000  Uiso   1.00
C595   C     0.16662   0.66386   0.75000   0.00000  Uiso   1.00
C596   C     0.13626   0.71776   0.94305   0.00000  Uiso   1.00
C597   C     0.16755   0.74924   0.52669   0.00000  Uiso   1.00
C598   C     0.16631   0.74899   0.97330   0.00000  Uiso   1.00
C599   C     0.06697   0.74995   0.73751   0.00000  Uiso   1.00
C600   C     0.26636   0.74996   0.76249   0.00000  Uiso   1.00
C601   C     0.01196   0.74992   0.73074   0.00000  Uiso   1.00
C602   C     0.32138   0.74984   0.76924   0.00000  Uiso   1.00
C603   C     0.14752   0.54711   0.78710   0.00000  Uiso   1.00
C604   C     0.14754   0.95288   0.70777   0.00000  Uiso   1.00
C605   C     0.14807   0.59309   0.78728   0.00000  Uiso   1.00
C606   C     0.16663   0.83614   0.75000   0.00000  Uiso   1.00
C607   C     0.14812   0.90690   0.70769   0.00000  Uiso   1.00
C608   C     0.16637   0.61599   0.74998   0.00000  Uiso   1.00
C609   C     0.16638   0.88402   0.75000   0.00000  Uiso   1.00
C610   C     0.18436   0.59297   0.71264   0.00000  Uiso   1.00
C611   C     0.18430   0.90707   0.79233   0.00000  Uiso   1.00
C612   C     0.18439   0.54699   0.71277   0.00000  Uiso   1.00
C613   C     0.18430   0.95305   0.79225   0.00000  Uiso   1.00
C614   C     0.16584   0.52406   0.74993   0.00000  Uiso   1.00
C615   C     0.16582   0.97596   0.75000   0.00000  Uiso   1.00
C616   C     0.12430   0.76575   0.54614   0.00000  Uiso   1.00
C617   C     0.19598   0.78046   0.95200   0.00000  Uiso   1.00
C618   C     0.12464   0.76590   0.59591   0.00000  Uiso   1.00
C619   C     0.19581   0.78032   0.90226   0.00000  Uiso   1.00
C620   C     0.20923   0.73378   0.60846   0.00000  Uiso   1.00
C621   C     0.13710   0.71930   0.89323   0.00000  Uiso   1.00
C622   C     0.21102   0.73311   0.55878   0.00000  Uiso   1.00
H623   H     0.32464   0.75004   0.69423   0.00000  Uiso   1.00
H624   H     0.19921   0.97071   0.82491   0.00000  Uiso   1.00
H625   H     0.09039   0.77855   0.52285   0.00000  Uiso   1.00
H626   H     0.21932   0.80502   0.97384   0.00000  Uiso   1.00
H627   H     0.09109   0.77881   0.61027   0.00000  Uiso   1.00
H628   H     0.21905   0.80457   0.88639   0.00000  Uiso   1.00
H629   H     0.24203   0.72118   0.63313   0.00000  Uiso   1.00
H630   H     0.11415   0.69578   0.86973   0.00000  Uiso   1.00
H631   H     0.26232   0.69197   0.96379   0.00000  Uiso   1.00
H632   H     0.10630   0.63622   0.53030   0.00000  Uiso   1.00
H633   H     0.00871   0.74972   0.80576   0.00000  Uiso   1.00
H634   H     0.13244   0.52956   0.81562   0.00000  Uiso   1.00
H635   H     0.13249   0.97041   0.67510   0.00000  Uiso   1.00
H636   H     0.13362   0.61067   0.81611   0.00000  Uiso   1.00
H637   H     0.13369   0.88931   0.67486   0.00000  Uiso   1.00
H638   H     0.19902   0.61045   0.68384   0.00000  Uiso   1.00
H639   H     0.19892   0.88960   0.82516   0.00000  Uiso   1.00
H640   H     0.19934   0.52935   0.68426   0.00000  Uiso   1.00
N641   N     0.16667   0.74999   0.62623   0.00000  Uiso   1.00
N642   N     0.16667   0.75001   0.87376   0.00000  Uiso   1.00
O643   O     0.16667   0.68453   0.78974   0.00000  Uiso   1.00
O644   O     0.30131   0.68677   0.57735   0.00000  Uiso   1.00
O645   O     0.25017   0.67739   0.99158   0.00000  Uiso   1.00
O646   O     0.04915   0.69757   0.97866   0.00000  Uiso   1.00
O647   O     0.08308   0.64042   0.92963   0.00000  Uiso   1.00
O648   O     0.13234   0.65371   0.51563   0.00000  Uiso   1.00
O649   O     0.16666   0.81546   0.71026   0.00000  Uiso   1.00
O650   O     0.16667   0.68453   0.71026   0.00000  Uiso   1.00
O651   O     0.16666   0.81547   0.78974   0.00000  Uiso   1.00
O652   O     0.09058   0.75000   0.78044   0.00000  Uiso   1.00
O653   O     0.24275   0.75000   0.71955   0.00000  Uiso   1.00
O654   O     0.09058   0.74999   0.70096   0.00000  Uiso   1.00
O655   O     0.24275   0.75000   0.79903   0.00000  Uiso   1.00
O656   O     0.29890   0.75025   0.52297   0.00000  Uiso   1.00
S657   S     0.26765   0.71191   0.53822   0.00000  Uiso   1.00
S658   S     0.09809   0.67638   0.96616   0.00000  Uiso   1.00
Zn659  Zn    0.16667   0.75000   0.80307   0.00000  Uiso   1.00
Zn660  Zn    0.16667   0.74999   0.69693   0.00000  Uiso   1.00
C661   C     0.49995   0.66386   0.75000   0.00000  Uiso   1.00
C662   C     0.46959   0.71776   0.94305   0.00000  Uiso   1.00
C663   C     0.50089   0.74924   0.52669   0.00000  Uiso   1.00
C664   C     0.49965   0.74899   0.97330   0.00000  Uiso   1.00
C665   C     0.40030   0.74995   0.73751   0.00000  Uiso   1.00
C666   C     0.59970   0.74996   0.76249   0.00000  Uiso   1.00
C667   C     0.34529   0.74992   0.73074   0.00000  Uiso   1.00
C668   C     0.65471   0.74984   0.76924   0.00000  Uiso   1.00
C669   C     0.48086   0.54711   0.78710   0.00000  Uiso   1.00
C670   C     0.48087   0.95288   0.70777   0.00000  Uiso   1.00
C671   C     0.48141   0.59309   0.78728   0.00000  Uiso   1.00
C672   C     0.49997   0.83614   0.75000   0.00000  Uiso   1.00
C673   C     0.48145   0.90690   0.70769   0.00000  Uiso   1.00
C674   C     0.49970   0.61599   0.74998   0.00000  Uiso   1.00
C675   C     0.49972   0.88402   0.75000   0.00000  Uiso   1.00
C676   C     0.51769   0.59297   0.71264   0.00000  Uiso   1.00
C677   C     0.51763   0.90707   0.79233   0.00000  Uiso   1.00
C678   C     0.51772   0.54699   0.71277   0.00000  Uiso   1.00
C679   C     0.51764   0.95305   0.79225   0.00000  Uiso   1.00
C680   C     0.49918   0.52406   0.74993   0.00000  Uiso   1.00
C681   C     0.49915   0.97596   0.75000   0.00000  Uiso   1.00
C682   C     0.45764   0.76575   0.54614   0.00000  Uiso   1.00
C683   C     0.52932   0.78046   0.95200   0.00000  Uiso   1.00
C684   C     0.45797   0.76590   0.59591   0.00000  Uiso   1.00
C685   C     0.52914   0.78032   0.90226   0.00000  Uiso   1.00
C686   C     0.54256   0.73378   0.60846   0.00000  Uiso   1.00
C687   C     0.47043   0.71930   0.89323   0.00000  Uiso   1.00
C688   C     0.54435   0.73311   0.55878   0.00000  Uiso   1.00
H689   H     0.65798   0.75004   0.69423   0.00000  Uiso   1.00
H690   H     0.53254   0.97071   0.82491   0.00000  Uiso   1.00
H691   H     0.42372   0.77855   0.52285   0.00000  Uiso   1.00
H692   H     0.55265   0.80502   0.97384   0.00000  Uiso   1.00
H693   H     0.42442   0.77881   0.61027   0.00000  Uiso   1.00
H694   H     0.55238   0.80457   0.88639   0.00000  Uiso   1.00
H695   H     0.57537   0.72118   0.63313   0.00000  Uiso   1.00
H696   H     0.44749   0.69578   0.86973   0.00000  Uiso   1.00
H697   H     0.59565   0.69197   0.96379   0.00000  Uiso   1.00
H698   H     0.43964   0.63622   0.53030   0.00000  Uiso   1.00
H699   H     0.34204   0.74972   0.80576   0.00000  Uiso   1.00
H700   H     0.46577   0.52956   0.81562   0.00000  Uiso   1.00
H701   H     0.46582   0.97041   0.67510   0.00000  Uiso   1.00
H702   H     0.46695   0.61067   0.81611   0.00000  Uiso   1.00
H703   H     0.46702   0.88931   0.67486   0.00000  Uiso   1.00
H704   H     0.53235   0.61045   0.68384   0.00000  Uiso   1.00
H705   H     0.53225   0.88960   0.82516   0.00000  Uiso   1.00
H706   H     0.53267   0.52935   0.68426   0.00000  Uiso   1.00
N707   N     0.50000   0.74999   0.62623   0.00000  Uiso   1.00
N708   N     0.50000   0.75001   0.87376   0.00000  Uiso   1.00
O709   O     0.50000   0.68453   0.78974   0.00000  Uiso   1.00
O710   O     0.63464   0.68677   0.57735   0.00000  Uiso   1.00
O711   O     0.58350   0.67739   0.99158   0.00000  Uiso   1.00
O712   O     0.38248   0.69757   0.97866   0.00000  Uiso   1.00
O713   O     0.41642   0.64042   0.92963   0.00000  Uiso   1.00
O714   O     0.46567   0.65371   0.51563   0.00000  Uiso   1.00
O715   O     0.50000   0.81546   0.71026   0.00000  Uiso   1.00
O716   O     0.50000   0.68453   0.71026   0.00000  Uiso   1.00
O717   O     0.50000   0.81547   0.78974   0.00000  Uiso   1.00
O718   O     0.42392   0.75000   0.78044   0.00000  Uiso   1.00
O719   O     0.57608   0.75000   0.71955   0.00000  Uiso   1.00
O720   O     0.42392   0.74999   0.70096   0.00000  Uiso   1.00
O721   O     0.57608   0.75000   0.79903   0.00000  Uiso   1.00
O722   O     0.63224   0.75025   0.52297   0.00000  Uiso   1.00
S723   S     0.60098   0.71191   0.53822   0.00000  Uiso   1.00
S724   S     0.43142   0.67638   0.96616   0.00000  Uiso   1.00
Zn725  Zn    0.50000   0.75000   0.80307   0.00000  Uiso   1.00
Zn726  Zn    0.50000   0.74999   0.69693   0.00000  Uiso   1.00
C727   C     0.83328   0.66386   0.75000   0.00000  Uiso   1.00
C728   C     0.80293   0.71776   0.94305   0.00000  Uiso   1.00
C729   C     0.83422   0.74924   0.52669   0.00000  Uiso   1.00
C730   C     0.83298   0.74899   0.97330   0.00000  Uiso   1.00
C731   C     0.73364   0.74995   0.73751   0.00000  Uiso   1.00
C732   C     0.93303   0.74996   0.76249   0.00000  Uiso   1.00
C733   C     0.67863   0.74992   0.73074   0.00000  Uiso   1.00
C734   C     0.98804   0.74984   0.76924   0.00000  Uiso   1.00
C735   C     0.81419   0.54711   0.78710   0.00000  Uiso   1.00
C736   C     0.81421   0.95288   0.70777   0.00000  Uiso   1.00
C737   C     0.81474   0.59309   0.78728   0.00000  Uiso   1.00
C738   C     0.83330   0.83614   0.75000   0.00000  Uiso   1.00
C739   C     0.81478   0.90690   0.70769   0.00000  Uiso   1.00
C740   C     0.83303   0.61599   0.74998   0.00000  Uiso   1.00
C741   C     0.83305   0.88402   0.75000   0.00000  Uiso   1.00
C742   C     0.85102   0.59297   0.71264   0.00000  Uiso   1.00
C743   C     0.85097   0.90707   0.79233   0.00000  Uiso   1.00
C744   C     0.85105   0.54699   0.71277   0.00000  Uiso   1.00
C745   C     0.85097   0.95305   0.79225   0.00000  Uiso   1.00
C746   C     0.83251   0.52406   0.74993   0.00000  Uiso   1.00
C747   C     0.83248   0.97596   0.75000   0.00000  Uiso   1.00
C748   C     0.79097   0.76575   0.54614   0.00000  Uiso   1.00
C749   C     0.86265   0.78046   0.95200   0.00000  Uiso   1.00
C750   C     0.79130   0.76590   0.59591   0.00000  Uiso   1.00
C751   C     0.86248   0.78032   0.90226   0.00000  Uiso   1.00
C752   C     0.87590   0.73378   0.60846   0.00000  Uiso   1.00
C753   C     0.80376   0.71930   0.89323   0.00000  Uiso   1.00
C754   C     0.87768   0.73311   0.55878   0.00000  Uiso   1.00
H755   H     0.99131   0.75004   0.69423   0.00000  Uiso   1.00
H756   H     0.86587   0.97071   0.82491   0.00000  Uiso   1.00
H757   H     0.75705   0.77855   0.52285   0.00000  Uiso   1.00
H758   H     0.88598   0.80502   0.97384   0.00000  Uiso   1.00
H759   H     0.75776   0.77881   0.61027   0.00000  Uiso   1.00
H760   H     0.88571   0.80457   0.88639   0.00000  Uiso   1.00
H761   H     0.90870   0.72118   0.63313   0.00000  Uiso   1.00
H762   H     0.78082   0.69578   0.86973   0.00000  Uiso   1.00
H763   H     0.92899   0.69197   0.96379   0.00000  Uiso   1.00
H764   H     0.77297   0.63622   0.53030   0.00000  Uiso   1.00
H765   H     0.67538   0.74972   0.80576   0.00000  Uiso   1.00
H766   H     0.79911   0.52956   0.81562   0.00000  Uiso   1.00
H767   H     0.79916   0.97041   0.67510   0.00000  Uiso   1.00
H768   H     0.80028   0.61067   0.81611   0.00000  Uiso   1.00
H769   H     0.80036   0.88931   0.67486   0.00000  Uiso   1.00
H770   H     0.86568   0.61045   0.68384   0.00000  Uiso   1.00
H771   H     0.86559   0.88960   0.82516   0.00000  Uiso   1.00
H772   H     0.86600   0.52935   0.68426   0.00000  Uiso   1.00
N773   N     0.83333   0.74999   0.62623   0.00000  Uiso   1.00
N774   N     0.83333   0.75001   0.87376   0.00000  Uiso   1.00
O775   O     0.83334   0.68453   0.78974   0.00000  Uiso   1.00
O776   O     0.96797   0.68677   0.57735   0.00000  Uiso   1.00
O777   O     0.91684   0.67739   0.99158   0.00000  Uiso   1.00
O778   O     0.71582   0.69757   0.97866   0.00000  Uiso   1.00
O779   O     0.74975   0.64042   0.92963   0.00000  Uiso   1.00
O780   O     0.79901   0.65371   0.51563   0.00000  Uiso   1.00
O781   O     0.83333   0.81546   0.71026   0.00000  Uiso   1.00
O782   O     0.83334   0.68453   0.71026   0.00000  Uiso   1.00
O783   O     0.83333   0.81547   0.78974   0.00000  Uiso   1.00
O784   O     0.75725   0.75000   0.78044   0.00000  Uiso   1.00
O785   O     0.90942   0.75000   0.71955   0.00000  Uiso   1.00
O786   O     0.75725   0.74999   0.70096   0.00000  Uiso   1.00
O787   O     0.90942   0.75000   0.79903   0.00000  Uiso   1.00
O788   O     0.96557   0.75025   0.52297   0.00000  Uiso   1.00
S789   S     0.93432   0.71191   0.53822   0.00000  Uiso   1.00
S790   S     0.76476   0.67638   0.96616   0.00000  Uiso   1.00
Zn791  Zn    0.83333   0.75000   0.80307   0.00000  Uiso   1.00
Zn792  Zn    0.83333   0.74999   0.69693   0.00000  Uiso   1.00
loop_
_geom_bond_atom_site_label_1
_geom_bond_atom_site_label_2
_geom_bond_distance
_geom_bond_site_symmetry_2
_ccdc_geom_bond_type
C1     O56     1.284   .     A
C1     C14     1.437   .     S
C1     O49     1.284   .     A
C2     C4      1.417   .     A
C2     C27     1.413   .     A
C2     S64     1.769   .     S
C3     C28     1.417   .     A
C3     C22     1.406   .     A
C3     C400    1.506   1_554 S
C4     C23     1.406   .     A
C4     C399    1.506   .     S
C5     C7      1.401   .     S
C5     O58     1.274   .     A
C5     O60     1.276   .     A
C6     O61     1.276   .     A
C6     C8      1.401   .     S
C6     O59     1.273   .     A
C7     C140    1.330   1_455 S
C7     H161    1.088   1_455 S
C8     C73     1.330   .     S
C8     H105    1.088   .     S
C9     C11     1.381   .     A
C9     C20     1.399   .     A
C9     H40     1.083   .     S
C10    C21     1.399   .     A
C10    H41     1.083   .     S
C10    C13     1.380   .     A
C11    H42     1.084   .     S
C11    C14     1.399   .     A
C12    C15     1.437   .     S
C12    O57     1.284   .     A
C12    O55     1.284   .     A
C13    C15     1.399   .     A
C13    H43     1.084   .     S
C14    C16     1.399   .     A
C15    C17     1.399   .     A
C16    H44     1.084   .     S
C16    C18     1.380   .     A
C17    C19     1.381   .     A
C17    H45     1.084   .     S
C18    H46     1.083   .     S
C18    C20     1.399   .     A
C19    H30     1.083   .     S
C19    C21     1.399   .     A
C20    C219    1.444   1_545 S
C21    C218    1.444   .     S
C22    C24     1.406   .     A
C22    H31     1.083   .     S
C23    H32     1.083   .     S
C23    C25     1.406   .     A
C24    H33     1.081   .     S
C24    N47     1.363   .     A
C25    H34     1.082   .     S
C25    N48     1.362   .     A
C26    C28     1.413   .     A
C26    N47     1.364   .     A
C26    H35     1.080   .     S
C27    N48     1.363   .     A
C27    H36     1.082   .     S
C28    S63     1.770   .     S
H29    C73     1.088   .     S
H37    O51     0.991   .     S
H38    O54     0.990   .     S
H39    C140    1.088   1_455 S
N47    Zn66    2.000   .     S
N48    Zn65    2.000   .     S
O49    Zn65    2.001   .     S
O50    S63     1.503   .     D
O51    S459    1.684   .     S
O52    S64     1.502   .     D
O53    S64     1.503   .     D
O54    S460    1.682   1_554 S
O55    Zn66    2.001   .     S
O56    Zn66    2.001   .     S
O57    Zn65    2.001   .     S
O58    Zn65    1.968   .     S
O59    Zn66    1.968   .     S
O60    Zn66    1.981   .     S
O61    Zn65    1.981   .     S
O62    S63     1.504   .     D
S63    O447    1.684   1_554 S
S64    O450    1.682   .     S
C67    O122    1.284   .     A
C67    C80     1.437   .     S
C67    O115    1.284   .     A
C68    C70     1.417   .     A
C68    C93     1.413   .     A
C68    S130    1.769   .     S
C69    C94     1.417   .     A
C69    C88     1.406   .     A
C69    C466    1.506   1_554 S
C70    C89     1.406   .     A
C70    C465    1.506   .     S
C71    C73     1.401   .     S
C71    O124    1.274   .     A
C71    O126    1.276   .     A
C72    O127    1.276   .     A
C72    C74     1.401   .     S
C72    O125    1.273   .     A
C74    C139    1.330   .     S
C74    H171    1.088   .     S
C75    C77     1.381   .     A
C75    C86     1.399   .     A
C75    H106    1.083   .     S
C76    C87     1.399   .     A
C76    H107    1.083   .     S
C76    C79     1.380   .     A
C77    H108    1.084   .     S
C77    C80     1.399   .     A
C78    C81     1.437   .     S
C78    O123    1.284   .     A
C78    O121    1.284   .     A
C79    C81     1.399   .     A
C79    H109    1.084   .     S
C80    C82     1.399   .     A
C81    C83     1.399   .     A
C82    H110    1.084   .     S
C82    C84     1.380   .     A
C83    C85     1.381   .     A
C83    H111    1.084   .     S
C84    H112    1.083   .     S
C84    C86     1.399   .     A
C85    H96     1.083   .     S
C85    C87     1.399   .     A
C86    C285    1.444   1_545 S
C87    C284    1.444   .     S
C88    C90     1.406   .     A
C88    H97     1.083   .     S
C89    H98     1.083   .     S
C89    C91     1.406   .     A
C90    H99     1.081   .     S
C90    N113    1.363   .     A
C91    H100    1.082   .     S
C91    N114    1.362   .     A
C92    C94     1.413   .     A
C92    N113    1.364   .     A
C92    H101    1.080   .     S
C93    N114    1.363   .     A
C93    H102    1.082   .     S
C94    S129    1.770   .     S
H95    C139    1.088   .     S
H103   O117    0.991   .     S
H104   O120    0.990   .     S
N113   Zn132   2.000   .     S
N114   Zn131   2.000   .     S
O115   Zn131   2.001   .     S
O116   S129    1.503   .     D
O117   S525    1.684   .     S
O118   S130    1.502   .     D
O119   S130    1.503   .     D
O120   S526    1.682   1_554 S
O121   Zn132   2.001   .     S
O122   Zn132   2.001   .     S
O123   Zn131   2.001   .     S
O124   Zn131   1.968   .     S
O125   Zn132   1.968   .     S
O126   Zn132   1.981   .     S
O127   Zn131   1.981   .     S
O128   S129    1.504   .     D
S129   O513    1.684   1_554 S
S130   O516    1.682   .     S
C133   O188    1.284   .     A
C133   C146    1.437   .     S
C133   O181    1.284   .     A
C134   C136    1.417   .     A
C134   C159    1.413   .     A
C134   S196    1.769   .     S
C135   C160    1.417   .     A
C135   C154    1.406   .     A
C135   C532    1.506   1_554 S
C136   C155    1.406   .     A
C136   C531    1.506   .     S
C137   C139    1.401   .     S
C137   O190    1.274   .     A
C137   O192    1.276   .     A
C138   O193    1.276   .     A
C138   C140    1.401   .     S
C138   O191    1.273   .     A
C140   C7      1.330   1_655 S
C140   H39     1.088   1_655 S
C141   C143    1.381   .     A
C141   C152    1.399   .     A
C141   H172    1.083   .     S
C142   C153    1.399   .     A
C142   H173    1.083   .     S
C142   C145    1.380   .     A
C143   H174    1.084   .     S
C143   C146    1.399   .     A
C144   C147    1.437   .     S
C144   O189    1.284   .     A
C144   O187    1.284   .     A
C145   C147    1.399   .     A
C145   H175    1.084   .     S
C146   C148    1.399   .     A
C147   C149    1.399   .     A
C148   H176    1.084   .     S
C148   C150    1.380   .     A
C149   C151    1.381   .     A
C149   H177    1.084   .     S
C150   H178    1.083   .     S
C150   C152    1.399   .     A
C151   H162    1.083   .     S
C151   C153    1.399   .     A
C152   C351    1.444   1_545 S
C153   C350    1.444   .     S
C154   C156    1.406   .     A
C154   H163    1.083   .     S
C155   H164    1.083   .     S
C155   C157    1.406   .     A
C156   H165    1.081   .     S
C156   N179    1.363   .     A
C157   H166    1.082   .     S
C157   N180    1.362   .     A
C158   C160    1.413   .     A
C158   N179    1.364   .     A
C158   H167    1.080   .     S
C159   N180    1.363   .     A
C159   H168    1.082   .     S
C160   S195    1.770   .     S
H161   C7      1.088   1_655 S
H169   O183    0.991   .     S
H170   O186    0.990   .     S
N179   Zn198   2.000   .     S
N180   Zn197   2.000   .     S
O181   Zn197   2.001   .     S
O182   S195    1.503   .     D
O183   S591    1.684   .     S
O184   S196    1.502   .     D
O185   S196    1.503   .     D
O186   S592    1.682   1_554 S
O187   Zn198   2.001   .     S
O188   Zn198   2.001   .     S
O189   Zn197   2.001   .     S
O190   Zn197   1.968   .     S
O191   Zn198   1.968   .     S
O192   Zn198   1.981   .     S
O193   Zn197   1.981   .     S
O194   S195    1.504   .     D
S195   O579    1.684   1_554 S
S196   O582    1.682   .     S
C199   O254    1.284   .     A
C199   C212    1.437   .     S
C199   O247    1.284   .     A
C200   C202    1.417   .     A
C200   C225    1.413   .     A
C200   S262    1.769   .     S
C201   C226    1.417   .     A
C201   C220    1.406   .     A
C201   C598    1.506   1_554 S
C202   C221    1.406   .     A
C202   C597    1.506   .     S
C203   C205    1.401   .     S
C203   O256    1.274   .     A
C203   O258    1.276   .     A
C204   O259    1.276   .     A
C204   C206    1.401   .     S
C204   O257    1.273   .     A
C205   C338    1.330   1_455 S
C205   H359    1.088   1_455 S
C206   C271    1.330   .     S
C206   H303    1.088   .     S
C207   C209    1.381   .     A
C207   C218    1.399   .     A
C207   H238    1.083   .     S
C208   C219    1.399   .     A
C208   H239    1.083   .     S
C208   C211    1.380   .     A
C209   H240    1.084   .     S
C209   C212    1.399   .     A
C210   C213    1.437   .     S
C210   O255    1.284   .     A
C210   O253    1.284   .     A
C211   C213    1.399   .     A
C211   H241    1.084   .     S
C212   C214    1.399   .     A
C213   C215    1.399   .     A
C214   H242    1.084   .     S
C214   C216    1.380   .     A
C215   C217    1.381   .     A
C215   H243    1.084   .     S
C216   H244    1.083   .     S
C216   C218    1.399   .     A
C217   H228    1.083   .     S
C217   C219    1.399   .     A
C219   C20     1.444   1_565 S
C220   C222    1.406   .     A
C220   H229    1.083   .     S
C221   H230    1.083   .     S
C221   C223    1.406   .     A
C222   H231    1.081   .     S
C222   N245    1.363   .     A
C223   H232    1.082   .     S
C223   N246    1.362   .     A
C224   C226    1.413   .     A
C224   N245    1.364   .     A
C224   H233    1.080   .     S
C225   N246    1.363   .     A
C225   H234    1.082   .     S
C226   S261    1.770   .     S
H227   C271    1.088   .     S
H235   O249    0.991   .     S
H236   O252    0.990   .     S
H237   C338    1.088   1_455 S
N245   Zn264   2.000   .     S
N246   Zn263   2.000   .     S
O247   Zn263   2.001   .     S
O248   S261    1.503   .     D
O249   S657    1.684   .     S
O250   S262    1.502   .     D
O251   S262    1.503   .     D
O252   S658    1.682   1_554 S
O253   Zn264   2.001   .     S
O254   Zn264   2.001   .     S
O255   Zn263   2.001   .     S
O256   Zn263   1.968   .     S
O257   Zn264   1.968   .     S
O258   Zn264   1.981   .     S
O259   Zn263   1.981   .     S
O260   S261    1.504   .     D
S261   O645    1.684   1_554 S
S262   O648    1.682   .     S
C265   O320    1.284   .     A
C265   C278    1.437   .     S
C265   O313    1.284   .     A
C266   C268    1.417   .     A
C266   C291    1.413   .     A
C266   S328    1.769   .     S
C267   C292    1.417   .     A
C267   C286    1.406   .     A
C267   C664    1.506   1_554 S
C268   C287    1.406   .     A
C268   C663    1.506   .     S
C269   C271    1.401   .     S
C269   O322    1.274   .     A
C269   O324    1.276   .     A
C270   O325    1.276   .     A
C270   C272    1.401   .     S
C270   O323    1.273   .     A
C272   C337    1.330   .     S
C272   H369    1.088   .     S
C273   C275    1.381   .     A
C273   C284    1.399   .     A
C273   H304    1.083   .     S
C274   C285    1.399   .     A
C274   H305    1.083   .     S
C274   C277    1.380   .     A
C275   H306    1.084   .     S
C275   C278    1.399   .     A
C276   C279    1.437   .     S
C276   O321    1.284   .     A
C276   O319    1.284   .     A
C277   C279    1.399   .     A
C277   H307    1.084   .     S
C278   C280    1.399   .     A
C279   C281    1.399   .     A
C280   H308    1.084   .     S
C280   C282    1.380   .     A
C281   C283    1.381   .     A
C281   H309    1.084   .     S
C282   H310    1.083   .     S
C282   C284    1.399   .     A
C283   H294    1.083   .     S
C283   C285    1.399   .     A
C285   C86     1.444   1_565 S
C286   C288    1.406   .     A
C286   H295    1.083   .     S
C287   H296    1.083   .     S
C287   C289    1.406   .     A
C288   H297    1.081   .     S
C288   N311    1.363   .     A
C289   H298    1.082   .     S
C289   N312    1.362   .     A
C290   C292    1.413   .     A
C290   N311    1.364   .     A
C290   H299    1.080   .     S
C291   N312    1.363   .     A
C291   H300    1.082   .     S
C292   S327    1.770   .     S
H293   C337    1.088   .     S
H301   O315    0.991   .     S
H302   O318    0.990   .     S
N311   Zn330   2.000   .     S
N312   Zn329   2.000   .     S
O313   Zn329   2.001   .     S
O314   S327    1.503   .     D
O315   S723    1.684   .     S
O316   S328    1.502   .     D
O317   S328    1.503   .     D
O318   S724    1.682   1_554 S
O319   Zn330   2.001   .     S
O320   Zn330   2.001   .     S
O321   Zn329   2.001   .     S
O322   Zn329   1.968   .     S
O323   Zn330   1.968   .     S
O324   Zn330   1.981   .     S
O325   Zn329   1.981   .     S
O326   S327    1.504   .     D
S327   O711    1.684   1_554 S
S328   O714    1.682   .     S
C331   O386    1.284   .     A
C331   C344    1.437   .     S
C331   O379    1.284   .     A
C332   C334    1.417   .     A
C332   C357    1.413   .     A
C332   S394    1.769   .     S
C333   C358    1.417   .     A
C333   C352    1.406   .     A
C333   C730    1.506   1_554 S
C334   C353    1.406   .     A
C334   C729    1.506   .     S
C335   C337    1.401   .     S
C335   O388    1.274   .     A
C335   O390    1.276   .     A
C336   O391    1.276   .     A
C336   C338    1.401   .     S
C336   O389    1.273   .     A
C338   C205    1.330   1_655 S
C338   H237    1.088   1_655 S
C339   C341    1.381   .     A
C339   C350    1.399   .     A
C339   H370    1.083   .     S
C340   C351    1.399   .     A
C340   H371    1.083   .     S
C340   C343    1.380   .     A
C341   H372    1.084   .     S
C341   C344    1.399   .     A
C342   C345    1.437   .     S
C342   O387    1.284   .     A
C342   O385    1.284   .     A
C343   C345    1.399   .     A
C343   H373    1.084   .     S
C344   C346    1.399   .     A
C345   C347    1.399   .     A
C346   H374    1.084   .     S
C346   C348    1.380   .     A
C347   C349    1.381   .     A
C347   H375    1.084   .     S
C348   H376    1.083   .     S
C348   C350    1.399   .     A
C349   H360    1.083   .     S
C349   C351    1.399   .     A
C351   C152    1.444   1_565 S
C352   C354    1.406   .     A
C352   H361    1.083   .     S
C353   H362    1.083   .     S
C353   C355    1.406   .     A
C354   H363    1.081   .     S
C354   N377    1.363   .     A
C355   H364    1.082   .     S
C355   N378    1.362   .     A
C356   C358    1.413   .     A
C356   N377    1.364   .     A
C356   H365    1.080   .     S
C357   N378    1.363   .     A
C357   H366    1.082   .     S
C358   S393    1.770   .     S
H359   C205    1.088   1_655 S
H367   O381    0.991   .     S
H368   O384    0.990   .     S
N377   Zn396   2.000   .     S
N378   Zn395   2.000   .     S
O379   Zn395   2.001   .     S
O380   S393    1.503   .     D
O381   S789    1.684   .     S
O382   S394    1.502   .     D
O383   S394    1.503   .     D
O384   S790    1.682   1_554 S
O385   Zn396   2.001   .     S
O386   Zn396   2.001   .     S
O387   Zn395   2.001   .     S
O388   Zn395   1.968   .     S
O389   Zn396   1.968   .     S
O390   Zn396   1.981   .     S
O391   Zn395   1.981   .     S
O392   S393    1.504   .     D
S393   O777    1.684   1_554 S
S394   O780    1.682   .     S
C397   O452    1.284   .     A
C397   C410    1.437   .     S
C397   O445    1.284   .     A
C398   C400    1.417   .     A
C398   C423    1.413   .     A
C398   S460    1.769   .     S
C399   C424    1.417   .     A
C399   C418    1.406   .     A
C400   C419    1.406   .     A
C400   C3      1.506   1_556 S
C401   C403    1.401   .     S
C401   O454    1.274   .     A
C401   O456    1.276   .     A
C402   O457    1.276   .     A
C402   C404    1.401   .     S
C402   O455    1.273   .     A
C403   C536    1.330   1_455 S
C403   H557    1.088   1_455 S
C404   C469    1.330   .     S
C404   H501    1.088   .     S
C405   C407    1.381   .     A
C405   C416    1.399   .     A
C405   H436    1.083   .     S
C406   C417    1.399   .     A
C406   H437    1.083   .     S
C406   C409    1.380   .     A
C407   H438    1.084   .     S
C407   C410    1.399   .     A
C408   C411    1.437   .     S
C408   O453    1.284   .     A
C408   O451    1.284   .     A
C409   C411    1.399   .     A
C409   H439    1.084   .     S
C410   C412    1.399   .     A
C411   C413    1.399   .     A
C412   H440    1.084   .     S
C412   C414    1.380   .     A
C413   C415    1.381   .     A
C413   H441    1.084   .     S
C414   H442    1.083   .     S
C414   C416    1.399   .     A
C415   H426    1.083   .     S
C415   C417    1.399   .     A
C416   C615    1.444   1_545 S
C417   C614    1.444   .     S
C418   C420    1.406   .     A
C418   H427    1.083   .     S
C419   H428    1.083   .     S
C419   C421    1.406   .     A
C420   H429    1.081   .     S
C420   N443    1.363   .     A
C421   H430    1.082   .     S
C421   N444    1.362   .     A
C422   C424    1.413   .     A
C422   N443    1.364   .     A
C422   H431    1.080   .     S
C423   N444    1.363   .     A
C423   H432    1.082   .     S
C424   S459    1.770   .     S
H425   C469    1.088   .     S
H433   O447    0.991   .     S
H434   O450    0.990   .     S
H435   C536    1.088   1_455 S
N443   Zn462   2.000   .     S
N444   Zn461   2.000   .     S
O445   Zn461   2.001   .     S
O446   S459    1.503   .     D
O447   S63     1.684   1_556 S
O448   S460    1.502   .     D
O449   S460    1.503   .     D
O451   Zn462   2.001   .     S
O452   Zn462   2.001   .     S
O453   Zn461   2.001   .     S
O454   Zn461   1.968   .     S
O455   Zn462   1.968   .     S
O456   Zn462   1.981   .     S
O457   Zn461   1.981   .     S
O458   S459    1.504   .     D
S460   O54     1.682   1_556 S
C463   O518    1.284   .     A
C463   C476    1.437   .     S
C463   O511    1.284   .     A
C464   C466    1.417   .     A
C464   C489    1.413   .     A
C464   S526    1.769   .     S
C465   C490    1.417   .     A
C465   C484    1.406   .     A
C466   C485    1.406   .     A
C466   C69     1.506   1_556 S
C467   C469    1.401   .     S
C467   O520    1.274   .     A
C467   O522    1.276   .     A
C468   O523    1.276   .     A
C468   C470    1.401   .     S
C468   O521    1.273   .     A
C470   C535    1.330   .     S
C470   H567    1.088   .     S
C471   C473    1.381   .     A
C471   C482    1.399   .     A
C471   H502    1.083   .     S
C472   C483    1.399   .     A
C472   H503    1.083   .     S
C472   C475    1.380   .     A
C473   H504    1.084   .     S
C473   C476    1.399   .     A
C474   C477    1.437   .     S
C474   O519    1.284   .     A
C474   O517    1.284   .     A
C475   C477    1.399   .     A
C475   H505    1.084   .     S
C476   C478    1.399   .     A
C477   C479    1.399   .     A
C478   H506    1.084   .     S
C478   C480    1.380   .     A
C479   C481    1.381   .     A
C479   H507    1.084   .     S
C480   H508    1.083   .     S
C480   C482    1.399   .     A
C481   H492    1.083   .     S
C481   C483    1.399   .     A
C482   C681    1.444   1_545 S
C483   C680    1.444   .     S
C484   C486    1.406   .     A
C484   H493    1.083   .     S
C485   H494    1.083   .     S
C485   C487    1.406   .     A
C486   H495    1.081   .     S
C486   N509    1.363   .     A
C487   H496    1.082   .     S
C487   N510    1.362   .     A
C488   C490    1.413   .     A
C488   N509    1.364   .     A
C488   H497    1.080   .     S
C489   N510    1.363   .     A
C489   H498    1.082   .     S
C490   S525    1.770   .     S
H491   C535    1.088   .     S
H499   O513    0.991   .     S
H500   O516    0.990   .     S
N509   Zn528   2.000   .     S
N510   Zn527   2.000   .     S
O511   Zn527   2.001   .     S
O512   S525    1.503   .     D
O513   S129    1.684   1_556 S
O514   S526    1.502   .     D
O515   S526    1.503   .     D
O517   Zn528   2.001   .     S
O518   Zn528   2.001   .     S
O519   Zn527   2.001   .     S
O520   Zn527   1.968   .     S
O521   Zn528   1.968   .     S
O522   Zn528   1.981   .     S
O523   Zn527   1.981   .     S
O524   S525    1.504   .     D
S526   O120    1.682   1_556 S
C529   O584    1.284   .     A
C529   C542    1.437   .     S
C529   O577    1.284   .     A
C530   C532    1.417   .     A
C530   C555    1.413   .     A
C530   S592    1.769   .     S
C531   C556    1.417   .     A
C531   C550    1.406   .     A
C532   C551    1.406   .     A
C532   C135    1.506   1_556 S
C533   C535    1.401   .     S
C533   O586    1.274   .     A
C533   O588    1.276   .     A
C534   O589    1.276   .     A
C534   C536    1.401   .     S
C534   O587    1.273   .     A
C536   C403    1.330   1_655 S
C536   H435    1.088   1_655 S
C537   C539    1.381   .     A
C537   C548    1.399   .     A
C537   H568    1.083   .     S
C538   C549    1.399   .     A
C538   H569    1.083   .     S
C538   C541    1.380   .     A
C539   H570    1.084   .     S
C539   C542    1.399   .     A
C540   C543    1.437   .     S
C540   O585    1.284   .     A
C540   O583    1.284   .     A
C541   C543    1.399   .     A
C541   H571    1.084   .     S
C542   C544    1.399   .     A
C543   C545    1.399   .     A
C544   H572    1.084   .     S
C544   C546    1.380   .     A
C545   C547    1.381   .     A
C545   H573    1.084   .     S
C546   H574    1.083   .     S
C546   C548    1.399   .     A
C547   H558    1.083   .     S
C547   C549    1.399   .     A
C548   C747    1.444   1_545 S
C549   C746    1.444   .     S
C550   C552    1.406   .     A
C550   H559    1.083   .     S
C551   H560    1.083   .     S
C551   C553    1.406   .     A
C552   H561    1.081   .     S
C552   N575    1.363   .     A
C553   H562    1.082   .     S
C553   N576    1.362   .     A
C554   C556    1.413   .     A
C554   N575    1.364   .     A
C554   H563    1.080   .     S
C555   N576    1.363   .     A
C555   H564    1.082   .     S
C556   S591    1.770   .     S
H557   C403    1.088   1_655 S
H565   O579    0.991   .     S
H566   O582    0.990   .     S
N575   Zn594   2.000   .     S
N576   Zn593   2.000   .     S
O577   Zn593   2.001   .     S
O578   S591    1.503   .     D
O579   S195    1.684   1_556 S
O580   S592    1.502   .     D
O581   S592    1.503   .     D
O583   Zn594   2.001   .     S
O584   Zn594   2.001   .     S
O585   Zn593   2.001   .     S
O586   Zn593   1.968   .     S
O587   Zn594   1.968   .     S
O588   Zn594   1.981   .     S
O589   Zn593   1.981   .     S
O590   S591    1.504   .     D
S592   O186    1.682   1_556 S
C595   O650    1.284   .     A
C595   C608    1.437   .     S
C595   O643    1.284   .     A
C596   C598    1.417   .     A
C596   C621    1.413   .     A
C596   S658    1.769   .     S
C597   C622    1.417   .     A
C597   C616    1.406   .     A
C598   C617    1.406   .     A
C598   C201    1.506   1_556 S
C599   C601    1.401   .     S
C599   O652    1.274   .     A
C599   O654    1.276   .     A
C600   O655    1.276   .     A
C600   C602    1.401   .     S
C600   O653    1.273   .     A
C601   C734    1.330   1_455 S
C601   H755    1.088   1_455 S
C602   C667    1.330   .     S
C602   H699    1.088   .     S
C603   C605    1.381   .     A
C603   C614    1.399   .     A
C603   H634    1.083   .     S
C604   C615    1.399   .     A
C604   H635    1.083   .     S
C604   C607    1.380   .     A
C605   H636    1.084   .     S
C605   C608    1.399   .     A
C606   C609    1.437   .     S
C606   O651    1.284   .     A
C606   O649    1.284   .     A
C607   C609    1.399   .     A
C607   H637    1.084   .     S
C608   C610    1.399   .     A
C609   C611    1.399   .     A
C610   H638    1.084   .     S
C610   C612    1.380   .     A
C611   C613    1.381   .     A
C611   H639    1.084   .     S
C612   H640    1.083   .     S
C612   C614    1.399   .     A
C613   H624    1.083   .     S
C613   C615    1.399   .     A
C615   C416    1.444   1_565 S
C616   C618    1.406   .     A
C616   H625    1.083   .     S
C617   H626    1.083   .     S
C617   C619    1.406   .     A
C618   H627    1.081   .     S
C618   N641    1.363   .     A
C619   H628    1.082   .     S
C619   N642    1.362   .     A
C620   C622    1.413   .     A
C620   N641    1.364   .     A
C620   H629    1.080   .     S
C621   N642    1.363   .     A
C621   H630    1.082   .     S
C622   S657    1.770   .     S
H623   C667    1.088   .     S
H631   O645    0.991   .     S
H632   O648    0.990   .     S
H633   C734    1.088   1_455 S
N641   Zn660   2.000   .     S
N642   Zn659   2.000   .     S
O643   Zn659   2.001   .     S
O644   S657    1.503   .     D
O645   S261    1.684   1_556 S
O646   S658    1.502   .     D
O647   S658    1.503   .     D
O649   Zn660   2.001   .     S
O650   Zn660   2.001   .     S
O651   Zn659   2.001   .     S
O652   Zn659   1.968   .     S
O653   Zn660   1.968   .     S
O654   Zn660   1.981   .     S
O655   Zn659   1.981   .     S
O656   S657    1.504   .     D
S658   O252    1.682   1_556 S
C661   O716    1.284   .     A
C661   C674    1.437   .     S
C661   O709    1.284   .     A
C662   C664    1.417   .     A
C662   C687    1.413   .     A
C662   S724    1.769   .     S
C663   C688    1.417   .     A
C663   C682    1.406   .     A
C664   C683    1.406   .     A
C664   C267    1.506   1_556 S
C665   C667    1.401   .     S
C665   O718    1.274   .     A
C665   O720    1.276   .     A
C666   O721    1.276   .     A
C666   C668    1.401   .     S
C666   O719    1.273   .     A
C668   C733    1.330   .     S
C668   H765    1.088   .     S
C669   C671    1.381   .     A
C669   C680    1.399   .     A
C669   H700    1.083   .     S
C670   C681    1.399   .     A
C670   H701    1.083   .     S
C670   C673    1.380   .     A
C671   H702    1.084   .     S
C671   C674    1.399   .     A
C672   C675    1.437   .     S
C672   O717    1.284   .     A
C672   O715    1.284   .     A
C673   C675    1.399   .     A
C673   H703    1.084   .     S
C674   C676    1.399   .     A
C675   C677    1.399   .     A
C676   H704    1.084   .     S
C676   C678    1.380   .     A
C677   C679    1.381   .     A
C677   H705    1.084   .     S
C678   H706    1.083   .     S
C678   C680    1.399   .     A
C679   H690    1.083   .     S
C679   C681    1.399   .     A
C681   C482    1.444   1_565 S
C682   C684    1.406   .     A
C682   H691    1.083   .     S
C683   H692    1.083   .     S
C683   C685    1.406   .     A
C684   H693    1.081   .     S
C684   N707    1.363   .     A
C685   H694    1.082   .     S
C685   N708    1.362   .     A
C686   C688    1.413   .     A
C686   N707    1.364   .     A
C686   H695    1.080   .     S
C687   N708    1.363   .     A
C687   H696    1.082   .     S
C688   S723    1.770   .     S
H689   C733    1.088   .     S
H697   O711    0.991   .     S
H698   O714    0.990   .     S
N707   Zn726   2.000   .     S
N708   Zn725   2.000   .     S
O709   Zn725   2.001   .     S
O710   S723    1.503   .     D
O711   S327    1.684   1_556 S
O712   S724    1.502   .     D
O713   S724    1.503   .     D
O715   Zn726   2.001   .     S
O716   Zn726   2.001   .     S
O717   Zn725   2.001   .     S
O718   Zn725   1.968   .     S
O719   Zn726   1.968   .     S
O720   Zn726   1.981   .     S
O721   Zn725   1.981   .     S
O722   S723    1.504   .     D
S724   O318    1.682   1_556 S
C727   O782    1.284   .     A
C727   C740    1.437   .     S
C727   O775    1.284   .     A
C728   C730    1.417   .     A
C728   C753    1.413   .     A
C728   S790    1.769   .     S
C729   C754    1.417   .     A
C729   C748    1.406   .     A
C730   C749    1.406   .     A
C730   C333    1.506   1_556 S
C731   C733    1.401   .     S
C731   O784    1.274   .     A
C731   O786    1.276   .     A
C732   O787    1.276   .     A
C732   C734    1.401   .     S
C732   O785    1.273   .     A
C734   C601    1.330   1_655 S
C734   H633    1.088   1_655 S
C735   C737    1.381   .     A
C735   C746    1.399   .     A
C735   H766    1.083   .     S
C736   C747    1.399   .     A
C736   H767    1.083   .     S
C736   C739    1.380   .     A
C737   H768    1.084   .     S
C737   C740    1.399   .     A
C738   C741    1.437   .     S
C738   O783    1.284   .     A
C738   O781    1.284   .     A
C739   C741    1.399   .     A
C739   H769    1.084   .     S
C740   C742    1.399   .     A
C741   C743    1.399   .     A
C742   H770    1.084   .     S
C742   C744    1.380   .     A
C743   C745    1.381   .     A
C743   H771    1.084   .     S
C744   H772    1.083   .     S
C744   C746    1.399   .     A
C745   H756    1.083   .     S
C745   C747    1.399   .     A
C747   C548    1.444   1_565 S
C748   C750    1.406   .     A
C748   H757    1.083   .     S
C749   H758    1.083   .     S
C749   C751    1.406   .     A
C750   H759    1.081   .     S
C750   N773    1.363   .     A
C751   H760    1.082   .     S
C751   N774    1.362   .     A
C752   C754    1.413   .     A
C752   N773    1.364   .     A
C752   H761    1.080   .     S
C753   N774    1.363   .     A
C753   H762    1.082   .     S
C754   S789    1.770   .     S
H755   C601    1.088   1_655 S
H763   O777    0.991   .     S
H764   O780    0.990   .     S
N773   Zn792   2.000   .     S
N774   Zn791   2.000   .     S
O775   Zn791   2.001   .     S
O776   S789    1.503   .     D
O777   S393    1.684   1_556 S
O778   S790    1.502   .     D
O779   S790    1.503   .     D
O781   Zn792   2.001   .     S
O782   Zn792   2.001   .     S
O783   Zn791   2.001   .     S
O784   Zn791   1.968   .     S
O785   Zn792   1.968   .     S
O786   Zn792   1.981   .     S
O787   Zn791   1.981   .     S
O788   S789    1.504   .     D
S790   O384    1.682   1_556 S
